MODEL 1
REMARK VINA RESULT:      -7.2      0.000      0.000
REMARK  Name = 
REMARK  10 active torsions:
REMARK  status: ('A' for Active; 'I' for Inactive)
REMARK    1  A    between atoms: C_1  and  O_2
REMARK    2  A    between atoms: O_2  and  C_3
REMARK    3  A    between atoms: C_3  and  C_5
REMARK    4  A    between atoms: C_10  and  N_11
REMARK    5  A    between atoms: C_12  and  C_14
REMARK    6  A    between atoms: N_19  and  C_20
REMARK    7  A    between atoms: C_28  and  O_29
REMARK    8  A    between atoms: O_29  and  C_30
REMARK    9  A    between atoms: C_31  and  O_32
REMARK   10  A    between atoms: O_32  and  C_33
REMARK                            x       y       z     vdW  Elec       q    Type
REMARK                         _______ _______ _______ _____ _____    ______ ____
ROOT
ATOM      1  C   UNL     1       2.129   4.248  19.360  0.00  0.00    +0.000 C 
ATOM      2  C   UNL     1       0.975   4.290  20.381  0.00  0.00    +0.000 C 
ATOM      3  C   UNL     1       1.217   3.136  21.325  0.00  0.00    +0.000 C 
ATOM      4  C   UNL     1       2.695   2.875  21.187  0.00  0.00    +0.000 C 
ATOM      5  O   UNL     1       3.332   2.115  21.890  0.00  0.00    +0.000 OA
ATOM      6  N   UNL     1       3.204   3.563  20.095  0.00  0.00    +0.000 N 
ENDROOT
BRANCH   6   7
ATOM      7  C   UNL     1       4.527   3.196  19.574  0.00  0.00    +0.000 C 
ATOM      8  O   UNL     1       5.485   3.928  20.336  0.00  0.00    +0.000 OA
ATOM      9  C   UNL     1       6.079   4.897  19.576  0.00  0.00    +0.000 C 
ATOM     10  O   UNL     1       7.063   5.526  19.904  0.00  0.00    +0.000 OA
ATOM     11  C   UNL     1       5.471   4.829  18.251  0.00  0.00    +0.000 A 
ATOM     12  C   UNL     1       4.861   3.602  18.172  0.00  0.00    +0.000 A 
ATOM     13  C   UNL     1       4.889   2.966  16.944  0.00  0.00    +0.000 A 
ATOM     14  C   UNL     1       5.322   3.701  15.801  0.00  0.00    +0.000 A 
ATOM     15  C   UNL     1       5.627   5.077  15.893  0.00  0.00    +0.000 A 
ATOM     16  C   UNL     1       5.729   5.652  17.165  0.00  0.00    +0.000 A 
BRANCH  15  17
ATOM     17  O   UNL     1       5.764   5.899  14.811  0.00  0.00    +0.000 OA
ATOM     18  C   UNL     1       6.593   5.499  13.730  0.00  0.00    +0.000 C 
ENDBRANCH  15  17
BRANCH  16  19
ATOM     19  O   UNL     1       5.986   6.940  17.523  0.00  0.00    +0.000 OA
ATOM     20  C   UNL     1       7.277   7.481  17.319  0.00  0.00    +0.000 C 
ENDBRANCH  16  19
ENDBRANCH   6   7
BRANCH   1  22
ATOM     21  N   UNL     1       1.872   6.745  19.632  0.00  0.00    +0.000 N 
ATOM     22  C   UNL     1       2.153   5.696  18.782  0.00  0.00    +0.000 C 
ATOM     23  O   UNL     1       2.362   5.825  17.572  0.00  0.00    +0.000 OA
ATOM     24  H   UNL     1       1.940   6.558  20.631  0.00  0.00    +0.000 HD
BRANCH  21  30
ATOM     25  C   UNL     1       1.131   9.072  20.063  0.00  0.00    +0.000 A 
ATOM     26  C   UNL     1       1.123  10.438  19.711  0.00  0.00    +0.000 A 
ATOM     27  C   UNL     1       1.738  10.883  18.546  0.00  0.00    +0.000 A 
ATOM     28  C   UNL     1       2.361   9.957  17.716  0.00  0.00    +0.000 A 
ATOM     29  C   UNL     1       2.386   8.598  18.065  0.00  0.00    +0.000 A 
ATOM     30  C   UNL     1       1.800   8.126  19.256  0.00  0.00    +0.000 A 
BRANCH  25  31
ATOM     31  C   UNL     1       0.456   8.756  21.345  0.00  0.00    +0.000 C 
ATOM     32  O   UNL     1      -0.173   7.726  21.535  0.00  0.00    +0.000 OA
BRANCH  31  34
ATOM     33  C   UNL     1      -0.362   9.980  23.149  0.00  0.00    +0.000 C 
ATOM     34  O   UNL     1       0.736   9.702  22.277  0.00  0.00    +0.000 OA
ENDBRANCH  31  34
ENDBRANCH  25  31
ENDBRANCH  21  30
ENDBRANCH   1  22
TORSDOF 7
ENDMDL
MODEL 2
REMARK VINA RESULT:      -7.0      5.852      9.895
REMARK  Name = 
REMARK  10 active torsions:
REMARK  status: ('A' for Active; 'I' for Inactive)
REMARK    1  A    between atoms: C_1  and  O_2
REMARK    2  A    between atoms: O_2  and  C_3
REMARK    3  A    between atoms: C_3  and  C_5
REMARK    4  A    between atoms: C_10  and  N_11
REMARK    5  A    between atoms: C_12  and  C_14
REMARK    6  A    between atoms: N_19  and  C_20
REMARK    7  A    between atoms: C_28  and  O_29
REMARK    8  A    between atoms: O_29  and  C_30
REMARK    9  A    between atoms: C_31  and  O_32
REMARK   10  A    between atoms: O_32  and  C_33
REMARK                            x       y       z     vdW  Elec       q    Type
REMARK                         _______ _______ _______ _____ _____    ______ ____
ROOT
ATOM      1  C   UNL     1      -3.936  13.168  22.191  0.00  0.00    +0.000 C 
ATOM      2  C   UNL     1      -5.174  14.085  22.230  0.00  0.00    +0.000 C 
ATOM      3  C   UNL     1      -5.220  14.659  23.626  0.00  0.00    +0.000 C 
ATOM      4  C   UNL     1      -3.795  14.538  24.101  0.00  0.00    +0.000 C 
ATOM      5  O   UNL     1      -3.365  15.023  25.130  0.00  0.00    +0.000 OA
ATOM      6  N   UNL     1      -3.068  13.731  23.238  0.00  0.00    +0.000 N 
ENDROOT
BRANCH   6   7
ATOM      7  C   UNL     1      -1.769  13.205  23.677  0.00  0.00    +0.000 C 
ATOM      8  O   UNL     1      -0.807  14.228  23.430  0.00  0.00    +0.000 OA
ATOM      9  C   UNL     1       0.032  13.876  22.409  0.00  0.00    +0.000 C 
ATOM     10  O   UNL     1       1.057  14.459  22.125  0.00  0.00    +0.000 OA
ATOM     11  C   UNL     1      -0.406  12.568  21.932  0.00  0.00    +0.000 A 
ATOM     12  C   UNL     1      -1.196  12.044  22.924  0.00  0.00    +0.000 A 
ATOM     13  C   UNL     1      -1.119  10.678  23.132  0.00  0.00    +0.000 A 
ATOM     14  C   UNL     1      -0.428   9.878  22.176  0.00  0.00    +0.000 A 
ATOM     15  C   UNL     1       0.087  10.444  20.989  0.00  0.00    +0.000 A 
ATOM     16  C   UNL     1       0.122  11.838  20.878  0.00  0.00    +0.000 A 
BRANCH  15  17
ATOM     17  O   UNL     1       0.496   9.710  19.912  0.00  0.00    +0.000 OA
ATOM     18  C   UNL     1       1.408   8.639  20.102  0.00  0.00    +0.000 C 
ENDBRANCH  15  17
BRANCH  16  19
ATOM     19  O   UNL     1       0.542  12.623  19.847  0.00  0.00    +0.000 OA
ATOM     20  C   UNL     1       1.891  12.565  19.428  0.00  0.00    +0.000 C 
ENDBRANCH  16  19
ENDBRANCH   6   7
BRANCH   1  22
ATOM     21  N   UNL     1      -3.962  11.878  20.021  0.00  0.00    +0.000 N 
ATOM     22  C   UNL     1      -3.622  13.047  20.669  0.00  0.00    +0.000 C 
ATOM     23  O   UNL     1      -3.023  13.985  20.132  0.00  0.00    +0.000 OA
ATOM     24  H   UNL     1      -4.641  11.277  20.485  0.00  0.00    +0.000 HD
BRANCH  21  30
ATOM     25  C   UNL     1      -4.747  11.486  17.702  0.00  0.00    +0.000 A 
ATOM     26  C   UNL     1      -4.467  11.256  16.338  0.00  0.00    +0.000 A 
ATOM     27  C   UNL     1      -3.160  11.082  15.893  0.00  0.00    +0.000 A 
ATOM     28  C   UNL     1      -2.122  11.127  16.816  0.00  0.00    +0.000 A 
ATOM     29  C   UNL     1      -2.390  11.369  18.172  0.00  0.00    +0.000 A 
ATOM     30  C   UNL     1      -3.699  11.582  18.644  0.00  0.00    +0.000 A 
BRANCH  25  31
ATOM     31  C   UNL     1      -6.182  11.676  18.018  0.00  0.00    +0.000 C 
ATOM     32  O   UNL     1      -6.899  12.472  17.432  0.00  0.00    +0.000 OA
BRANCH  31  34
ATOM     33  C   UNL     1      -7.420  11.343  19.963  0.00  0.00    +0.000 C 
ATOM     34  O   UNL     1      -6.588  10.775  18.949  0.00  0.00    +0.000 OA
ENDBRANCH  31  34
ENDBRANCH  25  31
ENDBRANCH  21  30
ENDBRANCH   1  22
TORSDOF 7
ENDMDL
MODEL 3
REMARK VINA RESULT:      -6.9      5.536      9.316
REMARK  Name = 
REMARK  10 active torsions:
REMARK  status: ('A' for Active; 'I' for Inactive)
REMARK    1  A    between atoms: C_1  and  O_2
REMARK    2  A    between atoms: O_2  and  C_3
REMARK    3  A    between atoms: C_3  and  C_5
REMARK    4  A    between atoms: C_10  and  N_11
REMARK    5  A    between atoms: C_12  and  C_14
REMARK    6  A    between atoms: N_19  and  C_20
REMARK    7  A    between atoms: C_28  and  O_29
REMARK    8  A    between atoms: O_29  and  C_30
REMARK    9  A    between atoms: C_31  and  O_32
REMARK   10  A    between atoms: O_32  and  C_33
REMARK                            x       y       z     vdW  Elec       q    Type
REMARK                         _______ _______ _______ _____ _____    ______ ____
ROOT
ATOM      1  C   UNL     1      -0.427  10.579  21.617  0.00  0.00    +0.000 C 
ATOM      2  C   UNL     1       0.244   9.710  22.699  0.00  0.00    +0.000 C 
ATOM      3  C   UNL     1       0.835   8.526  21.969  0.00  0.00    +0.000 C 
ATOM      4  C   UNL     1       0.994   9.029  20.558  0.00  0.00    +0.000 C 
ATOM      5  O   UNL     1       1.577   8.433  19.672  0.00  0.00    +0.000 OA
ATOM      6  N   UNL     1       0.315  10.227  20.396  0.00  0.00    +0.000 N 
ENDROOT
BRANCH   6   7
ATOM      7  C   UNL     1       0.051  10.719  19.037  0.00  0.00    +0.000 C 
ATOM      8  O   UNL     1       0.254  12.131  19.066  0.00  0.00    +0.000 OA
ATOM      9  C   UNL     1      -0.931  12.800  18.930  0.00  0.00    +0.000 C 
ATOM     10  O   UNL     1      -1.033  13.989  18.719  0.00  0.00    +0.000 OA
ATOM     11  C   UNL     1      -1.980  11.789  18.833  0.00  0.00    +0.000 A 
ATOM     12  C   UNL     1      -1.349  10.612  18.516  0.00  0.00    +0.000 A 
ATOM     13  C   UNL     1      -2.018   9.751  17.665  0.00  0.00    +0.000 A 
ATOM     14  C   UNL     1      -3.387  10.012  17.363  0.00  0.00    +0.000 A 
ATOM     15  C   UNL     1      -4.082  11.069  17.992  0.00  0.00    +0.000 A 
ATOM     16  C   UNL     1      -3.346  12.003  18.730  0.00  0.00    +0.000 A 
BRANCH  15  17
ATOM     17  O   UNL     1      -5.441  11.200  17.976  0.00  0.00    +0.000 OA
ATOM     18  C   UNL     1      -6.040  12.172  17.133  0.00  0.00    +0.000 C 
ENDBRANCH  15  17
BRANCH  16  19
ATOM     19  O   UNL     1      -3.770  13.085  19.440  0.00  0.00    +0.000 OA
ATOM     20  C   UNL     1      -4.492  12.897  20.640  0.00  0.00    +0.000 C 
ENDBRANCH  16  19
ENDBRANCH   6   7
BRANCH   1  22
ATOM     21  N   UNL     1      -1.670  12.289  22.997  0.00  0.00    +0.000 N 
ATOM     22  C   UNL     1      -0.527  11.981  22.291  0.00  0.00    +0.000 C 
ATOM     23  O   UNL     1       0.402  12.774  22.102  0.00  0.00    +0.000 OA
ATOM     24  H   UNL     1      -2.259  11.507  23.280  0.00  0.00    +0.000 HD
BRANCH  21  30
ATOM     25  C   UNL     1      -3.198  13.803  24.231  0.00  0.00    +0.000 A 
ATOM     26  C   UNL     1      -3.433  15.020  24.905  0.00  0.00    +0.000 A 
ATOM     27  C   UNL     1      -2.457  16.009  24.961  0.00  0.00    +0.000 A 
ATOM     28  C   UNL     1      -1.236  15.789  24.333  0.00  0.00    +0.000 A 
ATOM     29  C   UNL     1      -0.989  14.576  23.673  0.00  0.00    +0.000 A 
ATOM     30  C   UNL     1      -1.946  13.545  23.629  0.00  0.00    +0.000 A 
BRANCH  25  31
ATOM     31  C   UNL     1      -4.323  12.839  24.278  0.00  0.00    +0.000 C 
ATOM     32  O   UNL     1      -4.202  11.683  24.654  0.00  0.00    +0.000 OA
BRANCH  31  34
ATOM     33  C   UNL     1      -6.630  12.599  24.072  0.00  0.00    +0.000 C 
ATOM     34  O   UNL     1      -5.491  13.454  23.959  0.00  0.00    +0.000 OA
ENDBRANCH  31  34
ENDBRANCH  25  31
ENDBRANCH  21  30
ENDBRANCH   1  22
TORSDOF 7
ENDMDL
MODEL 4
REMARK VINA RESULT:      -6.9      5.090      8.980
REMARK  Name = 
REMARK  10 active torsions:
REMARK  status: ('A' for Active; 'I' for Inactive)
REMARK    1  A    between atoms: C_1  and  O_2
REMARK    2  A    between atoms: O_2  and  C_3
REMARK    3  A    between atoms: C_3  and  C_5
REMARK    4  A    between atoms: C_10  and  N_11
REMARK    5  A    between atoms: C_12  and  C_14
REMARK    6  A    between atoms: N_19  and  C_20
REMARK    7  A    between atoms: C_28  and  O_29
REMARK    8  A    between atoms: O_29  and  C_30
REMARK    9  A    between atoms: C_31  and  O_32
REMARK   10  A    between atoms: O_32  and  C_33
REMARK                            x       y       z     vdW  Elec       q    Type
REMARK                         _______ _______ _______ _____ _____    ______ ____
ROOT
ATOM      1  C   UNL     1      -0.331   9.856  21.104  0.00  0.00    +0.000 C 
ATOM      2  C   UNL     1       0.522   8.943  22.005  0.00  0.00    +0.000 C 
ATOM      3  C   UNL     1       1.348   8.093  21.069  0.00  0.00    +0.000 C 
ATOM      4  C   UNL     1       1.380   8.902  19.798  0.00  0.00    +0.000 C 
ATOM      5  O   UNL     1       2.069   8.643  18.829  0.00  0.00    +0.000 OA
ATOM      6  N   UNL     1       0.456   9.934  19.863  0.00  0.00    +0.000 N 
ENDROOT
BRANCH   6   7
ATOM      7  C   UNL     1       0.078  10.632  18.627  0.00  0.00    +0.000 C 
ATOM      8  O   UNL     1       0.305  12.022  18.855  0.00  0.00    +0.000 OA
ATOM      9  C   UNL     1      -0.876  12.706  18.933  0.00  0.00    +0.000 C 
ATOM     10  O   UNL     1      -0.977  13.914  18.919  0.00  0.00    +0.000 OA
ATOM     11  C   UNL     1      -1.946  11.724  18.779  0.00  0.00    +0.000 A 
ATOM     12  C   UNL     1      -1.365  10.610  18.227  0.00  0.00    +0.000 A 
ATOM     13  C   UNL     1      -2.122   9.893  17.318  0.00  0.00    +0.000 A 
ATOM     14  C   UNL     1      -3.509  10.200  17.188  0.00  0.00    +0.000 A 
ATOM     15  C   UNL     1      -4.127  11.148  18.033  0.00  0.00    +0.000 A 
ATOM     16  C   UNL     1      -3.312  11.954  18.836  0.00  0.00    +0.000 A 
BRANCH  15  17
ATOM     17  O   UNL     1      -5.479  11.283  18.164  0.00  0.00    +0.000 OA
ATOM     18  C   UNL     1      -6.156  12.288  17.424  0.00  0.00    +0.000 C 
ENDBRANCH  15  17
BRANCH  16  19
ATOM     19  O   UNL     1      -3.651  12.914  19.741  0.00  0.00    +0.000 OA
ATOM     20  C   UNL     1      -4.061  12.538  21.040  0.00  0.00    +0.000 C 
ENDBRANCH  16  19
ENDBRANCH   6   7
BRANCH   1  22
ATOM     21  N   UNL     1      -0.298  12.302  21.726  0.00  0.00    +0.000 N 
ATOM     22  C   UNL     1      -0.726  11.031  22.048  0.00  0.00    +0.000 C 
ATOM     23  O   UNL     1      -1.350  10.753  23.077  0.00  0.00    +0.000 OA
ATOM     24  H   UNL     1       0.004  12.455  20.764  0.00  0.00    +0.000 HD
BRANCH  21  30
ATOM     25  C   UNL     1       0.231  14.655  22.301  0.00  0.00    +0.000 A 
ATOM     26  C   UNL     1      -0.046  15.827  23.035  0.00  0.00    +0.000 A 
ATOM     27  C   UNL     1      -1.043  15.847  24.006  0.00  0.00    +0.000 A 
ATOM     28  C   UNL     1      -1.765  14.685  24.255  0.00  0.00    +0.000 A 
ATOM     29  C   UNL     1      -1.505  13.519  23.519  0.00  0.00    +0.000 A 
ATOM     30  C   UNL     1      -0.525  13.481  22.508  0.00  0.00    +0.000 A 
BRANCH  25  31
ATOM     31  C   UNL     1       1.304  14.797  21.287  0.00  0.00    +0.000 C 
ATOM     32  O   UNL     1       1.377  15.740  20.514  0.00  0.00    +0.000 OA
BRANCH  31  34
ATOM     33  C   UNL     1       3.239  13.834  20.419  0.00  0.00    +0.000 C 
ATOM     34  O   UNL     1       2.224  13.808  21.425  0.00  0.00    +0.000 OA
ENDBRANCH  31  34
ENDBRANCH  25  31
ENDBRANCH  21  30
ENDBRANCH   1  22
TORSDOF 7
ENDMDL
MODEL 5
REMARK VINA RESULT:      -6.9      4.922      8.761
REMARK  Name = 
REMARK  10 active torsions:
REMARK  status: ('A' for Active; 'I' for Inactive)
REMARK    1  A    between atoms: C_1  and  O_2
REMARK    2  A    between atoms: O_2  and  C_3
REMARK    3  A    between atoms: C_3  and  C_5
REMARK    4  A    between atoms: C_10  and  N_11
REMARK    5  A    between atoms: C_12  and  C_14
REMARK    6  A    between atoms: N_19  and  C_20
REMARK    7  A    between atoms: C_28  and  O_29
REMARK    8  A    between atoms: O_29  and  C_30
REMARK    9  A    between atoms: C_31  and  O_32
REMARK   10  A    between atoms: O_32  and  C_33
REMARK                            x       y       z     vdW  Elec       q    Type
REMARK                         _______ _______ _______ _____ _____    ______ ____
ROOT
ATOM      1  C   UNL     1       0.040   9.976  21.054  0.00  0.00    +0.000 C 
ATOM      2  C   UNL     1       0.851   9.054  21.984  0.00  0.00    +0.000 C 
ATOM      3  C   UNL     1       1.452   7.993  21.093  0.00  0.00    +0.000 C 
ATOM      4  C   UNL     1       1.461   8.642  19.733  0.00  0.00    +0.000 C 
ATOM      5  O   UNL     1       2.003   8.178  18.748  0.00  0.00    +0.000 OA
ATOM      6  N   UNL     1       0.696   9.800  19.749  0.00  0.00    +0.000 N 
ENDROOT
BRANCH   6   7
ATOM      7  C   UNL     1       0.290  10.403  18.473  0.00  0.00    +0.000 C 
ATOM      8  O   UNL     1       0.588  11.795  18.565  0.00  0.00    +0.000 OA
ATOM      9  C   UNL     1      -0.558  12.538  18.633  0.00  0.00    +0.000 C 
ATOM     10  O   UNL     1      -0.607  13.744  18.515  0.00  0.00    +0.000 OA
ATOM     11  C   UNL     1      -1.675  11.598  18.615  0.00  0.00    +0.000 A 
ATOM     12  C   UNL     1      -1.170  10.414  18.141  0.00  0.00    +0.000 A 
ATOM     13  C   UNL     1      -2.001   9.657  17.334  0.00  0.00    +0.000 A 
ATOM     14  C   UNL     1      -3.377  10.017  17.238  0.00  0.00    +0.000 A 
ATOM     15  C   UNL     1      -3.912  11.063  18.022  0.00  0.00    +0.000 A 
ATOM     16  C   UNL     1      -3.025  11.897  18.712  0.00  0.00    +0.000 A 
BRANCH  15  17
ATOM     17  O   UNL     1      -5.250  11.273  18.199  0.00  0.00    +0.000 OA
ATOM     18  C   UNL     1      -5.936  12.174  17.344  0.00  0.00    +0.000 C 
ENDBRANCH  15  17
BRANCH  16  19
ATOM     19  O   UNL     1      -3.279  12.948  19.541  0.00  0.00    +0.000 OA
ATOM     20  C   UNL     1      -3.614  12.708  20.893  0.00  0.00    +0.000 C 
ENDBRANCH  16  19
ENDBRANCH   6   7
BRANCH   1  22
ATOM     21  N   UNL     1       0.305  12.476  21.283  0.00  0.00    +0.000 N 
ATOM     22  C   UNL     1      -0.091  11.295  21.874  0.00  0.00    +0.000 C 
ATOM     23  O   UNL     1      -0.483  11.205  23.042  0.00  0.00    +0.000 OA
ATOM     24  H   UNL     1       0.393  12.475  20.268  0.00  0.00    +0.000 HD
BRANCH  21  30
ATOM     25  C   UNL     1       1.443  14.596  21.884  0.00  0.00    +0.000 A 
ATOM     26  C   UNL     1       1.404  15.886  22.453  0.00  0.00    +0.000 A 
ATOM     27  C   UNL     1       0.258  16.358  23.085  0.00  0.00    +0.000 A 
ATOM     28  C   UNL     1      -0.858  15.534  23.161  0.00  0.00    +0.000 A 
ATOM     29  C   UNL     1      -0.833  14.254  22.586  0.00  0.00    +0.000 A 
ATOM     30  C   UNL     1       0.302  13.764  21.911  0.00  0.00    +0.000 A 
BRANCH  25  31
ATOM     31  C   UNL     1       2.724  14.245  21.225  0.00  0.00    +0.000 C 
ATOM     32  O   UNL     1       3.762  14.048  21.838  0.00  0.00    +0.000 OA
BRANCH  31  34
ATOM     33  C   UNL     1       2.548  15.290  19.152  0.00  0.00    +0.000 C 
ATOM     34  O   UNL     1       2.541  14.067  19.892  0.00  0.00    +0.000 OA
ENDBRANCH  31  34
ENDBRANCH  25  31
ENDBRANCH  21  30
ENDBRANCH   1  22
TORSDOF 7
ENDMDL
MODEL 6
REMARK VINA RESULT:      -6.8      6.498     10.847
REMARK  Name = 
REMARK  10 active torsions:
REMARK  status: ('A' for Active; 'I' for Inactive)
REMARK    1  A    between atoms: C_1  and  O_2
REMARK    2  A    between atoms: O_2  and  C_3
REMARK    3  A    between atoms: C_3  and  C_5
REMARK    4  A    between atoms: C_10  and  N_11
REMARK    5  A    between atoms: C_12  and  C_14
REMARK    6  A    between atoms: N_19  and  C_20
REMARK    7  A    between atoms: C_28  and  O_29
REMARK    8  A    between atoms: O_29  and  C_30
REMARK    9  A    between atoms: C_31  and  O_32
REMARK   10  A    between atoms: O_32  and  C_33
REMARK                            x       y       z     vdW  Elec       q    Type
REMARK                         _______ _______ _______ _____ _____    ______ ____
ROOT
ATOM      1  C   UNL     1      -0.654  11.554  20.517  0.00  0.00    +0.000 C 
ATOM      2  C   UNL     1      -0.231  10.293  19.739  0.00  0.00    +0.000 C 
ATOM      3  C   UNL     1       0.446   9.394  20.746  0.00  0.00    +0.000 C 
ATOM      4  C   UNL     1      -0.109   9.866  22.065  0.00  0.00    +0.000 C 
ATOM      5  O   UNL     1       0.067   9.306  23.131  0.00  0.00    +0.000 OA
ATOM      6  N   UNL     1      -0.780  11.069  21.901  0.00  0.00    +0.000 N 
ENDROOT
BRANCH   6   7
ATOM      7  C   UNL     1      -1.104  11.873  23.086  0.00  0.00    +0.000 C 
ATOM      8  O   UNL     1      -2.370  11.417  23.558  0.00  0.00    +0.000 OA
ATOM      9  C   UNL     1      -3.339  12.360  23.351  0.00  0.00    +0.000 C 
ATOM     10  O   UNL     1      -4.452  12.323  23.830  0.00  0.00    +0.000 OA
ATOM     11  C   UNL     1      -2.696  13.489  22.685  0.00  0.00    +0.000 A 
ATOM     12  C   UNL     1      -1.348  13.337  22.890  0.00  0.00    +0.000 A 
ATOM     13  C   UNL     1      -0.609  14.491  23.077  0.00  0.00    +0.000 A 
ATOM     14  C   UNL     1      -1.225  15.750  22.813  0.00  0.00    +0.000 A 
ATOM     15  C   UNL     1      -2.531  15.824  22.280  0.00  0.00    +0.000 A 
ATOM     16  C   UNL     1      -3.299  14.656  22.241  0.00  0.00    +0.000 A 
BRANCH  15  17
ATOM     17  O   UNL     1      -3.068  16.957  21.739  0.00  0.00    +0.000 OA
ATOM     18  C   UNL     1      -2.981  18.181  22.453  0.00  0.00    +0.000 C 
ENDBRANCH  15  17
BRANCH  16  19
ATOM     19  O   UNL     1      -4.559  14.454  21.763  0.00  0.00    +0.000 OA
ATOM     20  C   UNL     1      -5.650  15.130  22.357  0.00  0.00    +0.000 C 
ENDBRANCH  16  19
ENDBRANCH   6   7
BRANCH   1  22
ATOM     21  N   UNL     1      -3.007  11.547  19.601  0.00  0.00    +0.000 N 
ATOM     22  C   UNL     1      -1.777  12.169  19.627  0.00  0.00    +0.000 C 
ATOM     23  O   UNL     1      -1.485  13.151  18.936  0.00  0.00    +0.000 OA
ATOM     24  H   UNL     1      -3.210  10.899  20.361  0.00  0.00    +0.000 HD
BRANCH  21  30
ATOM     25  C   UNL     1      -4.241  11.549  17.450  0.00  0.00    +0.000 A 
ATOM     26  C   UNL     1      -5.379  11.899  16.693  0.00  0.00    +0.000 A 
ATOM     27  C   UNL     1      -6.396  12.673  17.242  0.00  0.00    +0.000 A 
ATOM     28  C   UNL     1      -6.275  13.113  18.555  0.00  0.00    +0.000 A 
ATOM     29  C   UNL     1      -5.153  12.758  19.320  0.00  0.00    +0.000 A 
ATOM     30  C   UNL     1      -4.125  11.948  18.800  0.00  0.00    +0.000 A 
BRANCH  25  31
ATOM     31  C   UNL     1      -3.256  10.702  16.736  0.00  0.00    +0.000 C 
ATOM     32  O   UNL     1      -2.758   9.698  17.222  0.00  0.00    +0.000 OA
BRANCH  31  34
ATOM     33  C   UNL     1      -2.995  10.076  14.509  0.00  0.00    +0.000 C 
ATOM     34  O   UNL     1      -3.088  11.137  15.461  0.00  0.00    +0.000 OA
ENDBRANCH  31  34
ENDBRANCH  25  31
ENDBRANCH  21  30
ENDBRANCH   1  22
TORSDOF 7
ENDMDL
MODEL 7
REMARK VINA RESULT:      -6.8      7.455     12.647
REMARK  Name = 
REMARK  10 active torsions:
REMARK  status: ('A' for Active; 'I' for Inactive)
REMARK    1  A    between atoms: C_1  and  O_2
REMARK    2  A    between atoms: O_2  and  C_3
REMARK    3  A    between atoms: C_3  and  C_5
REMARK    4  A    between atoms: C_10  and  N_11
REMARK    5  A    between atoms: C_12  and  C_14
REMARK    6  A    between atoms: N_19  and  C_20
REMARK    7  A    between atoms: C_28  and  O_29
REMARK    8  A    between atoms: O_29  and  C_30
REMARK    9  A    between atoms: C_31  and  O_32
REMARK   10  A    between atoms: O_32  and  C_33
REMARK                            x       y       z     vdW  Elec       q    Type
REMARK                         _______ _______ _______ _____ _____    ______ ____
ROOT
ATOM      1  C   UNL     1      -3.434  14.767  22.205  0.00  0.00    +0.000 C 
ATOM      2  C   UNL     1      -2.020  15.079  22.732  0.00  0.00    +0.000 C 
ATOM      3  C   UNL     1      -2.210  16.038  23.883  0.00  0.00    +0.000 C 
ATOM      4  C   UNL     1      -3.630  15.785  24.319  0.00  0.00    +0.000 C 
ATOM      5  O   UNL     1      -4.141  16.250  25.320  0.00  0.00    +0.000 OA
ATOM      6  N   UNL     1      -4.291  15.012  23.375  0.00  0.00    +0.000 N 
ENDROOT
BRANCH   6   7
ATOM      7  C   UNL     1      -5.756  14.927  23.423  0.00  0.00    +0.000 C 
ATOM      8  O   UNL     1      -6.075  13.779  24.207  0.00  0.00    +0.000 OA
ATOM      9  C   UNL     1      -6.607  12.787  23.431  0.00  0.00    +0.000 C 
ATOM     10  O   UNL     1      -7.149  11.790  23.860  0.00  0.00    +0.000 OA
ATOM     11  C   UNL     1      -6.619  13.283  22.058  0.00  0.00    +0.000 A 
ATOM     12  C   UNL     1      -6.481  14.645  22.143  0.00  0.00    +0.000 A 
ATOM     13  C   UNL     1      -7.175  15.405  21.218  0.00  0.00    +0.000 A 
ATOM     14  C   UNL     1      -7.787  14.746  20.111  0.00  0.00    +0.000 A 
ATOM     15  C   UNL     1      -7.611  13.361  19.901  0.00  0.00    +0.000 A 
ATOM     16  C   UNL     1      -7.030  12.602  20.923  0.00  0.00    +0.000 A 
BRANCH  15  17
ATOM     17  O   UNL     1      -7.915  12.725  18.731  0.00  0.00    +0.000 OA
ATOM     18  C   UNL     1      -7.881  13.451  17.512  0.00  0.00    +0.000 C 
ENDBRANCH  15  17
BRANCH  16  19
ATOM     19  O   UNL     1      -6.734  11.273  20.964  0.00  0.00    +0.000 OA
ATOM     20  C   UNL     1      -7.770  10.319  20.841  0.00  0.00    +0.000 C 
ENDBRANCH  16  19
ENDBRANCH   6   7
BRANCH   1  22
ATOM     21  N   UNL     1      -3.101  13.469  20.065  0.00  0.00    +0.000 N 
ATOM     22  C   UNL     1      -3.246  13.424  21.436  0.00  0.00    +0.000 C 
ATOM     23  O   UNL     1      -3.302  12.378  22.090  0.00  0.00    +0.000 OA
ATOM     24  H   UNL     1      -2.844  14.368  19.659  0.00  0.00    +0.000 HD
BRANCH  21  30
ATOM     25  C   UNL     1      -1.704  11.847  18.813  0.00  0.00    +0.000 A 
ATOM     26  C   UNL     1      -1.592  10.688  18.016  0.00  0.00    +0.000 A 
ATOM     27  C   UNL     1      -2.724  10.016  17.564  0.00  0.00    +0.000 A 
ATOM     28  C   UNL     1      -3.980  10.507  17.901  0.00  0.00    +0.000 A 
ATOM     29  C   UNL     1      -4.100  11.651  18.705  0.00  0.00    +0.000 A 
ATOM     30  C   UNL     1      -2.973  12.331  19.204  0.00  0.00    +0.000 A 
BRANCH  25  31
ATOM     31  C   UNL     1      -0.412  12.437  19.237  0.00  0.00    +0.000 C 
ATOM     32  O   UNL     1      -0.303  13.576  19.664  0.00  0.00    +0.000 OA
BRANCH  31  34
ATOM     33  C   UNL     1       1.799  12.010  18.646  0.00  0.00    +0.000 C 
ATOM     34  O   UNL     1       0.576  11.508  19.187  0.00  0.00    +0.000 OA
ENDBRANCH  31  34
ENDBRANCH  25  31
ENDBRANCH  21  30
ENDBRANCH   1  22
TORSDOF 7
ENDMDL
MODEL 8
REMARK VINA RESULT:      -6.8      5.975     10.038
REMARK  Name = 
REMARK  10 active torsions:
REMARK  status: ('A' for Active; 'I' for Inactive)
REMARK    1  A    between atoms: C_1  and  O_2
REMARK    2  A    between atoms: O_2  and  C_3
REMARK    3  A    between atoms: C_3  and  C_5
REMARK    4  A    between atoms: C_10  and  N_11
REMARK    5  A    between atoms: C_12  and  C_14
REMARK    6  A    between atoms: N_19  and  C_20
REMARK    7  A    between atoms: C_28  and  O_29
REMARK    8  A    between atoms: O_29  and  C_30
REMARK    9  A    between atoms: C_31  and  O_32
REMARK   10  A    between atoms: O_32  and  C_33
REMARK                            x       y       z     vdW  Elec       q    Type
REMARK                         _______ _______ _______ _____ _____    ______ ____
ROOT
ATOM      1  C   UNL     1      -3.921  13.181  21.995  0.00  0.00    +0.000 C 
ATOM      2  C   UNL     1      -5.172  14.080  21.926  0.00  0.00    +0.000 C 
ATOM      3  C   UNL     1      -5.282  14.740  23.279  0.00  0.00    +0.000 C 
ATOM      4  C   UNL     1      -3.876  14.672  23.818  0.00  0.00    +0.000 C 
ATOM      5  O   UNL     1      -3.494  15.227  24.830  0.00  0.00    +0.000 OA
ATOM      6  N   UNL     1      -3.104  13.823  23.037  0.00  0.00    +0.000 N 
ENDROOT
BRANCH   6   7
ATOM      7  C   UNL     1      -1.818  13.346  23.561  0.00  0.00    +0.000 C 
ATOM      8  O   UNL     1      -0.914  14.447  23.494  0.00  0.00    +0.000 OA
ATOM      9  C   UNL     1       0.041  14.240  22.538  0.00  0.00    +0.000 C 
ATOM     10  O   UNL     1       1.043  14.911  22.405  0.00  0.00    +0.000 OA
ATOM     11  C   UNL     1      -0.253  12.953  21.916  0.00  0.00    +0.000 A 
ATOM     12  C   UNL     1      -1.093  12.295  22.778  0.00  0.00    +0.000 A 
ATOM     13  C   UNL     1      -0.937  10.924  22.882  0.00  0.00    +0.000 A 
ATOM     14  C   UNL     1      -0.102  10.256  21.939  0.00  0.00    +0.000 A 
ATOM     15  C   UNL     1       0.481  10.955  20.859  0.00  0.00    +0.000 A 
ATOM     16  C   UNL     1       0.424  12.354  20.865  0.00  0.00    +0.000 A 
BRANCH  15  17
ATOM     17  O   UNL     1       1.042  10.346  19.773  0.00  0.00    +0.000 OA
ATOM     18  C   UNL     1       1.234   8.940  19.782  0.00  0.00    +0.000 C 
ENDBRANCH  15  17
BRANCH  16  19
ATOM     19  O   UNL     1       0.881  13.250  19.947  0.00  0.00    +0.000 OA
ATOM     20  C   UNL     1       0.130  13.499  18.776  0.00  0.00    +0.000 C 
ENDBRANCH  16  19
ENDBRANCH   6   7
BRANCH   1  22
ATOM     21  N   UNL     1      -3.905  11.783  19.894  0.00  0.00    +0.000 N 
ATOM     22  C   UNL     1      -3.545  12.969  20.497  0.00  0.00    +0.000 C 
ATOM     23  O   UNL     1      -2.882  13.852  19.943  0.00  0.00    +0.000 OA
ATOM     24  H   UNL     1      -4.629  11.234  20.355  0.00  0.00    +0.000 HD
BRANCH  21  30
ATOM     25  C   UNL     1      -4.539  11.543  17.509  0.00  0.00    +0.000 A 
ATOM     26  C   UNL     1      -4.197  11.226  16.177  0.00  0.00    +0.000 A 
ATOM     27  C   UNL     1      -2.934  10.736  15.859  0.00  0.00    +0.000 A 
ATOM     28  C   UNL     1      -2.006  10.549  16.877  0.00  0.00    +0.000 A 
ATOM     29  C   UNL     1      -2.334  10.875  18.202  0.00  0.00    +0.000 A 
ATOM     30  C   UNL     1      -3.592  11.405  18.547  0.00  0.00    +0.000 A 
BRANCH  25  31
ATOM     31  C   UNL     1      -5.911  12.077  17.687  0.00  0.00    +0.000 C 
ATOM     32  O   UNL     1      -6.708  11.624  18.494  0.00  0.00    +0.000 OA
BRANCH  31  34
ATOM     33  C   UNL     1      -7.316  13.870  17.203  0.00  0.00    +0.000 C 
ATOM     34  O   UNL     1      -6.094  13.184  16.922  0.00  0.00    +0.000 OA
ENDBRANCH  31  34
ENDBRANCH  25  31
ENDBRANCH  21  30
ENDBRANCH   1  22
TORSDOF 7
ENDMDL
MODEL 9
REMARK VINA RESULT:      -6.8      6.601      9.677
REMARK  Name = 
REMARK  10 active torsions:
REMARK  status: ('A' for Active; 'I' for Inactive)
REMARK    1  A    between atoms: C_1  and  O_2
REMARK    2  A    between atoms: O_2  and  C_3
REMARK    3  A    between atoms: C_3  and  C_5
REMARK    4  A    between atoms: C_10  and  N_11
REMARK    5  A    between atoms: C_12  and  C_14
REMARK    6  A    between atoms: N_19  and  C_20
REMARK    7  A    between atoms: C_28  and  O_29
REMARK    8  A    between atoms: O_29  and  C_30
REMARK    9  A    between atoms: C_31  and  O_32
REMARK   10  A    between atoms: O_32  and  C_33
REMARK                            x       y       z     vdW  Elec       q    Type
REMARK                         _______ _______ _______ _____ _____    ______ ____
ROOT
ATOM      1  C   UNL     1      -1.131  12.379  19.203  0.00  0.00    +0.000 C 
ATOM      2  C   UNL     1      -2.077  11.378  18.512  0.00  0.00    +0.000 C 
ATOM      3  C   UNL     1      -1.185  10.416  17.764  0.00  0.00    +0.000 C 
ATOM      4  C   UNL     1       0.133  10.527  18.484  0.00  0.00    +0.000 C 
ATOM      5  O   UNL     1       1.092   9.805  18.291  0.00  0.00    +0.000 OA
ATOM      6  N   UNL     1       0.122  11.619  19.341  0.00  0.00    +0.000 N 
ENDROOT
BRANCH   6   7
ATOM      7  C   UNL     1       1.393  12.114  19.882  0.00  0.00    +0.000 C 
ATOM      8  O   UNL     1       1.129  12.553  21.214  0.00  0.00    +0.000 OA
ATOM      9  C   UNL     1       1.209  13.915  21.306  0.00  0.00    +0.000 C 
ATOM     10  O   UNL     1       1.230  14.536  22.348  0.00  0.00    +0.000 OA
ATOM     11  C   UNL     1       1.514  14.414  19.969  0.00  0.00    +0.000 A 
ATOM     12  C   UNL     1       1.987  13.339  19.259  0.00  0.00    +0.000 A 
ATOM     13  C   UNL     1       2.995  13.587  18.344  0.00  0.00    +0.000 A 
ATOM     14  C   UNL     1       3.312  14.940  18.023  0.00  0.00    +0.000 A 
ATOM     15  C   UNL     1       2.554  16.010  18.548  0.00  0.00    +0.000 A 
ATOM     16  C   UNL     1       1.643  15.737  19.575  0.00  0.00    +0.000 A 
BRANCH  15  17
ATOM     17  O   UNL     1       2.609  17.287  18.070  0.00  0.00    +0.000 OA
ATOM     18  C   UNL     1       2.108  17.570  16.772  0.00  0.00    +0.000 C 
ENDBRANCH  15  17
BRANCH  16  19
ATOM     19  O   UNL     1       0.788  16.572  20.229  0.00  0.00    +0.000 OA
ATOM     20  C   UNL     1      -0.381  17.028  19.578  0.00  0.00    +0.000 C 
ENDBRANCH  16  19
ENDBRANCH   6   7
BRANCH   1  22
ATOM     21  N   UNL     1      -2.773  12.111  21.101  0.00  0.00    +0.000 N 
ATOM     22  C   UNL     1      -2.006  12.974  20.348  0.00  0.00    +0.000 C 
ATOM     23  O   UNL     1      -2.016  14.202  20.481  0.00  0.00    +0.000 OA
ATOM     24  H   UNL     1      -2.524  11.123  21.064  0.00  0.00    +0.000 HD
BRANCH  21  30
ATOM     25  C   UNL     1      -4.974  12.958  21.869  0.00  0.00    +0.000 A 
ATOM     26  C   UNL     1      -5.867  13.271  22.915  0.00  0.00    +0.000 A 
ATOM     27  C   UNL     1      -5.476  13.168  24.246  0.00  0.00    +0.000 A 
ATOM     28  C   UNL     1      -4.181  12.758  24.540  0.00  0.00    +0.000 A 
ATOM     29  C   UNL     1      -3.291  12.430  23.505  0.00  0.00    +0.000 A 
ATOM     30  C   UNL     1      -3.670  12.494  22.151  0.00  0.00    +0.000 A 
BRANCH  25  31
ATOM     31  C   UNL     1      -5.541  13.093  20.506  0.00  0.00    +0.000 C 
ATOM     32  O   UNL     1      -5.769  14.171  19.978  0.00  0.00    +0.000 OA
BRANCH  31  34
ATOM     33  C   UNL     1      -7.005  11.425  19.800  0.00  0.00    +0.000 C 
ATOM     34  O   UNL     1      -5.654  11.877  19.913  0.00  0.00    +0.000 OA
ENDBRANCH  31  34
ENDBRANCH  25  31
ENDBRANCH  21  30
ENDBRANCH   1  22
TORSDOF 7
ENDMDL
