MODEL 1
REMARK VINA RESULT:      -8.3      0.000      0.000
REMARK  Name = 
REMARK  5 active torsions:
REMARK  status: ('A' for Active; 'I' for Inactive)
REMARK    1  A    between atoms: C_1  and  C_2
REMARK    2  A    between atoms: C_4  and  C_5
REMARK    3  A    between atoms: C_13  and  C_14
REMARK    4  A    between atoms: C_14  and  C_15
REMARK    5  A    between atoms: C_17  and  C_18
REMARK                            x       y       z     vdW  Elec       q    Type
REMARK                         _______ _______ _______ _____ _____    ______ ____
ROOT
ATOM      1  C   UNL     1       6.197   5.360  17.378  0.00  0.00    +0.000 C 
ATOM      2  C   UNL     1       6.963   4.472  16.387  0.00  0.00    +0.000 C 
ATOM      3  C   UNL     1       5.473   4.648  18.523  0.00  0.00    +0.000 C 
ATOM      4  C   UNL     1       4.065   4.736  18.053  0.00  0.00    +0.000 C 
ATOM      5  N   UNL     1       3.887   5.410  16.965  0.00  0.00    +0.000 NA
ATOM      6  O   UNL     1       5.136   5.976  16.612  0.00  0.00    +0.000 OA
ENDROOT
BRANCH   4   7
ATOM      7  C   UNL     1       2.937   4.221  18.854  0.00  0.00    +0.000 A 
ATOM      8  C   UNL     1       2.676   2.842  18.853  0.00  0.00    +0.000 A 
ATOM      9 CL   UNL     1       3.596   1.706  17.929  0.00  0.00    +0.000 Cl
ATOM     10  C   UNL     1       1.662   2.306  19.671  0.00  0.00    +0.000 A 
ATOM     11  C   UNL     1       0.921   3.139  20.516  0.00  0.00    +0.000 A 
ATOM     12  C   UNL     1       1.197   4.500  20.537  0.00  0.00    +0.000 A 
ATOM     13  C   UNL     1       2.196   5.047  19.712  0.00  0.00    +0.000 A 
ATOM     14 CL   UNL     1       2.444   6.753  19.797  0.00  0.00    +0.000 Cl
ENDBRANCH   4   7
BRANCH   1  20
ATOM     15  C   UNL     1       8.374   5.318  19.857  0.00  0.00    +0.000 C 
ATOM     16  C   UNL     1       8.049   6.443  18.941  0.00  0.00    +0.000 A 
ATOM     17  N   UNL     1       8.679   7.666  19.161  0.00  0.00    +0.000 NA
ATOM     18  C   UNL     1       8.265   8.580  18.307  0.00  0.00    +0.000 A 
ATOM     19  S   UNL     1       7.075   8.023  17.206  0.00  0.00    +0.000 S 
ATOM     20  C   UNL     1       7.135   6.437  17.898  0.00  0.00    +0.000 A 
BRANCH  18  21
ATOM     21  C   UNL     1       8.695   9.993  18.316  0.00  0.00    +0.000 A 
ATOM     22  C   UNL     1       8.073  10.993  17.544  0.00  0.00    +0.000 A 
ATOM     23  C   UNL     1       8.508  12.323  17.608  0.00  0.00    +0.000 A 
ATOM     24  C   UNL     1       9.571  12.666  18.439  0.00  0.00    +0.000 A 
ATOM     25 CL   UNL     1      10.102  14.301  18.520  0.00  0.00    +0.000 Cl
ATOM     26  C   UNL     1      10.205  11.694  19.206  0.00  0.00    +0.000 A 
ATOM     27  C   UNL     1       9.770  10.367  19.140  0.00  0.00    +0.000 A 
ENDBRANCH  18  21
ENDBRANCH   1  20
TORSDOF 3
ENDMDL
MODEL 2
REMARK VINA RESULT:      -8.2      0.127      1.766
REMARK  Name = 
REMARK  5 active torsions:
REMARK  status: ('A' for Active; 'I' for Inactive)
REMARK    1  A    between atoms: C_1  and  C_2
REMARK    2  A    between atoms: C_4  and  C_5
REMARK    3  A    between atoms: C_13  and  C_14
REMARK    4  A    between atoms: C_14  and  C_15
REMARK    5  A    between atoms: C_17  and  C_18
REMARK                            x       y       z     vdW  Elec       q    Type
REMARK                         _______ _______ _______ _____ _____    ______ ____
ROOT
ATOM      1  C   UNL     1       6.177   5.379  17.376  0.00  0.00    +0.000 C 
ATOM      2  C   UNL     1       6.908   4.546  16.313  0.00  0.00    +0.000 C 
ATOM      3  C   UNL     1       5.511   4.606  18.517  0.00  0.00    +0.000 C 
ATOM      4  C   UNL     1       4.083   4.698  18.112  0.00  0.00    +0.000 C 
ATOM      5  N   UNL     1       3.850   5.420  17.065  0.00  0.00    +0.000 NA
ATOM      6  O   UNL     1       5.077   6.016  16.686  0.00  0.00    +0.000 OA
ENDROOT
BRANCH   4   7
ATOM      7  C   UNL     1       2.995   4.134  18.936  0.00  0.00    +0.000 A 
ATOM      8  C   UNL     1       2.211   5.001  19.711  0.00  0.00    +0.000 A 
ATOM      9 CL   UNL     1       2.473   6.709  19.778  0.00  0.00    +0.000 Cl
ATOM     10  C   UNL     1       1.112   4.509  20.444  0.00  0.00    +0.000 A 
ATOM     11  C   UNL     1       0.773   3.153  20.383  0.00  0.00    +0.000 A 
ATOM     12  C   UNL     1       1.532   2.299  19.595  0.00  0.00    +0.000 A 
ATOM     13  C   UNL     1       2.641   2.778  18.874  0.00  0.00    +0.000 A 
ATOM     14 CL   UNL     1       3.533   1.631  17.942  0.00  0.00    +0.000 Cl
ENDBRANCH   4   7
BRANCH   1  20
ATOM     15  C   UNL     1       8.418   5.265  19.794  0.00  0.00    +0.000 C 
ATOM     16  C   UNL     1       8.067   6.418  18.923  0.00  0.00    +0.000 A 
ATOM     17  N   UNL     1       8.699   7.635  19.164  0.00  0.00    +0.000 NA
ATOM     18  C   UNL     1       8.261   8.574  18.351  0.00  0.00    +0.000 A 
ATOM     19  S   UNL     1       7.044   8.048  17.265  0.00  0.00    +0.000 S 
ATOM     20  C   UNL     1       7.126   6.441  17.904  0.00  0.00    +0.000 A 
BRANCH  18  21
ATOM     21  C   UNL     1       8.689   9.987  18.393  0.00  0.00    +0.000 A 
ATOM     22  C   UNL     1       8.194  10.968  17.513  0.00  0.00    +0.000 A 
ATOM     23  C   UNL     1       8.617  12.300  17.612  0.00  0.00    +0.000 A 
ATOM     24  C   UNL     1       9.542  12.663  18.587  0.00  0.00    +0.000 A 
ATOM     25 CL   UNL     1      10.059  14.300  18.710  0.00  0.00    +0.000 Cl
ATOM     26  C   UNL     1      10.051  11.710  19.463  0.00  0.00    +0.000 A 
ATOM     27  C   UNL     1       9.628  10.381  19.361  0.00  0.00    +0.000 A 
ENDBRANCH  18  21
ENDBRANCH   1  20
TORSDOF 3
ENDMDL
MODEL 3
REMARK VINA RESULT:      -7.9      0.432      1.010
REMARK  Name = 
REMARK  5 active torsions:
REMARK  status: ('A' for Active; 'I' for Inactive)
REMARK    1  A    between atoms: C_1  and  C_2
REMARK    2  A    between atoms: C_4  and  C_5
REMARK    3  A    between atoms: C_13  and  C_14
REMARK    4  A    between atoms: C_14  and  C_15
REMARK    5  A    between atoms: C_17  and  C_18
REMARK                            x       y       z     vdW  Elec       q    Type
REMARK                         _______ _______ _______ _____ _____    ______ ____
ROOT
ATOM      1  C   UNL     1       5.895   5.760  17.102  0.00  0.00    +0.000 C 
ATOM      2  C   UNL     1       6.480   5.098  15.846  0.00  0.00    +0.000 C 
ATOM      3  C   UNL     1       5.293   4.827  18.155  0.00  0.00    +0.000 C 
ATOM      4  C   UNL     1       3.841   5.043  17.914  0.00  0.00    +0.000 C 
ATOM      5  N   UNL     1       3.555   5.945  17.033  0.00  0.00    +0.000 NA
ATOM      6  O   UNL     1       4.774   6.550  16.641  0.00  0.00    +0.000 OA
ENDROOT
BRANCH   4   7
ATOM      7  C   UNL     1       2.803   4.386  18.733  0.00  0.00    +0.000 A 
ATOM      8  C   UNL     1       2.613   3.002  18.605  0.00  0.00    +0.000 A 
ATOM      9 CL   UNL     1       3.516   2.020  17.505  0.00  0.00    +0.000 Cl
ATOM     10  C   UNL     1       1.691   2.328  19.431  0.00  0.00    +0.000 A 
ATOM     11  C   UNL     1       0.975   3.028  20.409  0.00  0.00    +0.000 A 
ATOM     12  C   UNL     1       1.183   4.393  20.554  0.00  0.00    +0.000 A 
ATOM     13  C   UNL     1       2.088   5.077  19.722  0.00  0.00    +0.000 A 
ATOM     14 CL   UNL     1       2.257   6.777  19.970  0.00  0.00    +0.000 Cl
ENDBRANCH   4   7
BRANCH   1  20
ATOM     15  C   UNL     1       8.193   5.195  19.399  0.00  0.00    +0.000 C 
ATOM     16  C   UNL     1       7.912   6.463  18.677  0.00  0.00    +0.000 A 
ATOM     17  N   UNL     1       8.650   7.591  19.027  0.00  0.00    +0.000 NA
ATOM     18  C   UNL     1       8.265   8.649  18.343  0.00  0.00    +0.000 A 
ATOM     19  S   UNL     1       6.975   8.349  17.255  0.00  0.00    +0.000 S 
ATOM     20  C   UNL     1       6.944   6.677  17.707  0.00  0.00    +0.000 A 
BRANCH  18  21
ATOM     21  C   UNL     1       8.809  10.010  18.525  0.00  0.00    +0.000 A 
ATOM     22  C   UNL     1       9.666  10.362  19.586  0.00  0.00    +0.000 A 
ATOM     23  C   UNL     1      10.171  11.663  19.699  0.00  0.00    +0.000 A 
ATOM     24  C   UNL     1       9.822  12.627  18.756  0.00  0.00    +0.000 A 
ATOM     25 CL   UNL     1      10.447  14.225  18.894  0.00  0.00    +0.000 Cl
ATOM     26  C   UNL     1       8.972  12.305  17.703  0.00  0.00    +0.000 A 
ATOM     27  C   UNL     1       8.468  11.006  17.594  0.00  0.00    +0.000 A 
ENDBRANCH  18  21
ENDBRANCH   1  20
TORSDOF 3
ENDMDL
MODEL 4
REMARK VINA RESULT:      -7.5      6.893      9.347
REMARK  Name = 
REMARK  5 active torsions:
REMARK  status: ('A' for Active; 'I' for Inactive)
REMARK    1  A    between atoms: C_1  and  C_2
REMARK    2  A    between atoms: C_4  and  C_5
REMARK    3  A    between atoms: C_13  and  C_14
REMARK    4  A    between atoms: C_14  and  C_15
REMARK    5  A    between atoms: C_17  and  C_18
REMARK                            x       y       z     vdW  Elec       q    Type
REMARK                         _______ _______ _______ _____ _____    ______ ____
ROOT
ATOM      1  C   UNL     1       0.772  11.513  19.824  0.00  0.00    +0.000 C 
ATOM      2  C   UNL     1       1.265  12.283  18.590  0.00  0.00    +0.000 C 
ATOM      3  C   UNL     1      -0.723  11.605  20.140  0.00  0.00    +0.000 C 
ATOM      4  C   UNL     1      -0.701  12.543  21.293  0.00  0.00    +0.000 C 
ATOM      5  N   UNL     1       0.475  12.889  21.703  0.00  0.00    +0.000 NA
ATOM      6  O   UNL     1       1.417  12.137  20.958  0.00  0.00    +0.000 OA
ENDROOT
BRANCH   4   7
ATOM      7  C   UNL     1      -1.930  12.928  22.016  0.00  0.00    +0.000 A 
ATOM      8  C   UNL     1      -2.414  12.086  23.028  0.00  0.00    +0.000 A 
ATOM      9 CL   UNL     1      -1.659  10.590  23.457  0.00  0.00    +0.000 Cl
ATOM     10  C   UNL     1      -3.535  12.461  23.795  0.00  0.00    +0.000 A 
ATOM     11  C   UNL     1      -4.161  13.693  23.575  0.00  0.00    +0.000 A 
ATOM     12  C   UNL     1      -3.666  14.539  22.592  0.00  0.00    +0.000 A 
ATOM     13  C   UNL     1      -2.558  14.165  21.809  0.00  0.00    +0.000 A 
ATOM     14 CL   UNL     1      -2.035  15.278  20.598  0.00  0.00    +0.000 Cl
ENDBRANCH   4   7
BRANCH   1  20
ATOM     15  C   UNL     1       0.727   9.060  22.028  0.00  0.00    +0.000 C 
ATOM     16  C   UNL     1       1.228   9.025  20.629  0.00  0.00    +0.000 A 
ATOM     17  N   UNL     1       1.811   7.846  20.174  0.00  0.00    +0.000 NA
ATOM     18  C   UNL     1       2.249   7.972  18.937  0.00  0.00    +0.000 A 
ATOM     19  S   UNL     1       2.003   9.528  18.263  0.00  0.00    +0.000 S 
ATOM     20  C   UNL     1       1.229  10.068  19.715  0.00  0.00    +0.000 A 
BRANCH  18  21
ATOM     21  C   UNL     1       2.970   6.922  18.191  0.00  0.00    +0.000 A 
ATOM     22  C   UNL     1       4.096   7.182  17.387  0.00  0.00    +0.000 A 
ATOM     23  C   UNL     1       4.757   6.144  16.718  0.00  0.00    +0.000 A 
ATOM     24  C   UNL     1       4.296   4.836  16.842  0.00  0.00    +0.000 A 
ATOM     25 CL   UNL     1       5.110   3.560  16.023  0.00  0.00    +0.000 Cl
ATOM     26  C   UNL     1       3.181   4.554  17.625  0.00  0.00    +0.000 A 
ATOM     27  C   UNL     1       2.523   5.593  18.291  0.00  0.00    +0.000 A 
ENDBRANCH  18  21
ENDBRANCH   1  20
TORSDOF 3
ENDMDL
MODEL 5
REMARK VINA RESULT:      -7.5      6.778      9.332
REMARK  Name = 
REMARK  5 active torsions:
REMARK  status: ('A' for Active; 'I' for Inactive)
REMARK    1  A    between atoms: C_1  and  C_2
REMARK    2  A    between atoms: C_4  and  C_5
REMARK    3  A    between atoms: C_13  and  C_14
REMARK    4  A    between atoms: C_14  and  C_15
REMARK    5  A    between atoms: C_17  and  C_18
REMARK                            x       y       z     vdW  Elec       q    Type
REMARK                         _______ _______ _______ _____ _____    ______ ____
ROOT
ATOM      1  C   UNL     1       0.786  11.415  19.692  0.00  0.00    +0.000 C 
ATOM      2  C   UNL     1       1.169  12.165  18.408  0.00  0.00    +0.000 C 
ATOM      3  C   UNL     1      -0.682  11.486  20.118  0.00  0.00    +0.000 C 
ATOM      4  C   UNL     1      -0.593  12.452  21.245  0.00  0.00    +0.000 C 
ATOM      5  N   UNL     1       0.603  12.831  21.556  0.00  0.00    +0.000 NA
ATOM      6  O   UNL     1       1.501  12.079  20.760  0.00  0.00    +0.000 OA
ENDROOT
BRANCH   4   7
ATOM      7  C   UNL     1      -1.772  12.830  22.049  0.00  0.00    +0.000 A 
ATOM      8  C   UNL     1      -2.456  14.015  21.736  0.00  0.00    +0.000 A 
ATOM      9 CL   UNL     1      -1.968  15.082  20.466  0.00  0.00    +0.000 Cl
ATOM     10  C   UNL     1      -3.634  14.364  22.427  0.00  0.00    +0.000 A 
ATOM     11  C   UNL     1      -4.152  13.518  23.414  0.00  0.00    +0.000 A 
ATOM     12  C   UNL     1      -3.490  12.333  23.706  0.00  0.00    +0.000 A 
ATOM     13  C   UNL     1      -2.304  11.984  23.034  0.00  0.00    +0.000 A 
ATOM     14 CL   UNL     1      -1.547  10.501  23.487  0.00  0.00    +0.000 Cl
ENDBRANCH   4   7
BRANCH   1  20
ATOM     15  C   UNL     1       0.737   8.947  21.880  0.00  0.00    +0.000 C 
ATOM     16  C   UNL     1       1.262   8.929  20.490  0.00  0.00    +0.000 A 
ATOM     17  N   UNL     1       1.869   7.760  20.036  0.00  0.00    +0.000 NA
ATOM     18  C   UNL     1       2.325   7.900  18.808  0.00  0.00    +0.000 A 
ATOM     19  S   UNL     1       2.070   9.458  18.140  0.00  0.00    +0.000 S 
ATOM     20  C   UNL     1       1.264   9.977  19.582  0.00  0.00    +0.000 A 
BRANCH  18  21
ATOM     21  C   UNL     1       3.073   6.864  18.068  0.00  0.00    +0.000 A 
ATOM     22  C   UNL     1       4.194   7.149  17.265  0.00  0.00    +0.000 A 
ATOM     23  C   UNL     1       4.881   6.124  16.602  0.00  0.00    +0.000 A 
ATOM     24  C   UNL     1       4.451   4.806  16.730  0.00  0.00    +0.000 A 
ATOM     25 CL   UNL     1       5.297   3.546  15.917  0.00  0.00    +0.000 Cl
ATOM     26  C   UNL     1       3.341   4.501  17.511  0.00  0.00    +0.000 A 
ATOM     27  C   UNL     1       2.657   5.526  18.171  0.00  0.00    +0.000 A 
ENDBRANCH  18  21
ENDBRANCH   1  20
TORSDOF 3
ENDMDL
MODEL 6
REMARK VINA RESULT:      -7.5      1.197      1.250
REMARK  Name = 
REMARK  5 active torsions:
REMARK  status: ('A' for Active; 'I' for Inactive)
REMARK    1  A    between atoms: C_1  and  C_2
REMARK    2  A    between atoms: C_4  and  C_5
REMARK    3  A    between atoms: C_13  and  C_14
REMARK    4  A    between atoms: C_14  and  C_15
REMARK    5  A    between atoms: C_17  and  C_18
REMARK                            x       y       z     vdW  Elec       q    Type
REMARK                         _______ _______ _______ _____ _____    ______ ____
ROOT
ATOM      1  C   UNL     1       5.331   6.464  16.906  0.00  0.00    +0.000 C 
ATOM      2  C   UNL     1       5.591   6.182  15.419  0.00  0.00    +0.000 C 
ATOM      3  C   UNL     1       4.829   5.290  17.751  0.00  0.00    +0.000 C 
ATOM      4  C   UNL     1       3.394   5.652  17.895  0.00  0.00    +0.000 C 
ATOM      5  N   UNL     1       3.058   6.794  17.391  0.00  0.00    +0.000 NA
ATOM      6  O   UNL     1       4.245   7.419  16.940  0.00  0.00    +0.000 OA
ENDROOT
BRANCH   4   7
ATOM      7  C   UNL     1       2.456   4.837  18.693  0.00  0.00    +0.000 A 
ATOM      8  C   UNL     1       2.178   3.525  18.282  0.00  0.00    +0.000 A 
ATOM      9 CL   UNL     1       2.858   2.814  16.860  0.00  0.00    +0.000 Cl
ATOM     10  C   UNL     1       1.354   2.690  19.064  0.00  0.00    +0.000 A 
ATOM     11  C   UNL     1       0.827   3.152  20.275  0.00  0.00    +0.000 A 
ATOM     12  C   UNL     1       1.123   4.442  20.695  0.00  0.00    +0.000 A 
ATOM     13  C   UNL     1       1.930   5.288  19.913  0.00  0.00    +0.000 A 
ATOM     14 CL   UNL     1       2.219   6.880  20.513  0.00  0.00    +0.000 Cl
ENDBRANCH   4   7
BRANCH   1  20
ATOM     15  C   UNL     1       7.798   5.130  18.643  0.00  0.00    +0.000 C 
ATOM     16  C   UNL     1       7.618   6.553  18.251  0.00  0.00    +0.000 A 
ATOM     17  N   UNL     1       8.555   7.478  18.703  0.00  0.00    +0.000 NA
ATOM     18  C   UNL     1       8.247   8.701  18.319  0.00  0.00    +0.000 A 
ATOM     19  S   UNL     1       6.797   8.806  17.413  0.00  0.00    +0.000 S 
ATOM     20  C   UNL     1       6.576   7.091  17.511  0.00  0.00    +0.000 A 
BRANCH  18  21
ATOM     21  C   UNL     1       9.007   9.912  18.688  0.00  0.00    +0.000 A 
ATOM     22  C   UNL     1       9.601  10.767  17.740  0.00  0.00    +0.000 A 
ATOM     23  C   UNL     1      10.292  11.917  18.144  0.00  0.00    +0.000 A 
ATOM     24  C   UNL     1      10.401  12.220  19.499  0.00  0.00    +0.000 A 
ATOM     25 CL   UNL     1      11.247  13.634  19.994  0.00  0.00    +0.000 Cl
ATOM     26  C   UNL     1       9.829  11.387  20.454  0.00  0.00    +0.000 A 
ATOM     27  C   UNL     1       9.140  10.240  20.048  0.00  0.00    +0.000 A 
ENDBRANCH  18  21
ENDBRANCH   1  20
TORSDOF 3
ENDMDL
MODEL 7
REMARK VINA RESULT:      -7.5      1.131      2.183
REMARK  Name = 
REMARK  5 active torsions:
REMARK  status: ('A' for Active; 'I' for Inactive)
REMARK    1  A    between atoms: C_1  and  C_2
REMARK    2  A    between atoms: C_4  and  C_5
REMARK    3  A    between atoms: C_13  and  C_14
REMARK    4  A    between atoms: C_14  and  C_15
REMARK    5  A    between atoms: C_17  and  C_18
REMARK                            x       y       z     vdW  Elec       q    Type
REMARK                         _______ _______ _______ _____ _____    ______ ____
ROOT
ATOM      1  C   UNL     1       5.374   6.386  16.961  0.00  0.00    +0.000 C 
ATOM      2  C   UNL     1       5.625   6.149  15.465  0.00  0.00    +0.000 C 
ATOM      3  C   UNL     1       4.919   5.177  17.782  0.00  0.00    +0.000 C 
ATOM      4  C   UNL     1       3.475   5.490  17.952  0.00  0.00    +0.000 C 
ATOM      5  N   UNL     1       3.098   6.632  17.479  0.00  0.00    +0.000 NA
ATOM      6  O   UNL     1       4.260   7.305  17.030  0.00  0.00    +0.000 OA
ENDROOT
BRANCH   4   7
ATOM      7  C   UNL     1       2.573   4.627  18.739  0.00  0.00    +0.000 A 
ATOM      8  C   UNL     1       1.982   5.145  19.902  0.00  0.00    +0.000 A 
ATOM      9 CL   UNL     1       2.284   6.745  20.485  0.00  0.00    +0.000 Cl
ATOM     10  C   UNL     1       1.051   4.380  20.633  0.00  0.00    +0.000 A 
ATOM     11  C   UNL     1       0.682   3.105  20.190  0.00  0.00    +0.000 A 
ATOM     12  C   UNL     1       1.246   2.603  19.025  0.00  0.00    +0.000 A 
ATOM     13  C   UNL     1       2.189   3.352  18.299  0.00  0.00    +0.000 A 
ATOM     14 CL   UNL     1       2.847   2.628  16.876  0.00  0.00    +0.000 Cl
ENDBRANCH   4   7
BRANCH   1  20
ATOM     15  C   UNL     1       7.842   5.109  18.739  0.00  0.00    +0.000 C 
ATOM     16  C   UNL     1       7.648   6.524  18.324  0.00  0.00    +0.000 A 
ATOM     17  N   UNL     1       8.570   7.467  18.770  0.00  0.00    +0.000 NA
ATOM     18  C   UNL     1       8.250   8.680  18.365  0.00  0.00    +0.000 A 
ATOM     19  S   UNL     1       6.807   8.754  17.445  0.00  0.00    +0.000 S 
ATOM     20  C   UNL     1       6.606   7.038  17.567  0.00  0.00    +0.000 A 
BRANCH  18  21
ATOM     21  C   UNL     1       8.992   9.906  18.722  0.00  0.00    +0.000 A 
ATOM     22  C   UNL     1       9.227  10.305  20.052  0.00  0.00    +0.000 A 
ATOM     23  C   UNL     1       9.957  11.467  20.334  0.00  0.00    +0.000 A 
ATOM     24  C   UNL     1      10.454  12.243  19.292  0.00  0.00    +0.000 A 
ATOM     25 CL   UNL     1      11.354  13.669  19.639  0.00  0.00    +0.000 Cl
ATOM     26  C   UNL     1      10.229  11.874  17.970  0.00  0.00    +0.000 A 
ATOM     27  C   UNL     1       9.500  10.714  17.690  0.00  0.00    +0.000 A 
ENDBRANCH  18  21
ENDBRANCH   1  20
TORSDOF 3
ENDMDL
MODEL 8
REMARK VINA RESULT:      -7.3      6.154      9.627
REMARK  Name = 
REMARK  5 active torsions:
REMARK  status: ('A' for Active; 'I' for Inactive)
REMARK    1  A    between atoms: C_1  and  C_2
REMARK    2  A    between atoms: C_4  and  C_5
REMARK    3  A    between atoms: C_13  and  C_14
REMARK    4  A    between atoms: C_14  and  C_15
REMARK    5  A    between atoms: C_17  and  C_18
REMARK                            x       y       z     vdW  Elec       q    Type
REMARK                         _______ _______ _______ _____ _____    ______ ____
ROOT
ATOM      1  C   UNL     1      -0.055  11.185  19.793  0.00  0.00    +0.000 C 
ATOM      2  C   UNL     1      -1.298  11.004  20.676  0.00  0.00    +0.000 C 
ATOM      3  C   UNL     1       0.871  12.354  20.138  0.00  0.00    +0.000 C 
ATOM      4  C   UNL     1       0.517  13.311  19.056  0.00  0.00    +0.000 C 
ATOM      5  N   UNL     1      -0.319  12.866  18.176  0.00  0.00    +0.000 NA
ATOM      6  O   UNL     1      -0.556  11.502  18.473  0.00  0.00    +0.000 OA
ENDROOT
BRANCH   4   7
ATOM      7  C   UNL     1       1.191  14.616  18.912  0.00  0.00    +0.000 A 
ATOM      8  C   UNL     1       2.489  14.655  18.380  0.00  0.00    +0.000 A 
ATOM      9 CL   UNL     1       3.362  13.239  17.910  0.00  0.00    +0.000 Cl
ATOM     10  C   UNL     1       3.130  15.889  18.150  0.00  0.00    +0.000 A 
ATOM     11  C   UNL     1       2.468  17.091  18.422  0.00  0.00    +0.000 A 
ATOM     12  C   UNL     1       1.174  17.053  18.922  0.00  0.00    +0.000 A 
ATOM     13  C   UNL     1       0.532  15.827  19.172  0.00  0.00    +0.000 A 
ATOM     14 CL   UNL     1      -1.068  15.889  19.815  0.00  0.00    +0.000 Cl
ENDBRANCH   4   7
BRANCH   1  20
ATOM     15  C   UNL     1       0.804   9.090  22.192  0.00  0.00    +0.000 C 
ATOM     16  C   UNL     1       1.084   8.981  20.736  0.00  0.00    +0.000 A 
ATOM     17  N   UNL     1       1.852   7.905  20.299  0.00  0.00    +0.000 NA
ATOM     18  C   UNL     1       2.060   7.959  18.998  0.00  0.00    +0.000 A 
ATOM     19  S   UNL     1       1.360   9.324  18.234  0.00  0.00    +0.000 S 
ATOM     20  C   UNL     1       0.706   9.870  19.742  0.00  0.00    +0.000 A 
BRANCH  18  21
ATOM     21  C   UNL     1       2.887   7.000  18.240  0.00  0.00    +0.000 A 
ATOM     22  C   UNL     1       3.967   7.389  17.425  0.00  0.00    +0.000 A 
ATOM     23  C   UNL     1       4.734   6.435  16.744  0.00  0.00    +0.000 A 
ATOM     24  C   UNL     1       4.425   5.082  16.867  0.00  0.00    +0.000 A 
ATOM     25 CL   UNL     1       5.369   3.910  16.033  0.00  0.00    +0.000 Cl
ATOM     26  C   UNL     1       3.358   4.674  17.660  0.00  0.00    +0.000 A 
ATOM     27  C   UNL     1       2.594   5.628  18.338  0.00  0.00    +0.000 A 
ENDBRANCH  18  21
ENDBRANCH   1  20
TORSDOF 3
ENDMDL
MODEL 9
REMARK VINA RESULT:      -7.3      7.086     10.049
REMARK  Name = 
REMARK  5 active torsions:
REMARK  status: ('A' for Active; 'I' for Inactive)
REMARK    1  A    between atoms: C_1  and  C_2
REMARK    2  A    between atoms: C_4  and  C_5
REMARK    3  A    between atoms: C_13  and  C_14
REMARK    4  A    between atoms: C_14  and  C_15
REMARK    5  A    between atoms: C_17  and  C_18
REMARK                            x       y       z     vdW  Elec       q    Type
REMARK                         _______ _______ _______ _____ _____    ______ ____
ROOT
ATOM      1  C   UNL     1       0.877  11.266  20.074  0.00  0.00    +0.000 C 
ATOM      2  C   UNL     1       1.612  11.649  18.782  0.00  0.00    +0.000 C 
ATOM      3  C   UNL     1      -0.592  11.683  20.179  0.00  0.00    +0.000 C 
ATOM      4  C   UNL     1      -0.484  12.833  21.115  0.00  0.00    +0.000 C 
ATOM      5  N   UNL     1       0.698  13.052  21.588  0.00  0.00    +0.000 NA
ATOM      6  O   UNL     1       1.534  12.004  21.131  0.00  0.00    +0.000 OA
ENDROOT
BRANCH   4   7
ATOM      7  C   UNL     1      -1.671  13.574  21.588  0.00  0.00    +0.000 A 
ATOM      8  C   UNL     1      -1.998  14.794  20.976  0.00  0.00    +0.000 A 
ATOM      9 CL   UNL     1      -1.059  15.498  19.707  0.00  0.00    +0.000 Cl
ATOM     10  C   UNL     1      -3.169  15.486  21.344  0.00  0.00    +0.000 A 
ATOM     11  C   UNL     1      -4.036  14.950  22.303  0.00  0.00    +0.000 A 
ATOM     12  C   UNL     1      -3.726  13.730  22.889  0.00  0.00    +0.000 A 
ATOM     13  C   UNL     1      -2.550  13.040  22.541  0.00  0.00    +0.000 A 
ATOM     14 CL   UNL     1      -2.246  11.543  23.344  0.00  0.00    +0.000 Cl
ENDBRANCH   4   7
BRANCH   1  20
ATOM     15  C   UNL     1       0.438   9.449  22.792  0.00  0.00    +0.000 C 
ATOM     16  C   UNL     1       0.881   8.995  21.448  0.00  0.00    +0.000 A 
ATOM     17  N   UNL     1       1.218   7.653  21.290  0.00  0.00    +0.000 NA
ATOM     18  C   UNL     1       1.635   7.402  20.066  0.00  0.00    +0.000 A 
ATOM     19  S   UNL     1       1.666   8.776  19.041  0.00  0.00    +0.000 S 
ATOM     20  C   UNL     1       1.051   9.776  20.314  0.00  0.00    +0.000 A 
BRANCH  18  21
ATOM     21  C   UNL     1       2.123   6.090  19.598  0.00  0.00    +0.000 A 
ATOM     22  C   UNL     1       2.090   4.927  20.392  0.00  0.00    +0.000 A 
ATOM     23  C   UNL     1       2.545   3.702  19.890  0.00  0.00    +0.000 A 
ATOM     24  C   UNL     1       3.043   3.626  18.591  0.00  0.00    +0.000 A 
ATOM     25 CL   UNL     1       3.599   2.119  17.974  0.00  0.00    +0.000 Cl
ATOM     26  C   UNL     1       3.093   4.762  17.790  0.00  0.00    +0.000 A 
ATOM     27  C   UNL     1       2.638   5.985  18.294  0.00  0.00    +0.000 A 
ENDBRANCH  18  21
ENDBRANCH   1  20
TORSDOF 3
ENDMDL
