MODEL 1
REMARK VINA RESULT:      -5.8      0.000      0.000
REMARK  Name = 
REMARK  8 active torsions:
REMARK  status: ('A' for Active; 'I' for Inactive)
REMARK    1  A    between atoms: C_1  and  C_2
REMARK    2  A    between atoms: C_17  and  C_18
REMARK    3  A    between atoms: C_19  and  C_20
REMARK    4  A    between atoms: C_20  and  C_21
REMARK    5  A    between atoms: C_21  and  S_22
REMARK    6  A    between atoms: C_26  and  C_27
REMARK    7  A    between atoms: C_27  and  C_28
REMARK    8  A    between atoms: C_27  and  C_29
REMARK                            x       y       z     vdW  Elec       q    Type
REMARK                         _______ _______ _______ _____ _____    ______ ____
ROOT
ATOM      1  C   UNL     1      -7.030   9.899  19.129  0.00  0.00    +0.000 C 
ATOM      2  C   UNL     1      -7.001  11.125  20.075  0.00  0.00    +0.000 C 
ATOM      3  C   UNL     1      -5.984  12.022  20.270  0.00  0.00    +0.000 C 
ATOM      4  N   UNL     1      -4.830  11.845  19.535  0.00  0.00    +0.000 N 
ATOM      5  C   UNL     1      -4.858  11.875  18.110  0.00  0.00    +0.000 C 
ATOM      6  O   UNL     1      -5.790  12.242  17.402  0.00  0.00    +0.000 OA
ATOM      7  C   UNL     1      -3.572  11.415  17.591  0.00  0.00    +0.000 A 
ATOM      8  C   UNL     1      -3.230  10.232  16.949  0.00  0.00    +0.000 A 
ATOM      9  S   UNL     1      -1.612   9.807  17.450  0.00  0.00    +0.000 S 
ATOM     10  C   UNL     1      -1.560  11.257  18.353  0.00  0.00    +0.000 A 
ATOM     11  N   UNL     1      -2.494  12.121  18.051  0.00  0.00    +0.000 NA
ATOM     12  C   UNL     1      -0.734  11.456  19.568  0.00  0.00    +0.000 C 
ATOM     13  N   UNL     1      -1.532  12.348  20.410  0.00  0.00    +0.000 N 
ATOM     14  C   UNL     1      -1.014  12.780  21.585  0.00  0.00    +0.000 C 
ATOM     15  O   UNL     1       0.005  12.332  22.054  0.00  0.00    +0.000 OA
ATOM     16  C   UNL     1      -1.866  13.779  22.262  0.00  0.00    +0.000 C 
ATOM     17  C   UNL     1      -1.207  14.501  23.417  0.00  0.00    +0.000 C 
ATOM     18  O   UNL     1      -2.265  15.230  24.065  0.00  0.00    +0.000 OA
ATOM     19  C   UNL     1      -3.415  14.530  24.401  0.00  0.00    +0.000 C 
ATOM     20  O   UNL     1      -3.468  13.827  25.401  0.00  0.00    +0.000 OA
ATOM     21  C   UNL     1      -4.673  14.966  23.499  0.00  0.00    +0.000 C 
ATOM     22  N   UNL     1      -4.865  14.101  22.007  0.00  0.00    +0.000 N 
ATOM     23  C   UNL     1      -6.023  13.395  21.422  0.00  0.00    +0.000 C 
ATOM     24  O   UNL     1      -7.148  13.819  21.698  0.00  0.00    +0.000 OA
ATOM     25  H   UNL     1      -4.410  10.944  19.771  0.00  0.00    +0.000 HD
ATOM     26  H   UNL     1      -2.343  12.800  19.986  0.00  0.00    +0.000 HD
ATOM     27  H   UNL     1      -4.356  14.573  21.276  0.00  0.00    +0.000 HD
ENDROOT
BRANCH  21  28
ATOM     28  C   UNL     1      -4.428  16.615  23.624  0.00  0.00    +0.000 C 
ATOM     29  C   UNL     1      -5.019  17.286  24.962  0.00  0.00    +0.000 C 
ATOM     30  C   UNL     1      -4.867  17.537  22.504  0.00  0.00    +0.000 C 
ENDBRANCH  21  28
BRANCH  17  31
ATOM     31  C   UNL     1      -0.159  15.484  22.884  0.00  0.00    +0.000 C 
ATOM     32  C   UNL     1      -0.432  16.341  21.875  0.00  0.00    +0.000 C 
BRANCH  32  33
ATOM     33  C   UNL     1       0.405  17.507  21.407  0.00  0.00    +0.000 C 
BRANCH  33  34
ATOM     34  C   UNL     1       1.018  17.186  20.033  0.00  0.00    +0.000 C 
BRANCH  34  35
ATOM     35  S   UNL     1      -0.012  16.045  19.064  0.00  0.00    +0.000 S 
ATOM     36  H   UNL     1      -0.833  15.683  20.059  0.00  0.00    +0.000 HD
ENDBRANCH  34  35
ENDBRANCH  33  34
ENDBRANCH  32  33
ENDBRANCH  17  31
TORSDOF 5
ENDMDL
MODEL 2
REMARK VINA RESULT:      -5.6      4.175      7.503
REMARK  Name = 
REMARK  8 active torsions:
REMARK  status: ('A' for Active; 'I' for Inactive)
REMARK    1  A    between atoms: C_1  and  C_2
REMARK    2  A    between atoms: C_17  and  C_18
REMARK    3  A    between atoms: C_19  and  C_20
REMARK    4  A    between atoms: C_20  and  C_21
REMARK    5  A    between atoms: C_21  and  S_22
REMARK    6  A    between atoms: C_26  and  C_27
REMARK    7  A    between atoms: C_27  and  C_28
REMARK    8  A    between atoms: C_27  and  C_29
REMARK                            x       y       z     vdW  Elec       q    Type
REMARK                         _______ _______ _______ _____ _____    ______ ____
ROOT
ATOM      1  C   UNL     1      -1.454  10.363  18.936  0.00  0.00    +0.000 C 
ATOM      2  C   UNL     1      -0.109  11.022  18.538  0.00  0.00    +0.000 C 
ATOM      3  C   UNL     1       0.612  11.962  19.227  0.00  0.00    +0.000 C 
ATOM      4  N   UNL     1       0.109  12.387  20.439  0.00  0.00    +0.000 N 
ATOM      5  C   UNL     1      -0.099  11.467  21.508  0.00  0.00    +0.000 C 
ATOM      6  O   UNL     1       0.302  10.310  21.568  0.00  0.00    +0.000 OA
ATOM      7  C   UNL     1      -0.863  12.122  22.567  0.00  0.00    +0.000 A 
ATOM      8  C   UNL     1      -2.180  11.945  22.971  0.00  0.00    +0.000 A 
ATOM      9  S   UNL     1      -2.795  13.502  23.469  0.00  0.00    +0.000 S 
ATOM     10  C   UNL     1      -1.245  14.157  23.171  0.00  0.00    +0.000 A 
ATOM     11  N   UNL     1      -0.292  13.271  23.045  0.00  0.00    +0.000 NA
ATOM     12  C   UNL     1      -0.993  15.570  22.801  0.00  0.00    +0.000 C 
ATOM     13  N   UNL     1       0.158  15.511  21.898  0.00  0.00    +0.000 N 
ATOM     14  C   UNL     1       0.685  16.669  21.428  0.00  0.00    +0.000 C 
ATOM     15  O   UNL     1       0.148  17.739  21.581  0.00  0.00    +0.000 OA
ATOM     16  C   UNL     1       1.919  16.467  20.644  0.00  0.00    +0.000 C 
ATOM     17  C   UNL     1       2.698  17.730  20.345  0.00  0.00    +0.000 C 
ATOM     18  O   UNL     1       3.704  17.342  19.392  0.00  0.00    +0.000 OA
ATOM     19  C   UNL     1       3.288  16.640  18.270  0.00  0.00    +0.000 C 
ATOM     20  O   UNL     1       2.786  17.207  17.309  0.00  0.00    +0.000 OA
ATOM     21  C   UNL     1       3.781  15.109  18.297  0.00  0.00    +0.000 C 
ATOM     22  N   UNL     1       2.723  13.991  19.098  0.00  0.00    +0.000 N 
ATOM     23  C   UNL     1       2.145  12.702  18.666  0.00  0.00    +0.000 C 
ATOM     24  O   UNL     1       2.804  12.017  17.880  0.00  0.00    +0.000 OA
ATOM     25  H   UNL     1      -0.799  12.833  20.294  0.00  0.00    +0.000 HD
ATOM     26  H   UNL     1       0.668  14.630  21.838  0.00  0.00    +0.000 HD
ATOM     27  H   UNL     1       2.965  13.940  20.075  0.00  0.00    +0.000 HD
ENDROOT
BRANCH  21  28
ATOM     28  C   UNL     1       5.357  15.431  18.754  0.00  0.00    +0.000 C 
ATOM     29  C   UNL     1       6.481  14.825  17.775  0.00  0.00    +0.000 C 
ATOM     30  C   UNL     1       5.831  15.079  20.150  0.00  0.00    +0.000 C 
ENDBRANCH  21  28
BRANCH  17  31
ATOM     31  C   UNL     1       3.373  18.237  21.625  0.00  0.00    +0.000 C 
ATOM     32  C   UNL     1       4.028  17.404  22.464  0.00  0.00    +0.000 C 
BRANCH  32  33
ATOM     33  C   UNL     1       4.925  17.781  23.618  0.00  0.00    +0.000 C 
BRANCH  33  34
ATOM     34  C   UNL     1       4.779  16.747  24.748  0.00  0.00    +0.000 C 
BRANCH  34  35
ATOM     35  S   UNL     1       5.449  15.122  24.291  0.00  0.00    +0.000 S 
ATOM     36  H   UNL     1       6.744  15.432  24.445  0.00  0.00    +0.000 HD
ENDBRANCH  34  35
ENDBRANCH  33  34
ENDBRANCH  32  33
ENDBRANCH  17  31
TORSDOF 5
ENDMDL
MODEL 3
REMARK VINA RESULT:      -5.5      3.128      4.637
REMARK  Name = 
REMARK  8 active torsions:
REMARK  status: ('A' for Active; 'I' for Inactive)
REMARK    1  A    between atoms: C_1  and  C_2
REMARK    2  A    between atoms: C_17  and  C_18
REMARK    3  A    between atoms: C_19  and  C_20
REMARK    4  A    between atoms: C_20  and  C_21
REMARK    5  A    between atoms: C_21  and  S_22
REMARK    6  A    between atoms: C_26  and  C_27
REMARK    7  A    between atoms: C_27  and  C_28
REMARK    8  A    between atoms: C_27  and  C_29
REMARK                            x       y       z     vdW  Elec       q    Type
REMARK                         _______ _______ _______ _____ _____    ______ ____
ROOT
ATOM      1  C   UNL     1       0.624   9.615  22.671  0.00  0.00    +0.000 C 
ATOM      2  C   UNL     1      -0.657  10.400  23.050  0.00  0.00    +0.000 C 
ATOM      3  C   UNL     1      -1.261  11.420  22.362  0.00  0.00    +0.000 C 
ATOM      4  N   UNL     1      -0.686  11.812  21.171  0.00  0.00    +0.000 N 
ATOM      5  C   UNL     1      -0.545  10.893  20.090  0.00  0.00    +0.000 C 
ATOM      6  O   UNL     1      -1.059   9.784  19.998  0.00  0.00    +0.000 OA
ATOM      7  C   UNL     1       0.309  11.485  19.062  0.00  0.00    +0.000 A 
ATOM      8  C   UNL     1       1.611  11.181  18.687  0.00  0.00    +0.000 A 
ATOM      9  S   UNL     1       2.394  12.675  18.235  0.00  0.00    +0.000 S 
ATOM     10  C   UNL     1       0.911  13.481  18.507  0.00  0.00    +0.000 A 
ATOM     11  N   UNL     1      -0.130  12.694  18.593  0.00  0.00    +0.000 NA
ATOM     12  C   UNL     1       0.794  14.906  18.898  0.00  0.00    +0.000 C 
ATOM     13  N   UNL     1      -0.380  14.949  19.772  0.00  0.00    +0.000 N 
ATOM     14  C   UNL     1      -0.798  16.146  20.252  0.00  0.00    +0.000 C 
ATOM     15  O   UNL     1      -0.152  17.159  20.132  0.00  0.00    +0.000 OA
ATOM     16  C   UNL     1      -2.067  16.058  21.002  0.00  0.00    +0.000 C 
ATOM     17  C   UNL     1      -2.722  17.388  21.306  0.00  0.00    +0.000 C 
ATOM     18  O   UNL     1      -3.786  17.089  22.226  0.00  0.00    +0.000 OA
ATOM     19  C   UNL     1      -3.473  16.329  23.344  0.00  0.00    +0.000 C 
ATOM     20  O   UNL     1      -2.941  16.826  24.329  0.00  0.00    +0.000 OA
ATOM     21  C   UNL     1      -4.118  14.857  23.276  0.00  0.00    +0.000 C 
ATOM     22  N   UNL     1      -3.158  13.651  22.479  0.00  0.00    +0.000 N 
ATOM     23  C   UNL     1      -2.726  12.303  22.900  0.00  0.00    +0.000 C 
ATOM     24  O   UNL     1      -3.470  11.676  23.657  0.00  0.00    +0.000 OA
ATOM     25  H   UNL     1       0.258  12.160  21.347  0.00  0.00    +0.000 HD
ATOM     26  H   UNL     1      -0.978  14.123  19.803  0.00  0.00    +0.000 HD
ATOM     27  H   UNL     1      -3.379  13.641  21.496  0.00  0.00    +0.000 HD
ENDROOT
BRANCH  21  28
ATOM     28  C   UNL     1      -5.640  15.346  22.788  0.00  0.00    +0.000 C 
ATOM     29  C   UNL     1      -6.809  15.091  23.864  0.00  0.00    +0.000 C 
ATOM     30  C   UNL     1      -6.212  14.853  21.473  0.00  0.00    +0.000 C 
ENDBRANCH  21  28
BRANCH  17  31
ATOM     31  C   UNL     1      -3.308  17.983  20.020  0.00  0.00    +0.000 C 
ATOM     32  C   UNL     1      -4.578  17.732  19.633  0.00  0.00    +0.000 C 
BRANCH  32  33
ATOM     33  C   UNL     1      -5.359  18.419  18.538  0.00  0.00    +0.000 C 
BRANCH  33  34
ATOM     34  C   UNL     1      -6.782  17.840  18.474  0.00  0.00    +0.000 C 
BRANCH  34  35
ATOM     35  S   UNL     1      -6.821  16.177  17.743  0.00  0.00    +0.000 S 
ATOM     36  H   UNL     1      -5.888  16.392  16.804  0.00  0.00    +0.000 HD
ENDBRANCH  34  35
ENDBRANCH  33  34
ENDBRANCH  32  33
ENDBRANCH  17  31
TORSDOF 5
ENDMDL
MODEL 4
REMARK VINA RESULT:      -5.4      2.969      5.394
REMARK  Name = 
REMARK  8 active torsions:
REMARK  status: ('A' for Active; 'I' for Inactive)
REMARK    1  A    between atoms: C_1  and  C_2
REMARK    2  A    between atoms: C_17  and  C_18
REMARK    3  A    between atoms: C_19  and  C_20
REMARK    4  A    between atoms: C_20  and  C_21
REMARK    5  A    between atoms: C_21  and  S_22
REMARK    6  A    between atoms: C_26  and  C_27
REMARK    7  A    between atoms: C_27  and  C_28
REMARK    8  A    between atoms: C_27  and  C_29
REMARK                            x       y       z     vdW  Elec       q    Type
REMARK                         _______ _______ _______ _____ _____    ______ ____
ROOT
ATOM      1  C   UNL     1      -4.357  11.368  15.269  0.00  0.00    +0.000 C 
ATOM      2  C   UNL     1      -3.290  10.889  16.285  0.00  0.00    +0.000 C 
ATOM      3  C   UNL     1      -3.166  11.225  17.607  0.00  0.00    +0.000 C 
ATOM      4  N   UNL     1      -4.103  12.090  18.134  0.00  0.00    +0.000 N 
ATOM      5  C   UNL     1      -5.489  11.752  18.138  0.00  0.00    +0.000 C 
ATOM      6  O   UNL     1      -5.977  10.655  17.891  0.00  0.00    +0.000 OA
ATOM      7  C   UNL     1      -6.271  12.929  18.513  0.00  0.00    +0.000 A 
ATOM      8  C   UNL     1      -7.098  13.741  17.749  0.00  0.00    +0.000 A 
ATOM      9  S   UNL     1      -6.936  15.374  18.349  0.00  0.00    +0.000 S 
ATOM     10  C   UNL     1      -5.888  14.775  19.559  0.00  0.00    +0.000 A 
ATOM     11  N   UNL     1      -5.921  13.478  19.717  0.00  0.00    +0.000 NA
ATOM     12  C   UNL     1      -4.818  15.571  20.206  0.00  0.00    +0.000 C 
ATOM     13  N   UNL     1      -3.751  14.604  20.468  0.00  0.00    +0.000 N 
ATOM     14  C   UNL     1      -2.638  15.014  21.124  0.00  0.00    +0.000 C 
ATOM     15  O   UNL     1      -2.408  16.177  21.355  0.00  0.00    +0.000 OA
ATOM     16  C   UNL     1      -1.712  13.908  21.440  0.00  0.00    +0.000 C 
ATOM     17  C   UNL     1      -0.608  14.261  22.415  0.00  0.00    +0.000 C 
ATOM     18  O   UNL     1       0.293  13.140  22.392  0.00  0.00    +0.000 OA
ATOM     19  C   UNL     1       0.735  12.696  21.154  0.00  0.00    +0.000 C 
ATOM     20  O   UNL     1       1.638  13.264  20.554  0.00  0.00    +0.000 OA
ATOM     21  C   UNL     1       0.120  11.259  20.771  0.00  0.00    +0.000 C 
ATOM     22  N   UNL     1      -1.410  11.289  19.952  0.00  0.00    +0.000 N 
ATOM     23  C   UNL     1      -1.868  10.651  18.702  0.00  0.00    +0.000 C 
ATOM     24  O   UNL     1      -1.356   9.573  18.392  0.00  0.00    +0.000 OA
ATOM     25  H   UNL     1      -4.052  12.986  17.647  0.00  0.00    +0.000 HD
ATOM     26  H   UNL     1      -3.973  13.614  20.361  0.00  0.00    +0.000 HD
ATOM     27  H   UNL     1      -2.155  11.272  20.631  0.00  0.00    +0.000 HD
ENDROOT
BRANCH  21  28
ATOM     28  C   UNL     1       0.398  10.540  22.254  0.00  0.00    +0.000 C 
ATOM     29  C   UNL     1       1.305   9.212  22.201  0.00  0.00    +0.000 C 
ATOM     30  C   UNL     1      -0.767  10.174  23.153  0.00  0.00    +0.000 C 
ENDBRANCH  21  28
BRANCH  17  31
ATOM     31  C   UNL     1      -1.192  14.421  23.823  0.00  0.00    +0.000 C 
ATOM     32  C   UNL     1      -1.075  15.576  24.516  0.00  0.00    +0.000 C 
BRANCH  32  33
ATOM     33  C   UNL     1      -1.785  15.958  25.793  0.00  0.00    +0.000 C 
BRANCH  33  34
ATOM     34  C   UNL     1      -2.736  17.136  25.524  0.00  0.00    +0.000 C 
BRANCH  34  35
ATOM     35  S   UNL     1      -4.226  16.630  24.616  0.00  0.00    +0.000 S 
ATOM     36  H   UNL     1      -4.711  17.861  24.402  0.00  0.00    +0.000 HD
ENDBRANCH  34  35
ENDBRANCH  33  34
ENDBRANCH  32  33
ENDBRANCH  17  31
TORSDOF 5
ENDMDL
MODEL 5
REMARK VINA RESULT:      -5.3      3.031      5.475
REMARK  Name = 
REMARK  8 active torsions:
REMARK  status: ('A' for Active; 'I' for Inactive)
REMARK    1  A    between atoms: C_1  and  C_2
REMARK    2  A    between atoms: C_17  and  C_18
REMARK    3  A    between atoms: C_19  and  C_20
REMARK    4  A    between atoms: C_20  and  C_21
REMARK    5  A    between atoms: C_21  and  S_22
REMARK    6  A    between atoms: C_26  and  C_27
REMARK    7  A    between atoms: C_27  and  C_28
REMARK    8  A    between atoms: C_27  and  C_29
REMARK                            x       y       z     vdW  Elec       q    Type
REMARK                         _______ _______ _______ _____ _____    ______ ____
ROOT
ATOM      1  C   UNL     1      -4.285  11.384  15.247  0.00  0.00    +0.000 C 
ATOM      2  C   UNL     1      -3.210  10.918  16.260  0.00  0.00    +0.000 C 
ATOM      3  C   UNL     1      -3.097  11.242  17.587  0.00  0.00    +0.000 C 
ATOM      4  N   UNL     1      -4.056  12.078  18.121  0.00  0.00    +0.000 N 
ATOM      5  C   UNL     1      -5.433  11.708  18.117  0.00  0.00    +0.000 C 
ATOM      6  O   UNL     1      -5.895  10.603  17.856  0.00  0.00    +0.000 OA
ATOM      7  C   UNL     1      -6.244  12.861  18.504  0.00  0.00    +0.000 A 
ATOM      8  C   UNL     1      -7.088  13.663  17.747  0.00  0.00    +0.000 A 
ATOM      9  S   UNL     1      -6.966  15.291  18.366  0.00  0.00    +0.000 S 
ATOM     10  C   UNL     1      -5.908  14.704  19.573  0.00  0.00    +0.000 A 
ATOM     11  N   UNL     1      -5.910  13.404  19.715  0.00  0.00    +0.000 NA
ATOM     12  C   UNL     1      -4.859  15.517  20.232  0.00  0.00    +0.000 C 
ATOM     13  N   UNL     1      -3.770  14.572  20.486  0.00  0.00    +0.000 N 
ATOM     14  C   UNL     1      -2.669  15.000  21.150  0.00  0.00    +0.000 C 
ATOM     15  O   UNL     1      -2.467  16.166  21.395  0.00  0.00    +0.000 OA
ATOM     16  C   UNL     1      -1.717  13.914  21.456  0.00  0.00    +0.000 C 
ATOM     17  C   UNL     1      -0.625  14.281  22.437  0.00  0.00    +0.000 C 
ATOM     18  O   UNL     1       0.303  13.181  22.404  0.00  0.00    +0.000 OA
ATOM     19  C   UNL     1       0.758  12.763  21.162  0.00  0.00    +0.000 C 
ATOM     20  O   UNL     1       1.649  13.359  20.571  0.00  0.00    +0.000 OA
ATOM     21  C   UNL     1       0.178  11.317  20.761  0.00  0.00    +0.000 C 
ATOM     22  N   UNL     1      -1.349  11.320  19.938  0.00  0.00    +0.000 N 
ATOM     23  C   UNL     1      -1.789  10.685  18.679  0.00  0.00    +0.000 C 
ATOM     24  O   UNL     1      -1.251   9.624  18.358  0.00  0.00    +0.000 OA
ATOM     25  H   UNL     1      -4.025  12.981  17.645  0.00  0.00    +0.000 HD
ATOM     26  H   UNL     1      -3.968  13.578  20.366  0.00  0.00    +0.000 HD
ATOM     27  H   UNL     1      -2.096  11.277  20.615  0.00  0.00    +0.000 HD
ENDROOT
BRANCH  21  28
ATOM     28  C   UNL     1       0.469  10.586  22.236  0.00  0.00    +0.000 C 
ATOM     29  C   UNL     1       1.394   9.271  22.169  0.00  0.00    +0.000 C 
ATOM     30  C   UNL     1      -0.688  10.197  23.134  0.00  0.00    +0.000 C 
ENDBRANCH  21  28
BRANCH  17  31
ATOM     31  C   UNL     1      -1.215  14.411  23.846  0.00  0.00    +0.000 C 
ATOM     32  C   UNL     1      -1.079  15.541  24.575  0.00  0.00    +0.000 C 
BRANCH  32  33
ATOM     33  C   UNL     1      -1.791  15.899  25.857  0.00  0.00    +0.000 C 
BRANCH  33  34
ATOM     34  C   UNL     1      -0.997  16.984  26.604  0.00  0.00    +0.000 C 
BRANCH  34  35
ATOM     35  S   UNL     1       0.469  16.317  27.444  0.00  0.00    +0.000 S 
ATOM     36  H   UNL     1      -0.173  15.792  28.497  0.00  0.00    +0.000 HD
ENDBRANCH  34  35
ENDBRANCH  33  34
ENDBRANCH  32  33
ENDBRANCH  17  31
TORSDOF 5
ENDMDL
MODEL 6
REMARK VINA RESULT:      -5.3      2.824      7.568
REMARK  Name = 
REMARK  8 active torsions:
REMARK  status: ('A' for Active; 'I' for Inactive)
REMARK    1  A    between atoms: C_1  and  C_2
REMARK    2  A    between atoms: C_17  and  C_18
REMARK    3  A    between atoms: C_19  and  C_20
REMARK    4  A    between atoms: C_20  and  C_21
REMARK    5  A    between atoms: C_21  and  S_22
REMARK    6  A    between atoms: C_26  and  C_27
REMARK    7  A    between atoms: C_27  and  C_28
REMARK    8  A    between atoms: C_27  and  C_29
REMARK                            x       y       z     vdW  Elec       q    Type
REMARK                         _______ _______ _______ _____ _____    ______ ____
ROOT
ATOM      1  C   UNL     1      -2.395  15.710  25.698  0.00  0.00    +0.000 C 
ATOM      2  C   UNL     1      -1.390  15.105  24.687  0.00  0.00    +0.000 C 
ATOM      3  C   UNL     1      -1.584  14.830  23.359  0.00  0.00    +0.000 C 
ATOM      4  N   UNL     1      -2.818  15.131  22.821  0.00  0.00    +0.000 N 
ATOM      5  C   UNL     1      -3.312  16.468  22.827  0.00  0.00    +0.000 C 
ATOM      6  O   UNL     1      -2.679  17.483  23.094  0.00  0.00    +0.000 OA
ATOM      7  C   UNL     1      -4.721  16.464  22.435  0.00  0.00    +0.000 A 
ATOM      8  C   UNL     1      -5.866  16.687  23.188  0.00  0.00    +0.000 A 
ATOM      9  S   UNL     1      -7.122  15.648  22.561  0.00  0.00    +0.000 S 
ATOM     10  C   UNL     1      -6.026  15.128  21.357  0.00  0.00    +0.000 A 
ATOM     11  N   UNL     1      -4.966  15.881  21.221  0.00  0.00    +0.000 NA
ATOM     12  C   UNL     1      -6.080  13.803  20.694  0.00  0.00    +0.000 C 
ATOM     13  N   UNL     1      -4.679  13.462  20.444  0.00  0.00    +0.000 N 
ATOM     14  C   UNL     1      -4.389  12.318  19.778  0.00  0.00    +0.000 C 
ATOM     15  O   UNL     1      -5.222  11.481  19.527  0.00  0.00    +0.000 OA
ATOM     16  C   UNL     1      -2.951  12.171  19.477  0.00  0.00    +0.000 C 
ATOM     17  C   UNL     1      -2.615  11.071  18.493  0.00  0.00    +0.000 C 
ATOM     18  O   UNL     1      -1.182  10.949  18.531  0.00  0.00    +0.000 OA
ATOM     19  C   UNL     1      -0.582  10.816  19.775  0.00  0.00    +0.000 C 
ATOM     20  O   UNL     1      -0.555   9.743  20.363  0.00  0.00    +0.000 OA
ATOM     21  C   UNL     1       0.261  12.124  20.183  0.00  0.00    +0.000 C 
ATOM     22  N   UNL     1      -0.628  13.366  21.007  0.00  0.00    +0.000 N 
ATOM     23  C   UNL     1      -0.369  14.088  22.269  0.00  0.00    +0.000 C 
ATOM     24  O   UNL     1       0.807  14.261  22.595  0.00  0.00    +0.000 OA
ATOM     25  H   UNL     1      -3.539  14.581  23.293  0.00  0.00    +0.000 HD
ATOM     26  H   UNL     1      -3.983  14.198  20.569  0.00  0.00    +0.000 HD
ATOM     27  H   UNL     1      -1.022  14.002  20.330  0.00  0.00    +0.000 HD
ENDROOT
BRANCH  21  28
ATOM     28  C   UNL     1       1.031  12.313  18.711  0.00  0.00    +0.000 C 
ATOM     29  C   UNL     1       2.163  11.215  18.394  0.00  0.00    +0.000 C 
ATOM     30  C   UNL     1       1.670  13.640  18.352  0.00  0.00    +0.000 C 
ENDBRANCH  21  28
BRANCH  17  31
ATOM     31  C   UNL     1      -3.058  11.482  17.084  0.00  0.00    +0.000 C 
ATOM     32  C   UNL     1      -3.188  10.580  16.086  0.00  0.00    +0.000 C 
BRANCH  32  33
ATOM     33  C   UNL     1      -3.827  10.790  14.734  0.00  0.00    +0.000 C 
BRANCH  33  34
ATOM     34  C   UNL     1      -3.218   9.812  13.715  0.00  0.00    +0.000 C 
BRANCH  34  35
ATOM     35  S   UNL     1      -4.166   9.746  12.167  0.00  0.00    +0.000 S 
ATOM     36  H   UNL     1      -3.126   9.890  11.334  0.00  0.00    +0.000 HD
ENDBRANCH  34  35
ENDBRANCH  33  34
ENDBRANCH  32  33
ENDBRANCH  17  31
TORSDOF 5
ENDMDL
MODEL 7
REMARK VINA RESULT:      -5.2      2.645      4.326
REMARK  Name = 
REMARK  8 active torsions:
REMARK  status: ('A' for Active; 'I' for Inactive)
REMARK    1  A    between atoms: C_1  and  C_2
REMARK    2  A    between atoms: C_17  and  C_18
REMARK    3  A    between atoms: C_19  and  C_20
REMARK    4  A    between atoms: C_20  and  C_21
REMARK    5  A    between atoms: C_21  and  S_22
REMARK    6  A    between atoms: C_26  and  C_27
REMARK    7  A    between atoms: C_27  and  C_28
REMARK    8  A    between atoms: C_27  and  C_29
REMARK                            x       y       z     vdW  Elec       q    Type
REMARK                         _______ _______ _______ _____ _____    ______ ____
ROOT
ATOM      1  C   UNL     1      -2.371   9.569  16.701  0.00  0.00    +0.000 C 
ATOM      2  C   UNL     1      -3.487  10.598  17.007  0.00  0.00    +0.000 C 
ATOM      3  C   UNL     1      -3.538  11.518  18.022  0.00  0.00    +0.000 C 
ATOM      4  N   UNL     1      -2.468  11.565  18.892  0.00  0.00    +0.000 N 
ATOM      5  C   UNL     1      -1.155  11.856  18.419  0.00  0.00    +0.000 C 
ATOM      6  O   UNL     1      -0.851  12.276  17.308  0.00  0.00    +0.000 OA
ATOM      7  C   UNL     1      -0.190  11.596  19.486  0.00  0.00    +0.000 A 
ATOM      8  C   UNL     1       0.747  10.580  19.626  0.00  0.00    +0.000 A 
ATOM      9  S   UNL     1       0.855  10.192  21.325  0.00  0.00    +0.000 S 
ATOM     10  C   UNL     1      -0.258  11.450  21.637  0.00  0.00    +0.000 A 
ATOM     11  N   UNL     1      -0.432  12.284  20.644  0.00  0.00    +0.000 NA
ATOM     12  C   UNL     1      -1.179  11.483  22.798  0.00  0.00    +0.000 C 
ATOM     13  N   UNL     1      -2.383  12.143  22.291  0.00  0.00    +0.000 N 
ATOM     14  C   UNL     1      -3.408  12.388  23.144  0.00  0.00    +0.000 C 
ATOM     15  O   UNL     1      -3.446  11.938  24.264  0.00  0.00    +0.000 OA
ATOM     16  C   UNL     1      -4.495  13.178  22.532  0.00  0.00    +0.000 C 
ATOM     17  C   UNL     1      -5.515  13.722  23.509  0.00  0.00    +0.000 C 
ATOM     18  O   UNL     1      -6.584  14.239  22.697  0.00  0.00    +0.000 OA
ATOM     19  C   UNL     1      -7.107  13.405  21.718  0.00  0.00    +0.000 C 
ATOM     20  O   UNL     1      -7.916  12.527  21.989  0.00  0.00    +0.000 OA
ATOM     21  C   UNL     1      -6.735  13.905  20.235  0.00  0.00    +0.000 C 
ATOM     22  N   UNL     1      -5.231  13.317  19.599  0.00  0.00    +0.000 N 
ATOM     23  C   UNL     1      -4.897  12.647  18.326  0.00  0.00    +0.000 C 
ATOM     24  O   UNL     1      -5.579  12.928  17.338  0.00  0.00    +0.000 OA
ATOM     25  H   UNL     1      -2.382  10.670  19.376  0.00  0.00    +0.000 HD
ATOM     26  H   UNL     1      -2.324  12.603  21.382  0.00  0.00    +0.000 HD
ATOM     27  H   UNL     1      -4.489  13.953  19.848  0.00  0.00    +0.000 HD
ENDROOT
BRANCH  21  28
ATOM     28  C   UNL     1      -7.104  15.515  20.486  0.00  0.00    +0.000 C 
ATOM     29  C   UNL     1      -7.917  16.217  19.286  0.00  0.00    +0.000 C 
ATOM     30  C   UNL     1      -6.009  16.502  20.837  0.00  0.00    +0.000 C 
ENDBRANCH  21  28
BRANCH  17  31
ATOM     31  C   UNL     1      -4.895  14.862  24.325  0.00  0.00    +0.000 C 
ATOM     32  C   UNL     1      -4.035  15.747  23.775  0.00  0.00    +0.000 C 
BRANCH  32  33
ATOM     33  C   UNL     1      -3.533  17.038  24.377  0.00  0.00    +0.000 C 
BRANCH  33  34
ATOM     34  C   UNL     1      -1.995  17.040  24.390  0.00  0.00    +0.000 C 
BRANCH  34  35
ATOM     35  S   UNL     1      -1.316  16.874  26.068  0.00  0.00    +0.000 S 
ATOM     36  H   UNL     1      -2.445  17.168  26.728  0.00  0.00    +0.000 HD
ENDBRANCH  34  35
ENDBRANCH  33  34
ENDBRANCH  32  33
ENDBRANCH  17  31
TORSDOF 5
ENDMDL
MODEL 8
REMARK VINA RESULT:      -5.1      2.576      6.787
REMARK  Name = 
REMARK  8 active torsions:
REMARK  status: ('A' for Active; 'I' for Inactive)
REMARK    1  A    between atoms: C_1  and  C_2
REMARK    2  A    between atoms: C_17  and  C_18
REMARK    3  A    between atoms: C_19  and  C_20
REMARK    4  A    between atoms: C_20  and  C_21
REMARK    5  A    between atoms: C_21  and  S_22
REMARK    6  A    between atoms: C_26  and  C_27
REMARK    7  A    between atoms: C_27  and  C_28
REMARK    8  A    between atoms: C_27  and  C_29
REMARK                            x       y       z     vdW  Elec       q    Type
REMARK                         _______ _______ _______ _____ _____    ______ ____
ROOT
ATOM      1  C   UNL     1      -6.583  16.963  21.210  0.00  0.00    +0.000 C 
ATOM      2  C   UNL     1      -6.234  15.779  20.274  0.00  0.00    +0.000 C 
ATOM      3  C   UNL     1      -5.377  14.737  20.507  0.00  0.00    +0.000 C 
ATOM      4  N   UNL     1      -4.735  14.702  21.728  0.00  0.00    +0.000 N 
ATOM      5  C   UNL     1      -5.479  14.631  22.943  0.00  0.00    +0.000 C 
ATOM      6  O   UNL     1      -6.677  14.396  23.057  0.00  0.00    +0.000 OA
ATOM      7  C   UNL     1      -4.580  14.861  24.073  0.00  0.00    +0.000 A 
ATOM      8  C   UNL     1      -4.464  15.952  24.923  0.00  0.00    +0.000 A 
ATOM      9  S   UNL     1      -2.775  16.126  25.331  0.00  0.00    +0.000 S 
ATOM     10  C   UNL     1      -2.457  14.717  24.419  0.00  0.00    +0.000 A 
ATOM     11  N   UNL     1      -3.514  14.005  24.127  0.00  0.00    +0.000 NA
ATOM     12  C   UNL     1      -1.164  14.427  23.753  0.00  0.00    +0.000 C 
ATOM     13  N   UNL     1      -1.535  13.702  22.536  0.00  0.00    +0.000 N 
ATOM     14  C   UNL     1      -0.555  13.230  21.727  0.00  0.00    +0.000 C 
ATOM     15  O   UNL     1       0.607  13.524  21.871  0.00  0.00    +0.000 OA
ATOM     16  C   UNL     1      -1.069  12.405  20.616  0.00  0.00    +0.000 C 
ATOM     17  C   UNL     1      -0.014  11.623  19.862  0.00  0.00    +0.000 C 
ATOM     18  O   UNL     1      -0.684  11.095  18.704  0.00  0.00    +0.000 OA
ATOM     19  C   UNL     1      -1.414  11.982  17.925  0.00  0.00    +0.000 C 
ATOM     20  O   UNL     1      -0.871  12.717  17.111  0.00  0.00    +0.000 OA
ATOM     21  C   UNL     1      -2.998  11.726  18.040  0.00  0.00    +0.000 C 
ATOM     22  N   UNL     1      -3.804  12.562  19.329  0.00  0.00    +0.000 N 
ATOM     23  C   UNL     1      -5.002  13.427  19.343  0.00  0.00    +0.000 C 
ATOM     24  O   UNL     1      -5.879  13.198  18.506  0.00  0.00    +0.000 OA
ATOM     25  H   UNL     1      -4.147  15.531  21.828  0.00  0.00    +0.000 HD
ATOM     26  H   UNL     1      -2.498  13.374  22.455  0.00  0.00    +0.000 HD
ATOM     27  H   UNL     1      -3.793  11.990  20.159  0.00  0.00    +0.000 HD
ENDROOT
BRANCH  21  28
ATOM     28  C   UNL     1      -2.928  10.064  17.873  0.00  0.00    +0.000 C 
ATOM     29  C   UNL     1      -2.516   9.549  16.405  0.00  0.00    +0.000 C 
ATOM     30  C   UNL     1      -4.119   9.210  18.260  0.00  0.00    +0.000 C 
ENDBRANCH  21  28
BRANCH  17  31
ATOM     31  C   UNL     1       0.495  10.468  20.731  0.00  0.00    +0.000 C 
ATOM     32  C   UNL     1       0.746   9.244  20.215  0.00  0.00    +0.000 C 
BRANCH  32  33
ATOM     33  C   UNL     1       1.460   8.093  20.882  0.00  0.00    +0.000 C 
BRANCH  33  34
ATOM     34  C   UNL     1       2.227   7.277  19.829  0.00  0.00    +0.000 C 
BRANCH  34  35
ATOM     35  S   UNL     1       2.238   8.084  18.201  0.00  0.00    +0.000 S 
ATOM     36  H   UNL     1       3.155   7.289  17.633  0.00  0.00    +0.000 HD
ENDBRANCH  34  35
ENDBRANCH  33  34
ENDBRANCH  32  33
ENDBRANCH  17  31
TORSDOF 5
ENDMDL
MODEL 9
REMARK VINA RESULT:      -5.1      3.444      8.031
REMARK  Name = 
REMARK  8 active torsions:
REMARK  status: ('A' for Active; 'I' for Inactive)
REMARK    1  A    between atoms: C_1  and  C_2
REMARK    2  A    between atoms: C_17  and  C_18
REMARK    3  A    between atoms: C_19  and  C_20
REMARK    4  A    between atoms: C_20  and  C_21
REMARK    5  A    between atoms: C_21  and  S_22
REMARK    6  A    between atoms: C_26  and  C_27
REMARK    7  A    between atoms: C_27  and  C_28
REMARK    8  A    between atoms: C_27  and  C_29
REMARK                            x       y       z     vdW  Elec       q    Type
REMARK                         _______ _______ _______ _____ _____    ______ ____
ROOT
ATOM      1  C   UNL     1       5.407  15.681  19.824  0.00  0.00    +0.000 C 
ATOM      2  C   UNL     1       4.439  14.556  19.379  0.00  0.00    +0.000 C 
ATOM      3  C   UNL     1       3.094  14.450  19.619  0.00  0.00    +0.000 C 
ATOM      4  N   UNL     1       2.494  15.465  20.334  0.00  0.00    +0.000 N 
ATOM      5  C   UNL     1       2.510  16.807  19.853  0.00  0.00    +0.000 C 
ATOM      6  O   UNL     1       2.844  17.181  18.734  0.00  0.00    +0.000 OA
ATOM      7  C   UNL     1       2.036  17.703  20.906  0.00  0.00    +0.000 A 
ATOM      8  C   UNL     1       2.726  18.622  21.686  0.00  0.00    +0.000 A 
ATOM      9  S   UNL     1       1.995  18.624  23.272  0.00  0.00    +0.000 S 
ATOM     10  C   UNL     1       0.844  17.502  22.692  0.00  0.00    +0.000 A 
ATOM     11  N   UNL     1       0.793  17.396  21.390  0.00  0.00    +0.000 NA
ATOM     12  C   UNL     1       0.139  16.513  23.542  0.00  0.00    +0.000 C 
ATOM     13  N   UNL     1      -0.037  15.347  22.674  0.00  0.00    +0.000 N 
ATOM     14  C   UNL     1      -0.719  14.274  23.145  0.00  0.00    +0.000 C 
ATOM     15  O   UNL     1      -1.043  14.164  24.303  0.00  0.00    +0.000 OA
ATOM     16  C   UNL     1      -0.938  13.232  22.122  0.00  0.00    +0.000 C 
ATOM     17  C   UNL     1      -1.933  12.158  22.509  0.00  0.00    +0.000 C 
ATOM     18  O   UNL     1      -1.814  11.145  21.495  0.00  0.00    +0.000 OA
ATOM     19  C   UNL     1      -0.541  10.676  21.202  0.00  0.00    +0.000 C 
ATOM     20  O   UNL     1       0.015   9.846  21.908  0.00  0.00    +0.000 OA
ATOM     21  C   UNL     1      -0.045  11.142  19.744  0.00  0.00    +0.000 C 
ATOM     22  N   UNL     1       0.761  12.678  19.678  0.00  0.00    +0.000 N 
ATOM     23  C   UNL     1       2.057  13.084  19.098  0.00  0.00    +0.000 C 
ATOM     24  O   UNL     1       2.457  12.465  18.109  0.00  0.00    +0.000 OA
ATOM     25  H   UNL     1       2.906  15.515  21.268  0.00  0.00    +0.000 HD
ATOM     26  H   UNL     1       0.150  15.465  21.678  0.00  0.00    +0.000 HD
ATOM     27  H   UNL     1       0.081  13.408  19.527  0.00  0.00    +0.000 HD
ENDROOT
BRANCH  21  28
ATOM     28  C   UNL     1      -1.463  10.770  18.940  0.00  0.00    +0.000 C 
ATOM     29  C   UNL     1      -1.276   9.853  17.630  0.00  0.00    +0.000 C 
ATOM     30  C   UNL     1      -2.404  11.876  18.505  0.00  0.00    +0.000 C 
ENDBRANCH  21  28
BRANCH  17  31
ATOM     31  C   UNL     1      -3.352  12.736  22.492  0.00  0.00    +0.000 C 
ATOM     32  C   UNL     1      -4.168  12.655  23.567  0.00  0.00    +0.000 C 
BRANCH  32  33
ATOM     33  C   UNL     1      -5.482  13.367  23.780  0.00  0.00    +0.000 C 
BRANCH  33  34
ATOM     34  C   UNL     1      -6.209  13.528  22.435  0.00  0.00    +0.000 C 
BRANCH  34  35
ATOM     35  S   UNL     1      -7.612  12.387  22.264  0.00  0.00    +0.000 S 
ATOM     36  H   UNL     1      -7.229  11.518  23.210  0.00  0.00    +0.000 HD
ENDBRANCH  34  35
ENDBRANCH  33  34
ENDBRANCH  32  33
ENDBRANCH  17  31
TORSDOF 5
ENDMDL
