MODEL 1
REMARK VINA RESULT:      -8.9      0.000      0.000
REMARK  Name = 
REMARK  10 active torsions:
REMARK  status: ('A' for Active; 'I' for Inactive)
REMARK    1  A    between atoms: C_1  and  C_2
REMARK    2  A    between atoms: C_5  and  C_6
REMARK    3  A    between atoms: C_6  and  O_8
REMARK    4  A    between atoms: O_8  and  C_9
REMARK    5  A    between atoms: C_9  and  C_10
REMARK    6  A    between atoms: C_9  and  C_11
REMARK    7  A    between atoms: N_13  and  C_14
REMARK    8  A    between atoms: C_14  and  C_15
REMARK    9  A    between atoms: C_25  and  S_26
REMARK   10  A    between atoms: S_26  and  N_29
REMARK                            x       y       z     vdW  Elec       q    Type
REMARK                         _______ _______ _______ _____ _____    ______ ____
ROOT
ATOM      1  C   UNL     1       1.718   8.279  19.795  0.00  0.00    +0.000 C 
ATOM      2  O   UNL     1       1.955   9.001  18.831  0.00  0.00    +0.000 OA
ENDROOT
BRANCH   1   7
ATOM      3  C   UNL     1       3.209   2.746  20.702  0.00  0.00    +0.000 C 
ATOM      4  C   UNL     1       2.802   4.129  20.278  0.00  0.00    +0.000 A 
ATOM      5  C   UNL     1       1.694   4.705  20.923  0.00  0.00    +0.000 A 
ATOM      6  C   UNL     1       1.331   6.030  20.694  0.00  0.00    +0.000 A 
ATOM      7  C   UNL     1       2.089   6.836  19.837  0.00  0.00    +0.000 A 
ATOM      8  C   UNL     1       3.172   6.266  19.139  0.00  0.00    +0.000 A 
ATOM      9  C   UNL     1       3.516   4.907  19.343  0.00  0.00    +0.000 A 
BRANCH   9  10
ATOM     10  S   UNL     1       4.743   4.149  18.252  0.00  0.00    +0.000 S 
ATOM     11  O   UNL     1       5.935   3.969  19.053  0.00  0.00    +0.000 OA
ATOM     12  O   UNL     1       4.102   3.021  17.610  0.00  0.00    +0.000 OA
BRANCH  10  13
ATOM     13  N   UNL     1       5.047   5.305  17.052  0.00  0.00    +0.000 NA
ATOM     14  C   UNL     1       5.367   4.819  15.680  0.00  0.00    +0.000 C 
ATOM     15  C   UNL     1       6.882   4.656  15.506  0.00  0.00    +0.000 C 
ATOM     16  O   UNL     1       7.549   5.908  15.715  0.00  0.00    +0.000 OA
ATOM     17  C   UNL     1       7.340   6.385  17.050  0.00  0.00    +0.000 C 
ATOM     18  C   UNL     1       5.851   6.516  17.406  0.00  0.00    +0.000 C 
ENDBRANCH  10  13
ENDBRANCH   9  10
ENDBRANCH   1   7
BRANCH   1  19
ATOM     19  O   UNL     1       0.943   8.615  20.858  0.00  0.00    +0.000 OA
BRANCH  19  20
ATOM     20  C   UNL     1       0.459   9.972  20.837  0.00  0.00    +0.000 C 
ATOM     21  C   UNL     1      -0.688  10.008  19.826  0.00  0.00    +0.000 C 
BRANCH  20  22
ATOM     22  C   UNL     1      -0.088  10.477  22.187  0.00  0.00    +0.000 C 
ATOM     23  O   UNL     1       0.324  10.056  23.259  0.00  0.00    +0.000 OA
ATOM     24  N   UNL     1      -1.051  11.451  22.097  0.00  0.00    +0.000 N 
ATOM     25  H   UNL     1      -1.366  11.735  21.175  0.00  0.00    +0.000 HD
BRANCH  24  26
ATOM     26  C   UNL     1      -1.501  12.200  23.256  0.00  0.00    +0.000 C 
BRANCH  26  27
ATOM     27  C   UNL     1      -2.940  12.597  23.054  0.00  0.00    +0.000 A 
ATOM     28  C   UNL     1      -3.816  12.782  24.150  0.00  0.00    +0.000 A 
ATOM     29  C   UNL     1      -5.196  12.901  23.952  0.00  0.00    +0.000 A 
ATOM     30  C   UNL     1      -5.655  12.810  22.657  0.00  0.00    +0.000 A 
ATOM     31  C   UNL     1      -4.798  12.723  21.582  0.00  0.00    +0.000 A 
ATOM     32  C   UNL     1      -3.439  12.645  21.741  0.00  0.00    +0.000 A 
ATOM     33  O   UNL     1      -5.463  12.560  20.404  0.00  0.00    +0.000 OA
ATOM     34  C   UNL     1      -6.729  12.139  20.944  0.00  0.00    +0.000 C 
ATOM     35  O   UNL     1      -6.955  12.667  22.268  0.00  0.00    +0.000 OA
ENDBRANCH  26  27
ENDBRANCH  24  26
ENDBRANCH  20  22
ENDBRANCH  19  20
ENDBRANCH   1  19
TORSDOF 8
ENDMDL
MODEL 2
REMARK VINA RESULT:      -8.7      1.368      2.165
REMARK  Name = 
REMARK  10 active torsions:
REMARK  status: ('A' for Active; 'I' for Inactive)
REMARK    1  A    between atoms: C_1  and  C_2
REMARK    2  A    between atoms: C_5  and  C_6
REMARK    3  A    between atoms: C_6  and  O_8
REMARK    4  A    between atoms: O_8  and  C_9
REMARK    5  A    between atoms: C_9  and  C_10
REMARK    6  A    between atoms: C_9  and  C_11
REMARK    7  A    between atoms: N_13  and  C_14
REMARK    8  A    between atoms: C_14  and  C_15
REMARK    9  A    between atoms: C_25  and  S_26
REMARK   10  A    between atoms: S_26  and  N_29
REMARK                            x       y       z     vdW  Elec       q    Type
REMARK                         _______ _______ _______ _____ _____    ______ ____
ROOT
ATOM      1  C   UNL     1       1.574   8.048  20.187  0.00  0.00    +0.000 C 
ATOM      2  O   UNL     1       1.498   8.648  21.256  0.00  0.00    +0.000 OA
ENDROOT
BRANCH   1   7
ATOM      3  C   UNL     1       3.280   2.513  20.539  0.00  0.00    +0.000 C 
ATOM      4  C   UNL     1       2.824   3.917  20.254  0.00  0.00    +0.000 A 
ATOM      5  C   UNL     1       1.679   4.375  20.930  0.00  0.00    +0.000 A 
ATOM      6  C   UNL     1       1.265   5.702  20.833  0.00  0.00    +0.000 A 
ATOM      7  C   UNL     1       2.005   6.625  20.086  0.00  0.00    +0.000 A 
ATOM      8  C   UNL     1       3.125   6.176  19.357  0.00  0.00    +0.000 A 
ATOM      9  C   UNL     1       3.523   4.818  19.425  0.00  0.00    +0.000 A 
BRANCH   9  10
ATOM     10  S   UNL     1       4.802   4.231  18.291  0.00  0.00    +0.000 S 
ATOM     11  O   UNL     1       5.978   3.991  19.101  0.00  0.00    +0.000 OA
ATOM     12  O   UNL     1       4.215   3.170  17.500  0.00  0.00    +0.000 OA
BRANCH  10  13
ATOM     13  N   UNL     1       5.103   5.530  17.246  0.00  0.00    +0.000 NA
ATOM     14  C   UNL     1       5.324   5.230  15.803  0.00  0.00    +0.000 C 
ATOM     15  C   UNL     1       6.817   5.026  15.519  0.00  0.00    +0.000 C 
ATOM     16  O   UNL     1       7.559   6.205  15.859  0.00  0.00    +0.000 OA
ATOM     17  C   UNL     1       7.445   6.498  17.257  0.00  0.00    +0.000 C 
ATOM     18  C   UNL     1       5.986   6.643  17.716  0.00  0.00    +0.000 C 
ENDBRANCH  10  13
ENDBRANCH   9  10
ENDBRANCH   1   7
BRANCH   1  19
ATOM     19  O   UNL     1       1.465   8.613  18.958  0.00  0.00    +0.000 OA
BRANCH  19  20
ATOM     20  C   UNL     1       1.293  10.044  18.973  0.00  0.00    +0.000 C 
ATOM     21  C   UNL     1       2.199  10.602  17.874  0.00  0.00    +0.000 C 
BRANCH  20  22
ATOM     22  C   UNL     1      -0.144  10.519  18.684  0.00  0.00    +0.000 C 
ATOM     23  O   UNL     1      -0.856   9.981  17.847  0.00  0.00    +0.000 OA
ATOM     24  N   UNL     1      -0.574  11.574  19.450  0.00  0.00    +0.000 N 
ATOM     25  H   UNL     1       0.077  11.991  20.106  0.00  0.00    +0.000 HD
BRANCH  24  26
ATOM     26  C   UNL     1      -1.964  11.992  19.476  0.00  0.00    +0.000 C 
BRANCH  26  27
ATOM     27  C   UNL     1      -2.346  12.332  20.894  0.00  0.00    +0.000 A 
ATOM     28  C   UNL     1      -1.576  11.884  21.993  0.00  0.00    +0.000 A 
ATOM     29  C   UNL     1      -2.066  11.986  23.300  0.00  0.00    +0.000 A 
ATOM     30  C   UNL     1      -3.327  12.516  23.458  0.00  0.00    +0.000 A 
ATOM     31  C   UNL     1      -4.040  13.037  22.400  0.00  0.00    +0.000 A 
ATOM     32  C   UNL     1      -3.568  12.989  21.114  0.00  0.00    +0.000 A 
ATOM     33  O   UNL     1      -5.291  13.432  22.766  0.00  0.00    +0.000 OA
ATOM     34  C   UNL     1      -5.376  12.708  24.007  0.00  0.00    +0.000 C 
ATOM     35  O   UNL     1      -4.077  12.492  24.598  0.00  0.00    +0.000 OA
ENDBRANCH  26  27
ENDBRANCH  24  26
ENDBRANCH  20  22
ENDBRANCH  19  20
ENDBRANCH   1  19
TORSDOF 8
ENDMDL
MODEL 3
REMARK VINA RESULT:      -8.5      1.587      2.413
REMARK  Name = 
REMARK  10 active torsions:
REMARK  status: ('A' for Active; 'I' for Inactive)
REMARK    1  A    between atoms: C_1  and  C_2
REMARK    2  A    between atoms: C_5  and  C_6
REMARK    3  A    between atoms: C_6  and  O_8
REMARK    4  A    between atoms: O_8  and  C_9
REMARK    5  A    between atoms: C_9  and  C_10
REMARK    6  A    between atoms: C_9  and  C_11
REMARK    7  A    between atoms: N_13  and  C_14
REMARK    8  A    between atoms: C_14  and  C_15
REMARK    9  A    between atoms: C_25  and  S_26
REMARK   10  A    between atoms: S_26  and  N_29
REMARK                            x       y       z     vdW  Elec       q    Type
REMARK                         _______ _______ _______ _____ _____    ______ ____
ROOT
ATOM      1  C   UNL     1       1.539   8.203  20.258  0.00  0.00    +0.000 C 
ATOM      2  O   UNL     1       1.510   8.756  21.354  0.00  0.00    +0.000 OA
ENDROOT
BRANCH   1   7
ATOM      3  C   UNL     1       2.965   2.580  20.319  0.00  0.00    +0.000 C 
ATOM      4  C   UNL     1       2.589   4.019  20.107  0.00  0.00    +0.000 A 
ATOM      5  C   UNL     1       1.438   4.491  20.762  0.00  0.00    +0.000 A 
ATOM      6  C   UNL     1       1.091   5.840  20.735  0.00  0.00    +0.000 A 
ATOM      7  C   UNL     1       1.907   6.770  20.082  0.00  0.00    +0.000 A 
ATOM      8  C   UNL     1       3.036   6.313  19.373  0.00  0.00    +0.000 A 
ATOM      9  C   UNL     1       3.366   4.935  19.369  0.00  0.00    +0.000 A 
BRANCH   9  10
ATOM     10  S   UNL     1       4.667   4.358  18.253  0.00  0.00    +0.000 S 
ATOM     11  O   UNL     1       5.793   4.013  19.094  0.00  0.00    +0.000 OA
ATOM     12  O   UNL     1       4.067   3.377  17.373  0.00  0.00    +0.000 OA
BRANCH  10  13
ATOM     13  N   UNL     1       5.071   5.703  17.306  0.00  0.00    +0.000 NA
ATOM     14  C   UNL     1       5.250   5.497  15.841  0.00  0.00    +0.000 C 
ATOM     15  C   UNL     1       6.716   5.185  15.516  0.00  0.00    +0.000 C 
ATOM     16  O   UNL     1       7.563   6.264  15.933  0.00  0.00    +0.000 OA
ATOM     17  C   UNL     1       7.491   6.456  17.351  0.00  0.00    +0.000 C 
ATOM     18  C   UNL     1       6.055   6.694  17.844  0.00  0.00    +0.000 C 
ENDBRANCH  10  13
ENDBRANCH   9  10
ENDBRANCH   1   7
BRANCH   1  19
ATOM     19  O   UNL     1       1.428   8.830  19.058  0.00  0.00    +0.000 OA
BRANCH  19  20
ATOM     20  C   UNL     1       0.755  10.102  19.110  0.00  0.00    +0.000 C 
ATOM     21  C   UNL     1       1.779  11.153  18.677  0.00  0.00    +0.000 C 
BRANCH  20  22
ATOM     22  C   UNL     1      -0.464  10.221  18.174  0.00  0.00    +0.000 C 
ATOM     23  O   UNL     1      -0.719   9.380  17.322  0.00  0.00    +0.000 OA
ATOM     24  N   UNL     1      -1.254  11.323  18.383  0.00  0.00    +0.000 N 
ATOM     25  H   UNL     1      -0.969  11.994  19.089  0.00  0.00    +0.000 HD
BRANCH  24  26
ATOM     26  C   UNL     1      -2.557  11.468  17.759  0.00  0.00    +0.000 C 
BRANCH  26  27
ATOM     27  C   UNL     1      -3.542  11.954  18.791  0.00  0.00    +0.000 A 
ATOM     28  C   UNL     1      -3.112  12.479  20.033  0.00  0.00    +0.000 A 
ATOM     29  C   UNL     1      -4.022  12.691  21.074  0.00  0.00    +0.000 A 
ATOM     30  C   UNL     1      -5.335  12.348  20.841  0.00  0.00    +0.000 A 
ATOM     31  C   UNL     1      -5.772  11.924  19.604  0.00  0.00    +0.000 A 
ATOM     32  C   UNL     1      -4.911  11.746  18.553  0.00  0.00    +0.000 A 
ATOM     33  O   UNL     1      -7.085  11.561  19.618  0.00  0.00    +0.000 OA
ATOM     34  C   UNL     1      -7.238  11.411  21.041  0.00  0.00    +0.000 C 
ATOM     35  O   UNL     1      -6.325  12.254  21.776  0.00  0.00    +0.000 OA
ENDBRANCH  26  27
ENDBRANCH  24  26
ENDBRANCH  20  22
ENDBRANCH  19  20
ENDBRANCH   1  19
TORSDOF 8
ENDMDL
MODEL 4
REMARK VINA RESULT:      -8.5      1.511      1.746
REMARK  Name = 
REMARK  10 active torsions:
REMARK  status: ('A' for Active; 'I' for Inactive)
REMARK    1  A    between atoms: C_1  and  C_2
REMARK    2  A    between atoms: C_5  and  C_6
REMARK    3  A    between atoms: C_6  and  O_8
REMARK    4  A    between atoms: O_8  and  C_9
REMARK    5  A    between atoms: C_9  and  C_10
REMARK    6  A    between atoms: C_9  and  C_11
REMARK    7  A    between atoms: N_13  and  C_14
REMARK    8  A    between atoms: C_14  and  C_15
REMARK    9  A    between atoms: C_25  and  S_26
REMARK   10  A    between atoms: S_26  and  N_29
REMARK                            x       y       z     vdW  Elec       q    Type
REMARK                         _______ _______ _______ _____ _____    ______ ____
ROOT
ATOM      1  C   UNL     1       1.821   8.217  19.727  0.00  0.00    +0.000 C 
ATOM      2  O   UNL     1       1.761   8.799  18.648  0.00  0.00    +0.000 OA
ENDROOT
BRANCH   1   7
ATOM      3  C   UNL     1       2.647   2.601  20.925  0.00  0.00    +0.000 C 
ATOM      4  C   UNL     1       2.421   4.000  20.426  0.00  0.00    +0.000 A 
ATOM      5  C   UNL     1       1.338   4.714  20.969  0.00  0.00    +0.000 A 
ATOM      6  C   UNL     1       1.135   6.060  20.669  0.00  0.00    +0.000 A 
ATOM      7  C   UNL     1       2.033   6.747  19.845  0.00  0.00    +0.000 A 
ATOM      8  C   UNL     1       3.095   6.039  19.248  0.00  0.00    +0.000 A 
ATOM      9  C   UNL     1       3.278   4.661  19.522  0.00  0.00    +0.000 A 
BRANCH   9  10
ATOM     10  S   UNL     1       4.490   3.736  18.551  0.00  0.00    +0.000 S 
ATOM     11  O   UNL     1       5.458   3.226  19.498  0.00  0.00    +0.000 OA
ATOM     12  O   UNL     1       3.749   2.839  17.688  0.00  0.00    +0.000 OA
BRANCH  10  13
ATOM     13  N   UNL     1       5.237   4.887  17.557  0.00  0.00    +0.000 NA
ATOM     14  C   UNL     1       5.094   4.734  16.082  0.00  0.00    +0.000 C 
ATOM     15  C   UNL     1       6.253   3.907  15.511  0.00  0.00    +0.000 C 
ATOM     16  O   UNL     1       7.507   4.545  15.785  0.00  0.00    +0.000 OA
ATOM     17  C   UNL     1       7.734   4.647  17.196  0.00  0.00    +0.000 C 
ATOM     18  C   UNL     1       6.600   5.382  17.927  0.00  0.00    +0.000 C 
ENDBRANCH  10  13
ENDBRANCH   9  10
ENDBRANCH   1   7
BRANCH   1  19
ATOM     19  O   UNL     1       1.529   8.766  20.934  0.00  0.00    +0.000 OA
BRANCH  19  20
ATOM     20  C   UNL     1       0.280   9.482  20.977  0.00  0.00    +0.000 C 
ATOM     21  C   UNL     1      -0.487   8.947  22.187  0.00  0.00    +0.000 C 
BRANCH  20  22
ATOM     22  C   UNL     1       0.421  11.008  21.146  0.00  0.00    +0.000 C 
ATOM     23  O   UNL     1       1.159  11.680  20.437  0.00  0.00    +0.000 OA
ATOM     24  N   UNL     1      -0.357  11.559  22.134  0.00  0.00    +0.000 N 
ATOM     25  H   UNL     1      -0.925  10.940  22.702  0.00  0.00    +0.000 HD
BRANCH  24  26
ATOM     26  C   UNL     1      -0.525  12.994  22.272  0.00  0.00    +0.000 C 
BRANCH  26  27
ATOM     27  C   UNL     1      -1.834  13.269  22.966  0.00  0.00    +0.000 A 
ATOM     28  C   UNL     1      -2.644  12.217  23.456  0.00  0.00    +0.000 A 
ATOM     29  C   UNL     1      -3.960  12.460  23.868  0.00  0.00    +0.000 A 
ATOM     30  C   UNL     1      -4.427  13.749  23.753  0.00  0.00    +0.000 A 
ATOM     31  C   UNL     1      -3.612  14.790  23.364  0.00  0.00    +0.000 A 
ATOM     32  C   UNL     1      -2.307  14.592  22.994  0.00  0.00    +0.000 A 
ATOM     33  O   UNL     1      -4.296  15.962  23.240  0.00  0.00    +0.000 OA
ATOM     34  C   UNL     1      -5.625  15.414  23.176  0.00  0.00    +0.000 C 
ATOM     35  O   UNL     1      -5.724  14.154  23.874  0.00  0.00    +0.000 OA
ENDBRANCH  26  27
ENDBRANCH  24  26
ENDBRANCH  20  22
ENDBRANCH  19  20
ENDBRANCH   1  19
TORSDOF 8
ENDMDL
MODEL 5
REMARK VINA RESULT:      -8.4      1.658      2.631
REMARK  Name = 
REMARK  10 active torsions:
REMARK  status: ('A' for Active; 'I' for Inactive)
REMARK    1  A    between atoms: C_1  and  C_2
REMARK    2  A    between atoms: C_5  and  C_6
REMARK    3  A    between atoms: C_6  and  O_8
REMARK    4  A    between atoms: O_8  and  C_9
REMARK    5  A    between atoms: C_9  and  C_10
REMARK    6  A    between atoms: C_9  and  C_11
REMARK    7  A    between atoms: N_13  and  C_14
REMARK    8  A    between atoms: C_14  and  C_15
REMARK    9  A    between atoms: C_25  and  S_26
REMARK   10  A    between atoms: S_26  and  N_29
REMARK                            x       y       z     vdW  Elec       q    Type
REMARK                         _______ _______ _______ _____ _____    ______ ____
ROOT
ATOM      1  C   UNL     1       1.620   8.110  20.089  0.00  0.00    +0.000 C 
ATOM      2  O   UNL     1       1.391   8.686  21.150  0.00  0.00    +0.000 OA
ENDROOT
BRANCH   1   7
ATOM      3  C   UNL     1       3.269   2.567  20.546  0.00  0.00    +0.000 C 
ATOM      4  C   UNL     1       2.824   3.968  20.235  0.00  0.00    +0.000 A 
ATOM      5  C   UNL     1       1.695   4.456  20.917  0.00  0.00    +0.000 A 
ATOM      6  C   UNL     1       1.294   5.785  20.795  0.00  0.00    +0.000 A 
ATOM      7  C   UNL     1       2.033   6.681  20.015  0.00  0.00    +0.000 A 
ATOM      8  C   UNL     1       3.136   6.202  19.280  0.00  0.00    +0.000 A 
ATOM      9  C   UNL     1       3.520   4.842  19.374  0.00  0.00    +0.000 A 
BRANCH   9  10
ATOM     10  S   UNL     1       4.775   4.214  18.235  0.00  0.00    +0.000 S 
ATOM     11  O   UNL     1       5.958   3.972  19.033  0.00  0.00    +0.000 OA
ATOM     12  O   UNL     1       4.162   3.146  17.473  0.00  0.00    +0.000 OA
BRANCH  10  13
ATOM     13  N   UNL     1       5.080   5.488  17.160  0.00  0.00    +0.000 NA
ATOM     14  C   UNL     1       5.298   5.154  15.725  0.00  0.00    +0.000 C 
ATOM     15  C   UNL     1       6.790   4.936  15.443  0.00  0.00    +0.000 C 
ATOM     16  O   UNL     1       7.537   6.120  15.756  0.00  0.00    +0.000 OA
ATOM     17  C   UNL     1       7.427   6.444  17.147  0.00  0.00    +0.000 C 
ATOM     18  C   UNL     1       5.969   6.607  17.604  0.00  0.00    +0.000 C 
ENDBRANCH  10  13
ENDBRANCH   9  10
ENDBRANCH   1   7
BRANCH   1  19
ATOM     19  O   UNL     1       1.711   8.709  18.874  0.00  0.00    +0.000 OA
BRANCH  19  20
ATOM     20  C   UNL     1       1.380  10.111  18.874  0.00  0.00    +0.000 C 
ATOM     21  C   UNL     1       2.335  10.783  17.885  0.00  0.00    +0.000 C 
BRANCH  20  22
ATOM     22  C   UNL     1      -0.060  10.429  18.426  0.00  0.00    +0.000 C 
ATOM     23  O   UNL     1      -0.704   9.675  17.708  0.00  0.00    +0.000 OA
ATOM     24  N   UNL     1      -0.575  11.605  18.911  0.00  0.00    +0.000 N 
ATOM     25  H   UNL     1       0.023  12.196  19.479  0.00  0.00    +0.000 HD
BRANCH  24  26
ATOM     26  C   UNL     1      -1.982  11.941  18.785  0.00  0.00    +0.000 C 
BRANCH  26  27
ATOM     27  C   UNL     1      -2.516  12.326  20.141  0.00  0.00    +0.000 A 
ATOM     28  C   UNL     1      -3.846  12.778  20.309  0.00  0.00    +0.000 A 
ATOM     29  C   UNL     1      -4.256  13.366  21.510  0.00  0.00    +0.000 A 
ATOM     30  C   UNL     1      -3.308  13.500  22.500  0.00  0.00    +0.000 A 
ATOM     31  C   UNL     1      -2.039  12.978  22.372  0.00  0.00    +0.000 A 
ATOM     32  C   UNL     1      -1.621  12.360  21.223  0.00  0.00    +0.000 A 
ATOM     33  O   UNL     1      -1.242  13.295  23.431  0.00  0.00    +0.000 OA
ATOM     34  C   UNL     1      -2.026  14.384  23.954  0.00  0.00    +0.000 C 
ATOM     35  O   UNL     1      -3.428  14.241  23.639  0.00  0.00    +0.000 OA
ENDBRANCH  26  27
ENDBRANCH  24  26
ENDBRANCH  20  22
ENDBRANCH  19  20
ENDBRANCH   1  19
TORSDOF 8
ENDMDL
MODEL 6
REMARK VINA RESULT:      -8.4      2.190      2.820
REMARK  Name = 
REMARK  10 active torsions:
REMARK  status: ('A' for Active; 'I' for Inactive)
REMARK    1  A    between atoms: C_1  and  C_2
REMARK    2  A    between atoms: C_5  and  C_6
REMARK    3  A    between atoms: C_6  and  O_8
REMARK    4  A    between atoms: O_8  and  C_9
REMARK    5  A    between atoms: C_9  and  C_10
REMARK    6  A    between atoms: C_9  and  C_11
REMARK    7  A    between atoms: N_13  and  C_14
REMARK    8  A    between atoms: C_14  and  C_15
REMARK    9  A    between atoms: C_25  and  S_26
REMARK   10  A    between atoms: S_26  and  N_29
REMARK                            x       y       z     vdW  Elec       q    Type
REMARK                         _______ _______ _______ _____ _____    ______ ____
ROOT
ATOM      1  C   UNL     1       1.619   7.947  20.391  0.00  0.00    +0.000 C 
ATOM      2  O   UNL     1       1.717   8.536  21.464  0.00  0.00    +0.000 OA
ENDROOT
BRANCH   1   7
ATOM      3  C   UNL     1       3.230   2.373  20.417  0.00  0.00    +0.000 C 
ATOM      4  C   UNL     1       2.800   3.799  20.215  0.00  0.00    +0.000 A 
ATOM      5  C   UNL     1       1.655   4.235  20.905  0.00  0.00    +0.000 A 
ATOM      6  C   UNL     1       1.264   5.572  20.887  0.00  0.00    +0.000 A 
ATOM      7  C   UNL     1       2.028   6.527  20.206  0.00  0.00    +0.000 A 
ATOM      8  C   UNL     1       3.149   6.104  19.463  0.00  0.00    +0.000 A 
ATOM      9  C   UNL     1       3.524   4.738  19.451  0.00  0.00    +0.000 A 
BRANCH   9  10
ATOM     10  S   UNL     1       4.807   4.201  18.296  0.00  0.00    +0.000 S 
ATOM     11  O   UNL     1       5.986   3.949  19.096  0.00  0.00    +0.000 OA
ATOM     12  O   UNL     1       4.229   3.157  17.474  0.00  0.00    +0.000 OA
BRANCH  10  13
ATOM     13  N   UNL     1       5.090   5.534  17.291  0.00  0.00    +0.000 NA
ATOM     14  C   UNL     1       5.277   5.284  15.834  0.00  0.00    +0.000 C 
ATOM     15  C   UNL     1       6.763   5.084  15.509  0.00  0.00    +0.000 C 
ATOM     16  O   UNL     1       7.517   6.248  15.874  0.00  0.00    +0.000 OA
ATOM     17  C   UNL     1       7.436   6.492  17.284  0.00  0.00    +0.000 C 
ATOM     18  C   UNL     1       5.988   6.627  17.779  0.00  0.00    +0.000 C 
ENDBRANCH  10  13
ENDBRANCH   9  10
ENDBRANCH   1   7
BRANCH   1  19
ATOM     19  O   UNL     1       1.312   8.525  19.201  0.00  0.00    +0.000 OA
BRANCH  19  20
ATOM     20  C   UNL     1       1.691   9.911  19.096  0.00  0.00    +0.000 C 
ATOM     21  C   UNL     1       2.129  10.133  17.648  0.00  0.00    +0.000 C 
BRANCH  20  22
ATOM     22  C   UNL     1       0.558  10.910  19.403  0.00  0.00    +0.000 C 
ATOM     23  O   UNL     1       0.429  11.438  20.500  0.00  0.00    +0.000 OA
ATOM     24  N   UNL     1      -0.280  11.181  18.350  0.00  0.00    +0.000 N 
ATOM     25  H   UNL     1      -0.133  10.688  17.477  0.00  0.00    +0.000 HD
BRANCH  24  26
ATOM     26  C   UNL     1      -1.246  12.264  18.393  0.00  0.00    +0.000 C 
BRANCH  26  27
ATOM     27  C   UNL     1      -2.635  11.680  18.433  0.00  0.00    +0.000 A 
ATOM     28  C   UNL     1      -3.036  10.667  17.530  0.00  0.00    +0.000 A 
ATOM     29  C   UNL     1      -4.383  10.311  17.406  0.00  0.00    +0.000 A 
ATOM     30  C   UNL     1      -5.289  10.999  18.180  0.00  0.00    +0.000 A 
ATOM     31  C   UNL     1      -4.892  11.920  19.126  0.00  0.00    +0.000 A 
ATOM     32  C   UNL     1      -3.576  12.260  19.300  0.00  0.00    +0.000 A 
ATOM     33  O   UNL     1      -5.951  12.540  19.718  0.00  0.00    +0.000 OA
ATOM     34  C   UNL     1      -6.953  12.207  18.740  0.00  0.00    +0.000 C 
ATOM     35  O   UNL     1      -6.647  10.976  18.050  0.00  0.00    +0.000 OA
ENDBRANCH  26  27
ENDBRANCH  24  26
ENDBRANCH  20  22
ENDBRANCH  19  20
ENDBRANCH   1  19
TORSDOF 8
ENDMDL
MODEL 7
REMARK VINA RESULT:      -8.4      0.714      1.313
REMARK  Name = 
REMARK  10 active torsions:
REMARK  status: ('A' for Active; 'I' for Inactive)
REMARK    1  A    between atoms: C_1  and  C_2
REMARK    2  A    between atoms: C_5  and  C_6
REMARK    3  A    between atoms: C_6  and  O_8
REMARK    4  A    between atoms: O_8  and  C_9
REMARK    5  A    between atoms: C_9  and  C_10
REMARK    6  A    between atoms: C_9  and  C_11
REMARK    7  A    between atoms: N_13  and  C_14
REMARK    8  A    between atoms: C_14  and  C_15
REMARK    9  A    between atoms: C_25  and  S_26
REMARK   10  A    between atoms: S_26  and  N_29
REMARK                            x       y       z     vdW  Elec       q    Type
REMARK                         _______ _______ _______ _____ _____    ______ ____
ROOT
ATOM      1  C   UNL     1       1.810   8.357  19.730  0.00  0.00    +0.000 C 
ATOM      2  O   UNL     1       1.967   9.040  18.722  0.00  0.00    +0.000 OA
ENDROOT
BRANCH   1   7
ATOM      3  C   UNL     1       3.159   2.796  20.688  0.00  0.00    +0.000 C 
ATOM      4  C   UNL     1       2.787   4.185  20.251  0.00  0.00    +0.000 A 
ATOM      5  C   UNL     1       1.698   4.796  20.896  0.00  0.00    +0.000 A 
ATOM      6  C   UNL     1       1.369   6.129  20.654  0.00  0.00    +0.000 A 
ATOM      7  C   UNL     1       2.143   6.906  19.786  0.00  0.00    +0.000 A 
ATOM      8  C   UNL     1       3.207   6.300  19.088  0.00  0.00    +0.000 A 
ATOM      9  C   UNL     1       3.517   4.934  19.305  0.00  0.00    +0.000 A 
BRANCH   9  10
ATOM     10  S   UNL     1       4.718   4.134  18.216  0.00  0.00    +0.000 S 
ATOM     11  O   UNL     1       5.912   3.939  19.011  0.00  0.00    +0.000 OA
ATOM     12  O   UNL     1       4.047   3.011  17.596  0.00  0.00    +0.000 OA
BRANCH  10  13
ATOM     13  N   UNL     1       5.039   5.265  16.997  0.00  0.00    +0.000 NA
ATOM     14  C   UNL     1       5.304   4.754  15.623  0.00  0.00    +0.000 C 
ATOM     15  C   UNL     1       6.806   4.527  15.413  0.00  0.00    +0.000 C 
ATOM     16  O   UNL     1       7.529   5.753  15.593  0.00  0.00    +0.000 OA
ATOM     17  C   UNL     1       7.373   6.251  16.928  0.00  0.00    +0.000 C 
ATOM     18  C   UNL     1       5.900   6.446  17.319  0.00  0.00    +0.000 C 
ENDBRANCH  10  13
ENDBRANCH   9  10
ENDBRANCH   1   7
BRANCH   1  19
ATOM     19  O   UNL     1       1.158   8.752  20.854  0.00  0.00    +0.000 OA
BRANCH  19  20
ATOM     20  C   UNL     1       0.558  10.059  20.767  0.00  0.00    +0.000 C 
ATOM     21  C   UNL     1      -0.510   9.974  19.676  0.00  0.00    +0.000 C 
BRANCH  20  22
ATOM     22  C   UNL     1      -0.129  10.535  22.063  0.00  0.00    +0.000 C 
ATOM     23  O   UNL     1       0.204  10.129  23.168  0.00  0.00    +0.000 OA
ATOM     24  N   UNL     1      -1.125  11.464  21.886  0.00  0.00    +0.000 N 
ATOM     25  H   UNL     1      -1.368  11.736  20.940  0.00  0.00    +0.000 HD
BRANCH  24  26
ATOM     26  C   UNL     1      -1.710  12.188  23.000  0.00  0.00    +0.000 C 
BRANCH  26  27
ATOM     27  C   UNL     1      -3.159  12.466  22.695  0.00  0.00    +0.000 A 
ATOM     28  C   UNL     1      -3.589  12.786  21.386  0.00  0.00    +0.000 A 
ATOM     29  C   UNL     1      -4.877  13.284  21.157  0.00  0.00    +0.000 A 
ATOM     30  C   UNL     1      -5.685  13.466  22.256  0.00  0.00    +0.000 A 
ATOM     31  C   UNL     1      -5.301  13.070  23.520  0.00  0.00    +0.000 A 
ATOM     32  C   UNL     1      -4.062  12.540  23.769  0.00  0.00    +0.000 A 
ATOM     33  O   UNL     1      -6.215  13.418  24.469  0.00  0.00    +0.000 OA
ATOM     34  C   UNL     1      -6.931  14.406  23.706  0.00  0.00    +0.000 C 
ATOM     35  O   UNL     1      -6.867  14.147  22.288  0.00  0.00    +0.000 OA
ENDBRANCH  26  27
ENDBRANCH  24  26
ENDBRANCH  20  22
ENDBRANCH  19  20
ENDBRANCH   1  19
TORSDOF 8
ENDMDL
MODEL 8
REMARK VINA RESULT:      -8.4      3.081     11.025
REMARK  Name = 
REMARK  10 active torsions:
REMARK  status: ('A' for Active; 'I' for Inactive)
REMARK    1  A    between atoms: C_1  and  C_2
REMARK    2  A    between atoms: C_5  and  C_6
REMARK    3  A    between atoms: C_6  and  O_8
REMARK    4  A    between atoms: O_8  and  C_9
REMARK    5  A    between atoms: C_9  and  C_10
REMARK    6  A    between atoms: C_9  and  C_11
REMARK    7  A    between atoms: N_13  and  C_14
REMARK    8  A    between atoms: C_14  and  C_15
REMARK    9  A    between atoms: C_25  and  S_26
REMARK   10  A    between atoms: S_26  and  N_29
REMARK                            x       y       z     vdW  Elec       q    Type
REMARK                         _______ _______ _______ _____ _____    ______ ____
ROOT
ATOM      1  C   UNL     1       1.752   9.297  18.263  0.00  0.00    +0.000 C 
ATOM      2  O   UNL     1       2.479   8.842  17.384  0.00  0.00    +0.000 OA
ENDROOT
BRANCH   1   7
ATOM      3  C   UNL     1       2.112  14.945  19.539  0.00  0.00    +0.000 C 
ATOM      4  C   UNL     1       1.829  13.516  19.169  0.00  0.00    +0.000 A 
ATOM      5  C   UNL     1       2.613  12.943  18.153  0.00  0.00    +0.000 A 
ATOM      6  C   UNL     1       2.515  11.589  17.840  0.00  0.00    +0.000 A 
ATOM      7  C   UNL     1       1.655  10.753  18.561  0.00  0.00    +0.000 A 
ATOM      8  C   UNL     1       0.820  11.316  19.547  0.00  0.00    +0.000 A 
ATOM      9  C   UNL     1       0.892  12.701  19.838  0.00  0.00    +0.000 A 
BRANCH   9  10
ATOM     10  S   UNL     1      -0.358  13.426  20.924  0.00  0.00    +0.000 S 
ATOM     11  O   UNL     1       0.300  13.667  22.190  0.00  0.00    +0.000 OA
ATOM     12  O   UNL     1      -0.980  14.510  20.191  0.00  0.00    +0.000 OA
BRANCH  10  13
ATOM     13  N   UNL     1      -1.529  12.219  21.125  0.00  0.00    +0.000 NA
ATOM     14  C   UNL     1      -2.889  12.464  20.569  0.00  0.00    +0.000 C 
ATOM     15  C   UNL     1      -3.792  13.117  21.622  0.00  0.00    +0.000 C 
ATOM     16  O   UNL     1      -3.915  12.270  22.773  0.00  0.00    +0.000 OA
ATOM     17  C   UNL     1      -2.642  12.063  23.397  0.00  0.00    +0.000 C 
ATOM     18  C   UNL     1      -1.594  11.490  22.431  0.00  0.00    +0.000 C 
ENDBRANCH  10  13
ENDBRANCH   9  10
ENDBRANCH   1   7
BRANCH   1  19
ATOM     19  O   UNL     1       1.088   8.563  19.193  0.00  0.00    +0.000 OA
BRANCH  19  20
ATOM     20  C   UNL     1       1.922   8.037  20.244  0.00  0.00    +0.000 C 
ATOM     21  C   UNL     1       1.181   8.294  21.556  0.00  0.00    +0.000 C 
BRANCH  20  22
ATOM     22  C   UNL     1       2.196   6.523  20.146  0.00  0.00    +0.000 C 
ATOM     23  O   UNL     1       1.394   5.687  20.540  0.00  0.00    +0.000 OA
ATOM     24  N   UNL     1       3.393   6.184  19.566  0.00  0.00    +0.000 N 
ATOM     25  H   UNL     1       4.022   6.929  19.287  0.00  0.00    +0.000 HD
BRANCH  24  26
ATOM     26  C   UNL     1       3.704   4.819  19.184  0.00  0.00    +0.000 C 
BRANCH  26  27
ATOM     27  C   UNL     1       4.934   4.823  18.313  0.00  0.00    +0.000 A 
ATOM     28  C   UNL     1       6.019   5.694  18.572  0.00  0.00    +0.000 A 
ATOM     29  C   UNL     1       7.036   5.872  17.628  0.00  0.00    +0.000 A 
ATOM     30  C   UNL     1       6.920   5.183  16.442  0.00  0.00    +0.000 A 
ATOM     31  C   UNL     1       5.915   4.265  16.225  0.00  0.00    +0.000 A 
ATOM     32  C   UNL     1       4.927   4.039  17.147  0.00  0.00    +0.000 A 
ATOM     33  O   UNL     1       5.941   3.762  14.959  0.00  0.00    +0.000 OA
ATOM     34  C   UNL     1       6.768   4.774  14.357  0.00  0.00    +0.000 C 
ATOM     35  O   UNL     1       7.660   5.384  15.314  0.00  0.00    +0.000 OA
ENDBRANCH  26  27
ENDBRANCH  24  26
ENDBRANCH  20  22
ENDBRANCH  19  20
ENDBRANCH   1  19
TORSDOF 8
ENDMDL
MODEL 9
REMARK VINA RESULT:      -8.3      1.701      2.226
REMARK  Name = 
REMARK  10 active torsions:
REMARK  status: ('A' for Active; 'I' for Inactive)
REMARK    1  A    between atoms: C_1  and  C_2
REMARK    2  A    between atoms: C_5  and  C_6
REMARK    3  A    between atoms: C_6  and  O_8
REMARK    4  A    between atoms: O_8  and  C_9
REMARK    5  A    between atoms: C_9  and  C_10
REMARK    6  A    between atoms: C_9  and  C_11
REMARK    7  A    between atoms: N_13  and  C_14
REMARK    8  A    between atoms: C_14  and  C_15
REMARK    9  A    between atoms: C_25  and  S_26
REMARK   10  A    between atoms: S_26  and  N_29
REMARK                            x       y       z     vdW  Elec       q    Type
REMARK                         _______ _______ _______ _____ _____    ______ ____
ROOT
ATOM      1  C   UNL     1       1.491   7.881  20.169  0.00  0.00    +0.000 C 
ATOM      2  O   UNL     1       1.882   8.773  19.421  0.00  0.00    +0.000 OA
ENDROOT
BRANCH   1   7
ATOM      3  C   UNL     1       3.402   2.417  20.562  0.00  0.00    +0.000 C 
ATOM      4  C   UNL     1       2.895   3.801  20.266  0.00  0.00    +0.000 A 
ATOM      5  C   UNL     1       1.730   4.220  20.933  0.00  0.00    +0.000 A 
ATOM      6  C   UNL     1       1.266   5.530  20.827  0.00  0.00    +0.000 A 
ATOM      7  C   UNL     1       1.975   6.476  20.078  0.00  0.00    +0.000 A 
ATOM      8  C   UNL     1       3.115   6.065  19.358  0.00  0.00    +0.000 A 
ATOM      9  C   UNL     1       3.564   4.724  19.435  0.00  0.00    +0.000 A 
BRANCH   9  10
ATOM     10  S   UNL     1       4.871   4.179  18.311  0.00  0.00    +0.000 S 
ATOM     11  O   UNL     1       6.045   3.971  19.131  0.00  0.00    +0.000 OA
ATOM     12  O   UNL     1       4.322   3.105  17.510  0.00  0.00    +0.000 OA
BRANCH  10  13
ATOM     13  N   UNL     1       5.142   5.491  17.274  0.00  0.00    +0.000 NA
ATOM     14  C   UNL     1       5.311   5.209  15.821  0.00  0.00    +0.000 C 
ATOM     15  C   UNL     1       6.793   5.001  15.482  0.00  0.00    +0.000 C 
ATOM     16  O   UNL     1       7.553   6.171  15.812  0.00  0.00    +0.000 OA
ATOM     17  C   UNL     1       7.490   6.445  17.217  0.00  0.00    +0.000 C 
ATOM     18  C   UNL     1       6.048   6.592  17.728  0.00  0.00    +0.000 C 
ENDBRANCH  10  13
ENDBRANCH   9  10
ENDBRANCH   1   7
BRANCH   1  19
ATOM     19  O   UNL     1       0.456   7.985  21.042  0.00  0.00    +0.000 OA
BRANCH  19  20
ATOM     20  C   UNL     1       0.489   9.165  21.869  0.00  0.00    +0.000 C 
ATOM     21  C   UNL     1       1.876   9.205  22.512  0.00  0.00    +0.000 C 
BRANCH  20  22
ATOM     22  C   UNL     1       0.286  10.488  21.105  0.00  0.00    +0.000 C 
ATOM     23  O   UNL     1       0.938  11.493  21.352  0.00  0.00    +0.000 OA
ATOM     24  N   UNL     1      -0.663  10.448  20.113  0.00  0.00    +0.000 N 
ATOM     25  H   UNL     1      -1.186   9.589  19.980  0.00  0.00    +0.000 HD
BRANCH  24  26
ATOM     26  C   UNL     1      -0.815  11.522  19.148  0.00  0.00    +0.000 C 
BRANCH  26  27
ATOM     27  C   UNL     1      -2.261  11.945  19.112  0.00  0.00    +0.000 A 
ATOM     28  C   UNL     1      -2.859  12.623  20.200  0.00  0.00    +0.000 A 
ATOM     29  C   UNL     1      -4.247  12.787  20.265  0.00  0.00    +0.000 A 
ATOM     30  C   UNL     1      -4.993  12.245  19.243  0.00  0.00    +0.000 A 
ATOM     31  C   UNL     1      -4.407  11.666  18.137  0.00  0.00    +0.000 A 
ATOM     32  C   UNL     1      -3.048  11.527  18.025  0.00  0.00    +0.000 A 
ATOM     33  O   UNL     1      -5.327  11.123  17.291  0.00  0.00    +0.000 OA
ATOM     34  C   UNL     1      -6.436  11.068  18.207  0.00  0.00    +0.000 C 
ATOM     35  O   UNL     1      -6.348  12.087  19.225  0.00  0.00    +0.000 OA
ENDBRANCH  26  27
ENDBRANCH  24  26
ENDBRANCH  20  22
ENDBRANCH  19  20
ENDBRANCH   1  19
TORSDOF 8
ENDMDL
