MODEL 1
REMARK VINA RESULT:      -6.5      0.000      0.000
REMARK  Name = 
REMARK  10 active torsions:
REMARK  status: ('A' for Active; 'I' for Inactive)
REMARK    1  A    between atoms: C_1  and  O_2
REMARK    2  A    between atoms: O_2  and  C_3
REMARK    3  A    between atoms: C_9  and  N_10
REMARK    4  A    between atoms: C_14  and  C_15
REMARK    5  A    between atoms: C_16  and  C_17
REMARK    6  A    between atoms: C_20  and  S_21
REMARK    7  A    between atoms: S_21  and  C_24
REMARK    8  A    between atoms: C_24  and  C_25
REMARK    9  A    between atoms: C_24  and  C_26
REMARK   10  A    between atoms: C_24  and  C_27
REMARK                            x       y       z     vdW  Elec       q    Type
REMARK                         _______ _______ _______ _____ _____    ______ ____
ROOT
ATOM      1  C   UNL     1      -0.152  10.344  18.376  0.00  0.00    +0.000 A 
ATOM      2  C   UNL     1      -1.025  10.166  17.289  0.00  0.00    +0.000 A 
ATOM      3  C   UNL     1      -2.319  10.654  17.274  0.00  0.00    +0.000 A 
ATOM      4  N   UNL     1      -3.002  10.528  16.129  0.00  0.00    +0.000 NA
ATOM      5  C   UNL     1      -4.215  11.097  16.054  0.00  0.00    +0.000 A 
ATOM      6  C   UNL     1      -4.797  11.780  17.098  0.00  0.00    +0.000 A 
ATOM      7  C   UNL     1      -4.114  11.891  18.314  0.00  0.00    +0.000 A 
ATOM      8  C   UNL     1      -2.823  11.298  18.418  0.00  0.00    +0.000 A 
ATOM      9  C   UNL     1      -1.996  11.335  19.563  0.00  0.00    +0.000 A 
ATOM     10  C   UNL     1      -0.665  10.859  19.556  0.00  0.00    +0.000 A 
ENDROOT
BRANCH   7  11
ATOM     11  N   UNL     1      -4.642  12.704  19.356  0.00  0.00    +0.000 N 
ATOM     12  C   UNL     1      -5.538  12.354  20.314  0.00  0.00    +0.000 A 
ATOM     13  N   UNL     1      -6.143  11.170  20.441  0.00  0.00    +0.000 NA
ATOM     14  N   UNL     1      -7.006  11.332  21.445  0.00  0.00    +0.000 N 
ATOM     15  C   UNL     1      -6.988  12.581  21.989  0.00  0.00    +0.000 A 
ATOM     16  C   UNL     1      -7.916  12.976  23.071  0.00  0.00    +0.000 C 
ATOM     17  C   UNL     1      -6.000  13.271  21.308  0.00  0.00    +0.000 A 
ATOM     18  C   UNL     1      -5.546  14.664  21.544  0.00  0.00    +0.000 C 
ATOM     19  H   UNL     1      -4.449  13.686  19.235  0.00  0.00    +0.000 HD
ATOM     20  H   UNL     1      -7.596  10.546  21.696  0.00  0.00    +0.000 HD
ENDBRANCH   7  11
BRANCH  10  21
ATOM     21  S   UNL     1       0.135  11.043  21.133  0.00  0.00    +0.000 S 
ATOM     22  O   UNL     1       1.476  11.491  20.793  0.00  0.00    +0.000 OA
ATOM     23  O   UNL     1      -0.729  11.961  21.865  0.00  0.00    +0.000 OA
BRANCH  21  24
ATOM     24  C   UNL     1       0.340   9.583  22.172  0.00  0.00    +0.000 C 
ATOM     25  C   UNL     1       1.799   9.393  22.609  0.00  0.00    +0.000 C 
ATOM     26  C   UNL     1      -0.501   9.837  23.460  0.00  0.00    +0.000 C 
ATOM     27  C   UNL     1      -0.247   8.315  21.541  0.00  0.00    +0.000 C 
ENDBRANCH  21  24
ENDBRANCH  10  21
BRANCH   1  29
ATOM     28  C   UNL     1       1.481   8.636  18.327  0.00  0.00    +0.000 C 
ATOM     29  O   UNL     1       1.168  10.035  18.254  0.00  0.00    +0.000 OA
ENDBRANCH   1  29
TORSDOF 4
ENDMDL
MODEL 2
REMARK VINA RESULT:      -6.3      2.476      3.995
REMARK  Name = 
REMARK  10 active torsions:
REMARK  status: ('A' for Active; 'I' for Inactive)
REMARK    1  A    between atoms: C_1  and  O_2
REMARK    2  A    between atoms: O_2  and  C_3
REMARK    3  A    between atoms: C_9  and  N_10
REMARK    4  A    between atoms: C_14  and  C_15
REMARK    5  A    between atoms: C_16  and  C_17
REMARK    6  A    between atoms: C_20  and  S_21
REMARK    7  A    between atoms: S_21  and  C_24
REMARK    8  A    between atoms: C_24  and  C_25
REMARK    9  A    between atoms: C_24  and  C_26
REMARK   10  A    between atoms: C_24  and  C_27
REMARK                            x       y       z     vdW  Elec       q    Type
REMARK                         _______ _______ _______ _____ _____    ______ ____
ROOT
ATOM      1  C   UNL     1      -3.292  11.356  17.009  0.00  0.00    +0.000 A 
ATOM      2  C   UNL     1      -4.675  11.579  16.892  0.00  0.00    +0.000 A 
ATOM      3  C   UNL     1      -5.490  11.851  17.975  0.00  0.00    +0.000 A 
ATOM      4  N   UNL     1      -6.764  12.170  17.711  0.00  0.00    +0.000 NA
ATOM      5  C   UNL     1      -7.542  12.551  18.735  0.00  0.00    +0.000 A 
ATOM      6  C   UNL     1      -7.104  12.608  20.039  0.00  0.00    +0.000 A 
ATOM      7  C   UNL     1      -5.787  12.244  20.339  0.00  0.00    +0.000 A 
ATOM      8  C   UNL     1      -4.939  11.838  19.269  0.00  0.00    +0.000 A 
ATOM      9  C   UNL     1      -3.584  11.460  19.397  0.00  0.00    +0.000 A 
ATOM     10  C   UNL     1      -2.754  11.213  18.279  0.00  0.00    +0.000 A 
ENDROOT
BRANCH   7  11
ATOM     11  N   UNL     1      -5.281  12.424  21.657  0.00  0.00    +0.000 N 
ATOM     12  C   UNL     1      -4.890  13.580  22.250  0.00  0.00    +0.000 A 
ATOM     13  N   UNL     1      -4.863  14.792  21.688  0.00  0.00    +0.000 NA
ATOM     14  N   UNL     1      -4.311  15.584  22.607  0.00  0.00    +0.000 N 
ATOM     15  C   UNL     1      -3.977  14.939  23.760  0.00  0.00    +0.000 A 
ATOM     16  C   UNL     1      -3.297  15.633  24.875  0.00  0.00    +0.000 C 
ATOM     17  C   UNL     1      -4.388  13.629  23.587  0.00  0.00    +0.000 A 
ATOM     18  C   UNL     1      -4.297  12.518  24.567  0.00  0.00    +0.000 C 
ATOM     19  H   UNL     1      -5.028  11.559  22.110  0.00  0.00    +0.000 HD
ATOM     20  H   UNL     1      -4.173  16.561  22.371  0.00  0.00    +0.000 HD
ENDBRANCH   7  11
BRANCH  10  21
ATOM     21  S   UNL     1      -1.098  10.765  18.743  0.00  0.00    +0.000 S 
ATOM     22  O   UNL     1      -1.259  10.131  20.043  0.00  0.00    +0.000 OA
ATOM     23  O   UNL     1      -0.627   9.943  17.635  0.00  0.00    +0.000 OA
BRANCH  21  24
ATOM     24  C   UNL     1       0.120  12.077  18.970  0.00  0.00    +0.000 C 
ATOM     25  C   UNL     1      -0.300  13.374  18.264  0.00  0.00    +0.000 C 
ATOM     26  C   UNL     1       0.166  12.375  20.500  0.00  0.00    +0.000 C 
ATOM     27  C   UNL     1       1.541  11.643  18.593  0.00  0.00    +0.000 C 
ENDBRANCH  21  24
ENDBRANCH  10  21
BRANCH   1  29
ATOM     28  C   UNL     1      -2.905  10.350  14.907  0.00  0.00    +0.000 C 
ATOM     29  O   UNL     1      -2.507  11.307  15.898  0.00  0.00    +0.000 OA
ENDBRANCH   1  29
TORSDOF 4
ENDMDL
MODEL 3
REMARK VINA RESULT:      -6.3      1.830      2.382
REMARK  Name = 
REMARK  10 active torsions:
REMARK  status: ('A' for Active; 'I' for Inactive)
REMARK    1  A    between atoms: C_1  and  O_2
REMARK    2  A    between atoms: O_2  and  C_3
REMARK    3  A    between atoms: C_9  and  N_10
REMARK    4  A    between atoms: C_14  and  C_15
REMARK    5  A    between atoms: C_16  and  C_17
REMARK    6  A    between atoms: C_20  and  S_21
REMARK    7  A    between atoms: S_21  and  C_24
REMARK    8  A    between atoms: C_24  and  C_25
REMARK    9  A    between atoms: C_24  and  C_26
REMARK   10  A    between atoms: C_24  and  C_27
REMARK                            x       y       z     vdW  Elec       q    Type
REMARK                         _______ _______ _______ _____ _____    ______ ____
ROOT
ATOM      1  C   UNL     1      -0.110  10.868  18.761  0.00  0.00    +0.000 A 
ATOM      2  C   UNL     1      -1.024  10.307  17.852  0.00  0.00    +0.000 A 
ATOM      3  C   UNL     1      -2.358  10.666  17.805  0.00  0.00    +0.000 A 
ATOM      4  N   UNL     1      -3.091  10.151  16.809  0.00  0.00    +0.000 NA
ATOM      5  C   UNL     1      -4.356  10.576  16.675  0.00  0.00    +0.000 A 
ATOM      6  C   UNL     1      -4.942  11.491  17.521  0.00  0.00    +0.000 A 
ATOM      7  C   UNL     1      -4.204  12.012  18.588  0.00  0.00    +0.000 A 
ATOM      8  C   UNL     1      -2.857  11.580  18.751  0.00  0.00    +0.000 A 
ATOM      9  C   UNL     1      -1.972  12.021  19.760  0.00  0.00    +0.000 A 
ATOM     10  C   UNL     1      -0.603  11.670  19.779  0.00  0.00    +0.000 A 
ENDROOT
BRANCH   7  11
ATOM     11  N   UNL     1      -4.749  13.055  19.389  0.00  0.00    +0.000 N 
ATOM     12  C   UNL     1      -5.499  12.938  20.514  0.00  0.00    +0.000 A 
ATOM     13  N   UNL     1      -5.916  11.799  21.075  0.00  0.00    +0.000 NA
ATOM     14  N   UNL     1      -6.702  12.181  22.083  0.00  0.00    +0.000 N 
ATOM     15  C   UNL     1      -6.814  13.533  22.210  0.00  0.00    +0.000 A 
ATOM     16  C   UNL     1      -7.691  14.152  23.228  0.00  0.00    +0.000 C 
ATOM     17  C   UNL     1      -5.997  14.069  21.229  0.00  0.00    +0.000 A 
ATOM     18  C   UNL     1      -5.727  15.504  20.966  0.00  0.00    +0.000 C 
ATOM     19  H   UNL     1      -4.708  13.961  18.949  0.00  0.00    +0.000 HD
ATOM     20  H   UNL     1      -7.150  11.458  22.636  0.00  0.00    +0.000 HD
ENDBRANCH   7  11
BRANCH  10  21
ATOM     21  S   UNL     1       0.265  12.377  21.160  0.00  0.00    +0.000 S 
ATOM     22  O   UNL     1      -0.794  12.749  22.084  0.00  0.00    +0.000 OA
ATOM     23  O   UNL     1       1.195  11.331  21.569  0.00  0.00    +0.000 OA
BRANCH  21  24
ATOM     24  C   UNL     1       1.246  13.867  20.891  0.00  0.00    +0.000 C 
ATOM     25  C   UNL     1       2.736  13.545  20.711  0.00  0.00    +0.000 C 
ATOM     26  C   UNL     1       0.741  14.492  19.556  0.00  0.00    +0.000 C 
ATOM     27  C   UNL     1       1.009  14.937  21.962  0.00  0.00    +0.000 C 
ENDBRANCH  21  24
ENDBRANCH  10  21
BRANCH   1  29
ATOM     28  C   UNL     1       1.573   9.454  17.895  0.00  0.00    +0.000 C 
ATOM     29  O   UNL     1       1.225  10.640  18.622  0.00  0.00    +0.000 OA
ENDBRANCH   1  29
TORSDOF 4
ENDMDL
MODEL 4
REMARK VINA RESULT:      -6.3      2.779      5.027
REMARK  Name = 
REMARK  10 active torsions:
REMARK  status: ('A' for Active; 'I' for Inactive)
REMARK    1  A    between atoms: C_1  and  O_2
REMARK    2  A    between atoms: O_2  and  C_3
REMARK    3  A    between atoms: C_9  and  N_10
REMARK    4  A    between atoms: C_14  and  C_15
REMARK    5  A    between atoms: C_16  and  C_17
REMARK    6  A    between atoms: C_20  and  S_21
REMARK    7  A    between atoms: S_21  and  C_24
REMARK    8  A    between atoms: C_24  and  C_25
REMARK    9  A    between atoms: C_24  and  C_26
REMARK   10  A    between atoms: C_24  and  C_27
REMARK                            x       y       z     vdW  Elec       q    Type
REMARK                         _______ _______ _______ _____ _____    ______ ____
ROOT
ATOM      1  C   UNL     1      -1.439  11.783  22.444  0.00  0.00    +0.000 A 
ATOM      2  C   UNL     1      -2.381  12.033  23.456  0.00  0.00    +0.000 A 
ATOM      3  C   UNL     1      -3.684  12.418  23.195  0.00  0.00    +0.000 A 
ATOM      4  N   UNL     1      -4.514  12.500  24.243  0.00  0.00    +0.000 NA
ATOM      5  C   UNL     1      -5.808  12.757  24.001  0.00  0.00    +0.000 A 
ATOM      6  C   UNL     1      -6.317  12.963  22.739  0.00  0.00    +0.000 A 
ATOM      7  C   UNL     1      -5.458  12.918  21.636  0.00  0.00    +0.000 A 
ATOM      8  C   UNL     1      -4.080  12.643  21.865  0.00  0.00    +0.000 A 
ATOM      9  C   UNL     1      -3.088  12.543  20.864  0.00  0.00    +0.000 A 
ATOM     10  C   UNL     1      -1.768  12.120  21.140  0.00  0.00    +0.000 A 
ENDROOT
BRANCH   7  11
ATOM     11  N   UNL     1      -5.988  12.996  20.317  0.00  0.00    +0.000 N 
ATOM     12  C   UNL     1      -6.088  14.091  19.522  0.00  0.00    +0.000 A 
ATOM     13  N   UNL     1      -5.741  15.341  19.843  0.00  0.00    +0.000 NA
ATOM     14  N   UNL     1      -6.118  16.081  18.800  0.00  0.00    +0.000 N 
ATOM     15  C   UNL     1      -6.698  15.363  17.798  0.00  0.00    +0.000 A 
ATOM     16  C   UNL     1      -7.240  16.011  16.584  0.00  0.00    +0.000 C 
ATOM     17  C   UNL     1      -6.651  14.042  18.210  0.00  0.00    +0.000 A 
ATOM     18  C   UNL     1      -7.113  12.847  17.461  0.00  0.00    +0.000 C 
ATOM     19  H   UNL     1      -6.500  12.172  20.041  0.00  0.00    +0.000 HD
ATOM     20  H   UNL     1      -5.966  17.082  18.849  0.00  0.00    +0.000 HD
ENDBRANCH   7  11
BRANCH  10  21
ATOM     21  S   UNL     1      -0.744  12.082  19.687  0.00  0.00    +0.000 S 
ATOM     22  O   UNL     1       0.052  10.876  19.853  0.00  0.00    +0.000 OA
ATOM     23  O   UNL     1      -1.694  12.129  18.582  0.00  0.00    +0.000 OA
BRANCH  21  24
ATOM     24  C   UNL     1       0.429  13.426  19.421  0.00  0.00    +0.000 C 
ATOM     25  C   UNL     1      -0.271  14.713  18.962  0.00  0.00    +0.000 C 
ATOM     26  C   UNL     1       1.081  13.721  20.806  0.00  0.00    +0.000 C 
ATOM     27  C   UNL     1       1.587  13.033  18.497  0.00  0.00    +0.000 C 
ENDBRANCH  21  24
ENDBRANCH  10  21
BRANCH   1  29
ATOM     28  C   UNL     1      -0.319   9.840  23.189  0.00  0.00    +0.000 C 
ATOM     29  O   UNL     1      -0.245  11.203  22.745  0.00  0.00    +0.000 OA
ENDBRANCH   1  29
TORSDOF 4
ENDMDL
MODEL 5
REMARK VINA RESULT:      -6.3      2.809      5.119
REMARK  Name = 
REMARK  10 active torsions:
REMARK  status: ('A' for Active; 'I' for Inactive)
REMARK    1  A    between atoms: C_1  and  O_2
REMARK    2  A    between atoms: O_2  and  C_3
REMARK    3  A    between atoms: C_9  and  N_10
REMARK    4  A    between atoms: C_14  and  C_15
REMARK    5  A    between atoms: C_16  and  C_17
REMARK    6  A    between atoms: C_20  and  S_21
REMARK    7  A    between atoms: S_21  and  C_24
REMARK    8  A    between atoms: C_24  and  C_25
REMARK    9  A    between atoms: C_24  and  C_26
REMARK   10  A    between atoms: C_24  and  C_27
REMARK                            x       y       z     vdW  Elec       q    Type
REMARK                         _______ _______ _______ _____ _____    ______ ____
ROOT
ATOM      1  C   UNL     1      -1.828  12.009  22.700  0.00  0.00    +0.000 A 
ATOM      2  C   UNL     1      -2.881  12.202  23.611  0.00  0.00    +0.000 A 
ATOM      3  C   UNL     1      -4.169  12.518  23.219  0.00  0.00    +0.000 A 
ATOM      4  N   UNL     1      -5.105  12.548  24.177  0.00  0.00    +0.000 NA
ATOM      5  C   UNL     1      -6.380  12.737  23.805  0.00  0.00    +0.000 A 
ATOM      6  C   UNL     1      -6.768  12.923  22.497  0.00  0.00    +0.000 A 
ATOM      7  C   UNL     1      -5.800  12.931  21.487  0.00  0.00    +0.000 A 
ATOM      8  C   UNL     1      -4.439  12.730  21.855  0.00  0.00    +0.000 A 
ATOM      9  C   UNL     1      -3.347  12.690  20.960  0.00  0.00    +0.000 A 
ATOM     10  C   UNL     1      -2.041  12.337  21.370  0.00  0.00    +0.000 A 
ENDROOT
BRANCH   7  11
ATOM     11  N   UNL     1      -6.197  12.989  20.121  0.00  0.00    +0.000 N 
ATOM     12  C   UNL     1      -6.271  14.082  19.320  0.00  0.00    +0.000 A 
ATOM     13  N   UNL     1      -6.022  15.346  19.675  0.00  0.00    +0.000 NA
ATOM     14  N   UNL     1      -6.329  16.071  18.599  0.00  0.00    +0.000 N 
ATOM     15  C   UNL     1      -6.766  15.329  17.543  0.00  0.00    +0.000 A 
ATOM     16  C   UNL     1      -7.214  15.956  16.280  0.00  0.00    +0.000 C 
ATOM     17  C   UNL     1      -6.695  14.011  17.957  0.00  0.00    +0.000 A 
ATOM     18  C   UNL     1      -7.017  12.798  17.166  0.00  0.00    +0.000 C 
ATOM     19  H   UNL     1      -6.635  12.142  19.795  0.00  0.00    +0.000 HD
ATOM     20  H   UNL     1      -6.233  17.079  18.662  0.00  0.00    +0.000 HD
ENDBRANCH   7  11
BRANCH  10  21
ATOM     21  S   UNL     1      -0.874  12.363  20.029  0.00  0.00    +0.000 S 
ATOM     22  O   UNL     1      -0.281  11.035  20.056  0.00  0.00    +0.000 OA
ATOM     23  O   UNL     1      -1.675  12.732  18.867  0.00  0.00    +0.000 OA
BRANCH  21  24
ATOM     24  C   UNL     1       0.500  13.529  20.102  0.00  0.00    +0.000 C 
ATOM     25  C   UNL     1       1.857  12.812  20.137  0.00  0.00    +0.000 C 
ATOM     26  C   UNL     1       0.446  14.357  18.783  0.00  0.00    +0.000 C 
ATOM     27  C   UNL     1       0.355  14.551  21.236  0.00  0.00    +0.000 C 
ENDBRANCH  21  24
ENDBRANCH  10  21
BRANCH   1  29
ATOM     28  C   UNL     1      -0.609  10.065  23.261  0.00  0.00    +0.000 C 
ATOM     29  O   UNL     1      -0.642  11.492  23.121  0.00  0.00    +0.000 OA
ENDBRANCH   1  29
TORSDOF 4
ENDMDL
MODEL 6
REMARK VINA RESULT:      -6.2      4.537      7.849
REMARK  Name = 
REMARK  10 active torsions:
REMARK  status: ('A' for Active; 'I' for Inactive)
REMARK    1  A    between atoms: C_1  and  O_2
REMARK    2  A    between atoms: O_2  and  C_3
REMARK    3  A    between atoms: C_9  and  N_10
REMARK    4  A    between atoms: C_14  and  C_15
REMARK    5  A    between atoms: C_16  and  C_17
REMARK    6  A    between atoms: C_20  and  S_21
REMARK    7  A    between atoms: S_21  and  C_24
REMARK    8  A    between atoms: C_24  and  C_25
REMARK    9  A    between atoms: C_24  and  C_26
REMARK   10  A    between atoms: C_24  and  C_27
REMARK                            x       y       z     vdW  Elec       q    Type
REMARK                         _______ _______ _______ _____ _____    ______ ____
ROOT
ATOM      1  C   UNL     1       0.012  14.058  21.522  0.00  0.00    +0.000 A 
ATOM      2  C   UNL     1      -0.548  13.139  22.426  0.00  0.00    +0.000 A 
ATOM      3  C   UNL     1      -0.439  11.769  22.273  0.00  0.00    +0.000 A 
ATOM      4  N   UNL     1      -0.906  11.007  23.271  0.00  0.00    +0.000 NA
ATOM      5  C   UNL     1      -0.707   9.683  23.198  0.00  0.00    +0.000 A 
ATOM      6  C   UNL     1      -0.070   9.070  22.142  0.00  0.00    +0.000 A 
ATOM      7  C   UNL     1       0.392   9.845  21.074  0.00  0.00    +0.000 A 
ATOM      8  C   UNL     1       0.196  11.254  21.129  0.00  0.00    +0.000 A 
ATOM      9  C   UNL     1       0.618  12.177  20.146  0.00  0.00    +0.000 A 
ATOM     10  C   UNL     1       0.528  13.577  20.328  0.00  0.00    +0.000 A 
ENDROOT
BRANCH   7  11
ATOM     11  N   UNL     1       1.167   9.244  20.042  0.00  0.00    +0.000 N 
ATOM     12  C   UNL     1       1.663   7.982  19.998  0.00  0.00    +0.000 A 
ATOM     13  N   UNL     1       1.554   7.052  20.951  0.00  0.00    +0.000 NA
ATOM     14  N   UNL     1       2.281   6.024  20.513  0.00  0.00    +0.000 N 
ATOM     15  C   UNL     1       2.862   6.240  19.299  0.00  0.00    +0.000 A 
ATOM     16  C   UNL     1       3.758   5.243  18.673  0.00  0.00    +0.000 C 
ATOM     17  C   UNL     1       2.439   7.496  18.901  0.00  0.00    +0.000 A 
ATOM     18  C   UNL     1       2.752   8.192  17.628  0.00  0.00    +0.000 C 
ATOM     19  H   UNL     1       1.521   9.907  19.370  0.00  0.00    +0.000 HD
ATOM     20  H   UNL     1       2.354   5.206  21.107  0.00  0.00    +0.000 HD
ENDBRANCH   7  11
BRANCH  10  21
ATOM     21  S   UNL     1       1.142  14.488  18.931  0.00  0.00    +0.000 S 
ATOM     22  O   UNL     1       1.622  13.457  18.025  0.00  0.00    +0.000 OA
ATOM     23  O   UNL     1       0.006  15.298  18.507  0.00  0.00    +0.000 OA
BRANCH  21  24
ATOM     24  C   UNL     1       2.523  15.622  19.180  0.00  0.00    +0.000 C 
ATOM     25  C   UNL     1       3.493  15.114  20.256  0.00  0.00    +0.000 C 
ATOM     26  C   UNL     1       3.305  15.665  17.833  0.00  0.00    +0.000 C 
ATOM     27  C   UNL     1       2.071  17.064  19.440  0.00  0.00    +0.000 C 
ENDBRANCH  21  24
ENDBRANCH  10  21
BRANCH   1  29
ATOM     28  C   UNL     1      -1.200  16.065  21.810  0.00  0.00    +0.000 C 
ATOM     29  O   UNL     1       0.062  15.382  21.831  0.00  0.00    +0.000 OA
ENDBRANCH   1  29
TORSDOF 4
ENDMDL
MODEL 7
REMARK VINA RESULT:      -6.1      3.132      6.740
REMARK  Name = 
REMARK  10 active torsions:
REMARK  status: ('A' for Active; 'I' for Inactive)
REMARK    1  A    between atoms: C_1  and  O_2
REMARK    2  A    between atoms: O_2  and  C_3
REMARK    3  A    between atoms: C_9  and  N_10
REMARK    4  A    between atoms: C_14  and  C_15
REMARK    5  A    between atoms: C_16  and  C_17
REMARK    6  A    between atoms: C_20  and  S_21
REMARK    7  A    between atoms: S_21  and  C_24
REMARK    8  A    between atoms: C_24  and  C_25
REMARK    9  A    between atoms: C_24  and  C_26
REMARK   10  A    between atoms: C_24  and  C_27
REMARK                            x       y       z     vdW  Elec       q    Type
REMARK                         _______ _______ _______ _____ _____    ______ ____
ROOT
ATOM      1  C   UNL     1      -6.260  12.469  20.227  0.00  0.00    +0.000 A 
ATOM      2  C   UNL     1      -6.150  12.114  18.872  0.00  0.00    +0.000 A 
ATOM      3  C   UNL     1      -4.938  11.865  18.253  0.00  0.00    +0.000 A 
ATOM      4  N   UNL     1      -4.982  11.412  16.993  0.00  0.00    +0.000 NA
ATOM      5  C   UNL     1      -3.826  11.054  16.414  0.00  0.00    +0.000 A 
ATOM      6  C   UNL     1      -2.603  11.151  17.039  0.00  0.00    +0.000 A 
ATOM      7  C   UNL     1      -2.535  11.656  18.341  0.00  0.00    +0.000 A 
ATOM      8  C   UNL     1      -3.748  12.040  18.980  0.00  0.00    +0.000 A 
ATOM      9  C   UNL     1      -3.855  12.548  20.294  0.00  0.00    +0.000 A 
ATOM     10  C   UNL     1      -5.101  12.770  20.925  0.00  0.00    +0.000 A 
ENDROOT
BRANCH   7  11
ATOM     11  N   UNL     1      -1.299  11.638  19.048  0.00  0.00    +0.000 N 
ATOM     12  C   UNL     1      -0.351  12.608  19.094  0.00  0.00    +0.000 A 
ATOM     13  N   UNL     1      -0.373  13.772  18.439  0.00  0.00    +0.000 NA
ATOM     14  N   UNL     1       0.805  14.338  18.705  0.00  0.00    +0.000 N 
ATOM     15  C   UNL     1       1.603  13.589  19.518  0.00  0.00    +0.000 A 
ATOM     16  C   UNL     1       2.973  14.017  19.877  0.00  0.00    +0.000 C 
ATOM     17  C   UNL     1       0.860  12.466  19.839  0.00  0.00    +0.000 A 
ATOM     18  C   UNL     1       1.254  11.351  20.735  0.00  0.00    +0.000 C 
ATOM     19  H   UNL     1      -1.048  10.725  19.394  0.00  0.00    +0.000 HD
ATOM     20  H   UNL     1       1.008  15.235  18.279  0.00  0.00    +0.000 HD
ENDBRANCH   7  11
BRANCH  10  21
ATOM     21  S   UNL     1      -4.927  13.404  22.577  0.00  0.00    +0.000 S 
ATOM     22  O   UNL     1      -5.292  12.278  23.422  0.00  0.00    +0.000 OA
ATOM     23  O   UNL     1      -3.551  13.883  22.631  0.00  0.00    +0.000 OA
BRANCH  21  24
ATOM     24  C   UNL     1      -5.976  14.779  23.089  0.00  0.00    +0.000 C 
ATOM     25  C   UNL     1      -7.198  14.300  23.884  0.00  0.00    +0.000 C 
ATOM     26  C   UNL     1      -5.114  15.657  24.046  0.00  0.00    +0.000 C 
ATOM     27  C   UNL     1      -6.363  15.698  21.925  0.00  0.00    +0.000 C 
ENDBRANCH  21  24
ENDBRANCH  10  21
BRANCH   1  29
ATOM     28  C   UNL     1      -7.917  11.236  21.375  0.00  0.00    +0.000 C 
ATOM     29  O   UNL     1      -7.478  12.490  20.835  0.00  0.00    +0.000 OA
ENDBRANCH   1  29
TORSDOF 4
ENDMDL
MODEL 8
REMARK VINA RESULT:      -6.1      3.434      6.745
REMARK  Name = 
REMARK  10 active torsions:
REMARK  status: ('A' for Active; 'I' for Inactive)
REMARK    1  A    between atoms: C_1  and  O_2
REMARK    2  A    between atoms: O_2  and  C_3
REMARK    3  A    between atoms: C_9  and  N_10
REMARK    4  A    between atoms: C_14  and  C_15
REMARK    5  A    between atoms: C_16  and  C_17
REMARK    6  A    between atoms: C_20  and  S_21
REMARK    7  A    between atoms: S_21  and  C_24
REMARK    8  A    between atoms: C_24  and  C_25
REMARK    9  A    between atoms: C_24  and  C_26
REMARK   10  A    between atoms: C_24  and  C_27
REMARK                            x       y       z     vdW  Elec       q    Type
REMARK                         _______ _______ _______ _____ _____    ______ ____
ROOT
ATOM      1  C   UNL     1      -2.545  13.681  23.762  0.00  0.00    +0.000 A 
ATOM      2  C   UNL     1      -1.247  13.336  23.348  0.00  0.00    +0.000 A 
ATOM      3  C   UNL     1      -0.966  12.828  22.093  0.00  0.00    +0.000 A 
ATOM      4  N   UNL     1       0.326  12.661  21.781  0.00  0.00    +0.000 NA
ATOM      5  C   UNL     1       0.626  12.280  20.531  0.00  0.00    +0.000 A 
ATOM      6  C   UNL     1      -0.323  12.031  19.565  0.00  0.00    +0.000 A 
ATOM      7  C   UNL     1      -1.678  12.165  19.883  0.00  0.00    +0.000 A 
ATOM      8  C   UNL     1      -2.024  12.571  21.204  0.00  0.00    +0.000 A 
ATOM      9  C   UNL     1      -3.339  12.771  21.680  0.00  0.00    +0.000 A 
ATOM     10  C   UNL     1      -3.612  13.319  22.954  0.00  0.00    +0.000 A 
ENDROOT
BRANCH   7  11
ATOM     11  N   UNL     1      -2.664  12.041  18.864  0.00  0.00    +0.000 N 
ATOM     12  C   UNL     1      -2.622  11.265  17.752  0.00  0.00    +0.000 A 
ATOM     13  N   UNL     1      -1.609  10.484  17.367  0.00  0.00    +0.000 NA
ATOM     14  N   UNL     1      -1.975  10.009  16.176  0.00  0.00    +0.000 N 
ATOM     15  C   UNL     1      -3.197  10.447  15.762  0.00  0.00    +0.000 A 
ATOM     16  C   UNL     1      -3.751  10.082  14.441  0.00  0.00    +0.000 C 
ATOM     17  C   UNL     1      -3.680  11.234  16.793  0.00  0.00    +0.000 A 
ATOM     18  C   UNL     1      -4.996  11.917  16.866  0.00  0.00    +0.000 C 
ATOM     19  H   UNL     1      -3.378  12.752  18.909  0.00  0.00    +0.000 HD
ATOM     20  H   UNL     1      -1.326   9.402  15.687  0.00  0.00    +0.000 HD
ENDBRANCH   7  11
BRANCH  10  21
ATOM     21  S   UNL     1      -5.354  13.464  23.278  0.00  0.00    +0.000 S 
ATOM     22  O   UNL     1      -5.665  12.271  24.051  0.00  0.00    +0.000 OA
ATOM     23  O   UNL     1      -5.488  14.759  23.933  0.00  0.00    +0.000 OA
BRANCH  21  24
ATOM     24  C   UNL     1      -6.494  13.469  21.880  0.00  0.00    +0.000 C 
ATOM     25  C   UNL     1      -6.533  12.109  21.170  0.00  0.00    +0.000 C 
ATOM     26  C   UNL     1      -7.913  13.726  22.471  0.00  0.00    +0.000 C 
ATOM     27  C   UNL     1      -6.238  14.626  20.907  0.00  0.00    +0.000 C 
ENDBRANCH  21  24
ENDBRANCH  10  21
BRANCH   1  29
ATOM     28  C   UNL     1      -2.117  15.667  24.969  0.00  0.00    +0.000 C 
ATOM     29  O   UNL     1      -2.736  14.374  24.919  0.00  0.00    +0.000 OA
ENDBRANCH   1  29
TORSDOF 4
ENDMDL
MODEL 9
REMARK VINA RESULT:      -6.1      1.800      2.408
REMARK  Name = 
REMARK  10 active torsions:
REMARK  status: ('A' for Active; 'I' for Inactive)
REMARK    1  A    between atoms: C_1  and  O_2
REMARK    2  A    between atoms: O_2  and  C_3
REMARK    3  A    between atoms: C_9  and  N_10
REMARK    4  A    between atoms: C_14  and  C_15
REMARK    5  A    between atoms: C_16  and  C_17
REMARK    6  A    between atoms: C_20  and  S_21
REMARK    7  A    between atoms: S_21  and  C_24
REMARK    8  A    between atoms: C_24  and  C_25
REMARK    9  A    between atoms: C_24  and  C_26
REMARK   10  A    between atoms: C_24  and  C_27
REMARK                            x       y       z     vdW  Elec       q    Type
REMARK                         _______ _______ _______ _____ _____    ______ ____
ROOT
ATOM      1  C   UNL     1      -0.290  10.998  19.479  0.00  0.00    +0.000 A 
ATOM      2  C   UNL     1      -0.912  10.398  18.372  0.00  0.00    +0.000 A 
ATOM      3  C   UNL     1      -2.207  10.690  17.983  0.00  0.00    +0.000 A 
ATOM      4  N   UNL     1      -2.635  10.144  16.837  0.00  0.00    +0.000 NA
ATOM      5  C   UNL     1      -3.843  10.506  16.382  0.00  0.00    +0.000 A 
ATOM      6  C   UNL     1      -4.670  11.387  17.042  0.00  0.00    +0.000 A 
ATOM      7  C   UNL     1      -4.255  11.938  18.259  0.00  0.00    +0.000 A 
ATOM      8  C   UNL     1      -2.974  11.573  18.763  0.00  0.00    +0.000 A 
ATOM      9  C   UNL     1      -2.400  12.052  19.961  0.00  0.00    +0.000 A 
ATOM     10  C   UNL     1      -1.065  11.769  20.332  0.00  0.00    +0.000 A 
ENDROOT
BRANCH   7  11
ATOM     11  N   UNL     1      -5.037  12.948  18.886  0.00  0.00    +0.000 N 
ATOM     12  C   UNL     1      -5.641  12.902  20.101  0.00  0.00    +0.000 A 
ATOM     13  N   UNL     1      -5.656  11.864  20.941  0.00  0.00    +0.000 NA
ATOM     14  N   UNL     1      -6.453  12.243  21.941  0.00  0.00    +0.000 N 
ATOM     15  C   UNL     1      -6.962  13.498  21.792  0.00  0.00    +0.000 A 
ATOM     16  C   UNL     1      -7.916  14.074  22.764  0.00  0.00    +0.000 C 
ATOM     17  C   UNL     1      -6.412  13.987  20.620  0.00  0.00    +0.000 A 
ATOM     18  C   UNL     1      -6.608  15.332  20.025  0.00  0.00    +0.000 C 
ATOM     19  H   UNL     1      -5.302  13.695  18.263  0.00  0.00    +0.000 HD
ATOM     20  H   UNL     1      -6.623  11.580  22.690  0.00  0.00    +0.000 HD
ENDBRANCH   7  11
BRANCH  10  21
ATOM     21  S   UNL     1      -0.614  12.512  21.883  0.00  0.00    +0.000 S 
ATOM     22  O   UNL     1      -0.285  11.376  22.730  0.00  0.00    +0.000 OA
ATOM     23  O   UNL     1       0.456  13.440  21.535  0.00  0.00    +0.000 OA
BRANCH  21  24
ATOM     24  C   UNL     1      -1.857  13.465  22.777  0.00  0.00    +0.000 C 
ATOM     25  C   UNL     1      -2.857  12.557  23.507  0.00  0.00    +0.000 C 
ATOM     26  C   UNL     1      -1.090  14.278  23.864  0.00  0.00    +0.000 C 
ATOM     27  C   UNL     1      -2.554  14.509  21.898  0.00  0.00    +0.000 C 
ENDBRANCH  21  24
ENDBRANCH  10  21
BRANCH   1  29
ATOM     28  C   UNL     1       1.859  10.866  18.505  0.00  0.00    +0.000 C 
ATOM     29  O   UNL     1       1.046  10.838  19.687  0.00  0.00    +0.000 OA
ENDBRANCH   1  29
TORSDOF 4
ENDMDL
