MODEL 1
REMARK VINA RESULT:      -7.4      0.000      0.000
REMARK  Name = 
REMARK  11 active torsions:
REMARK  status: ('A' for Active; 'I' for Inactive)
REMARK    1  A    between atoms: C_1  and  C_2
REMARK    2  A    between atoms: C_2  and  C_3
REMARK    3  A    between atoms: C_2  and  C_4
REMARK    4  A    between atoms: C_2  and  C_5
REMARK    5  A    between atoms: C_8  and  C_9
REMARK    6  A    between atoms: N_11  and  C_12
REMARK    7  A    between atoms: C_12  and  C_13
REMARK    8  A    between atoms: C_16  and  O_17
REMARK    9  A    between atoms: O_17  and  C_18
REMARK   10  A    between atoms: C_18  and  C_19
REMARK   11  A    between atoms: C_19  and  O_21
REMARK                            x       y       z     vdW  Elec       q    Type
REMARK                         _______ _______ _______ _____ _____    ______ ____
ROOT
ATOM      1  C   UNL     1       8.143   8.083  18.196  0.00  0.00    +0.000 C 
ATOM      2  O   UNL     1       8.530   7.206  18.958  0.00  0.00    +0.000 OA
ATOM      3  N   UNL     1       7.344   7.840  17.102  0.00  0.00    +0.000 N 
ATOM      4  H   UNL     1       7.172   8.578  16.437  0.00  0.00    +0.000 HD
ENDROOT
BRANCH   1   8
ATOM      5  C   UNL     1       9.346  12.219  18.701  0.00  0.00    +0.000 A 
ATOM      6  C   UNL     1       8.506  11.801  17.655  0.00  0.00    +0.000 A 
ATOM      7  C   UNL     1       8.123  10.463  17.515  0.00  0.00    +0.000 A 
ATOM      8  C   UNL     1       8.564   9.498  18.422  0.00  0.00    +0.000 A 
ATOM      9  C   UNL     1       9.409   9.884  19.465  0.00  0.00    +0.000 A 
ATOM     10  C   UNL     1       9.793  11.228  19.599  0.00  0.00    +0.000 A 
BRANCH   5  12
ATOM     11  C   UNL     1       8.672  14.701  18.475  0.00  0.00    +0.000 C 
ATOM     12  C   UNL     1       9.771  13.690  18.879  0.00  0.00    +0.000 C 
ATOM     13  C   UNL     1      11.012  14.002  18.015  0.00  0.00    +0.000 C 
ATOM     14  C   UNL     1      10.114  13.958  20.360  0.00  0.00    +0.000 C 
ENDBRANCH   5  12
ENDBRANCH   1   8
BRANCH   3  15
ATOM     15  C   UNL     1       6.878   6.507  16.772  0.00  0.00    +0.000 C 
BRANCH  15  16
ATOM     16  C   UNL     1       5.588   6.172  17.481  0.00  0.00    +0.000 A 
ATOM     17  C   UNL     1       5.512   5.084  18.362  0.00  0.00    +0.000 A 
ATOM     18  C   UNL     1       4.313   4.781  19.015  0.00  0.00    +0.000 A 
ATOM     19  C   UNL     1       3.176   5.565  18.812  0.00  0.00    +0.000 A 
ATOM     20  C   UNL     1       3.243   6.646  17.934  0.00  0.00    +0.000 A 
ATOM     21  C   UNL     1       4.441   6.952  17.283  0.00  0.00    +0.000 A 
BRANCH  19  22
ATOM     22  O   UNL     1       2.051   5.162  19.483  0.00  0.00    +0.000 OA
BRANCH  22  23
ATOM     23  C   UNL     1       2.229   4.921  20.883  0.00  0.00    +0.000 C 
BRANCH  23  24
ATOM     24  C   UNL     1       1.679   3.549  21.235  0.00  0.00    +0.000 C 
ATOM     25  O   UNL     1       2.172   2.814  22.078  0.00  0.00    +0.000 OA
BRANCH  24  26
ATOM     26  O   UNL     1       0.563   3.219  20.540  0.00  0.00    +0.000 OA
ATOM     27  H   UNL     1      -0.221   3.637  20.959  0.00  0.00    +0.000 HD
ENDBRANCH  24  26
ENDBRANCH  23  24
ENDBRANCH  22  23
ENDBRANCH  19  22
ENDBRANCH  15  16
ENDBRANCH   3  15
TORSDOF 8
ENDMDL
MODEL 2
REMARK VINA RESULT:      -7.3      6.308      9.900
REMARK  Name = 
REMARK  11 active torsions:
REMARK  status: ('A' for Active; 'I' for Inactive)
REMARK    1  A    between atoms: C_1  and  C_2
REMARK    2  A    between atoms: C_2  and  C_3
REMARK    3  A    between atoms: C_2  and  C_4
REMARK    4  A    between atoms: C_2  and  C_5
REMARK    5  A    between atoms: C_8  and  C_9
REMARK    6  A    between atoms: N_11  and  C_12
REMARK    7  A    between atoms: C_12  and  C_13
REMARK    8  A    between atoms: C_16  and  O_17
REMARK    9  A    between atoms: O_17  and  C_18
REMARK   10  A    between atoms: C_18  and  C_19
REMARK   11  A    between atoms: C_19  and  O_21
REMARK                            x       y       z     vdW  Elec       q    Type
REMARK                         _______ _______ _______ _____ _____    ______ ____
ROOT
ATOM      1  C   UNL     1       1.972   8.504  18.448  0.00  0.00    +0.000 C 
ATOM      2  O   UNL     1       2.466   8.913  17.405  0.00  0.00    +0.000 OA
ATOM      3  N   UNL     1       1.278   9.306  19.326  0.00  0.00    +0.000 N 
ATOM      4  H   UNL     1       1.015   8.944  20.229  0.00  0.00    +0.000 HD
ENDROOT
BRANCH   1   8
ATOM      5  C   UNL     1       2.473   4.384  19.706  0.00  0.00    +0.000 A 
ATOM      6  C   UNL     1       2.065   5.397  20.590  0.00  0.00    +0.000 A 
ATOM      7  C   UNL     1       1.902   6.719  20.161  0.00  0.00    +0.000 A 
ATOM      8  C   UNL     1       2.136   7.070  18.831  0.00  0.00    +0.000 A 
ATOM      9  C   UNL     1       2.552   6.085  17.933  0.00  0.00    +0.000 A 
ATOM     10  C   UNL     1       2.718   4.760  18.369  0.00  0.00    +0.000 A 
BRANCH   5  12
ATOM     11  C   UNL     1       4.110   2.419  20.066  0.00  0.00    +0.000 C 
ATOM     12  C   UNL     1       2.649   2.920  20.155  0.00  0.00    +0.000 C 
ATOM     13  C   UNL     1       1.794   1.980  19.278  0.00  0.00    +0.000 C 
ATOM     14  C   UNL     1       2.206   2.770  21.626  0.00  0.00    +0.000 C 
ENDBRANCH   5  12
ENDBRANCH   1   8
BRANCH   3  15
ATOM     15  C   UNL     1       1.062  10.717  19.070  0.00  0.00    +0.000 C 
BRANCH  15  16
ATOM     16  C   UNL     1      -0.405  11.041  18.920  0.00  0.00    +0.000 A 
ATOM     17  C   UNL     1      -1.201  10.361  17.988  0.00  0.00    +0.000 A 
ATOM     18  C   UNL     1      -2.560  10.667  17.856  0.00  0.00    +0.000 A 
ATOM     19  C   UNL     1      -3.148  11.646  18.658  0.00  0.00    +0.000 A 
ATOM     20  C   UNL     1      -2.362  12.329  19.585  0.00  0.00    +0.000 A 
ATOM     21  C   UNL     1      -1.005  12.022  19.721  0.00  0.00    +0.000 A 
BRANCH  19  22
ATOM     22  O   UNL     1      -4.478  11.881  18.426  0.00  0.00    +0.000 OA
BRANCH  22  23
ATOM     23  C   UNL     1      -5.247  10.730  18.060  0.00  0.00    +0.000 C 
BRANCH  23  24
ATOM     24  C   UNL     1      -6.709  10.968  18.399  0.00  0.00    +0.000 C 
ATOM     25  O   UNL     1      -7.281  12.036  18.232  0.00  0.00    +0.000 OA
BRANCH  24  26
ATOM     26  O   UNL     1      -7.336   9.871  18.887  0.00  0.00    +0.000 OA
ATOM     27  H   UNL     1      -7.724  10.078  19.766  0.00  0.00    +0.000 HD
ENDBRANCH  24  26
ENDBRANCH  23  24
ENDBRANCH  22  23
ENDBRANCH  19  22
ENDBRANCH  15  16
ENDBRANCH   3  15
TORSDOF 8
ENDMDL
MODEL 3
REMARK VINA RESULT:      -7.3      0.321      1.172
REMARK  Name = 
REMARK  11 active torsions:
REMARK  status: ('A' for Active; 'I' for Inactive)
REMARK    1  A    between atoms: C_1  and  C_2
REMARK    2  A    between atoms: C_2  and  C_3
REMARK    3  A    between atoms: C_2  and  C_4
REMARK    4  A    between atoms: C_2  and  C_5
REMARK    5  A    between atoms: C_8  and  C_9
REMARK    6  A    between atoms: N_11  and  C_12
REMARK    7  A    between atoms: C_12  and  C_13
REMARK    8  A    between atoms: C_16  and  O_17
REMARK    9  A    between atoms: O_17  and  C_18
REMARK   10  A    between atoms: C_18  and  C_19
REMARK   11  A    between atoms: C_19  and  O_21
REMARK                            x       y       z     vdW  Elec       q    Type
REMARK                         _______ _______ _______ _____ _____    ______ ____
ROOT
ATOM      1  C   UNL     1       8.073   8.184  18.160  0.00  0.00    +0.000 C 
ATOM      2  O   UNL     1       8.491   7.280  18.871  0.00  0.00    +0.000 OA
ATOM      3  N   UNL     1       7.197   7.986  17.116  0.00  0.00    +0.000 N 
ATOM      4  H   UNL     1       6.996   8.745  16.484  0.00  0.00    +0.000 HD
ENDROOT
BRANCH   1   8
ATOM      5  C   UNL     1       9.403  12.279  18.683  0.00  0.00    +0.000 A 
ATOM      6  C   UNL     1       8.535  11.896  17.647  0.00  0.00    +0.000 A 
ATOM      7  C   UNL     1       8.112  10.571  17.500  0.00  0.00    +0.000 A 
ATOM      8  C   UNL     1       8.538   9.584  18.391  0.00  0.00    +0.000 A 
ATOM      9  C   UNL     1       9.409   9.936  19.425  0.00  0.00    +0.000 A 
ATOM     10  C   UNL     1       9.834  11.267  19.565  0.00  0.00    +0.000 A 
BRANCH   5  12
ATOM     11  C   UNL     1       8.757  14.779  18.617  0.00  0.00    +0.000 C 
ATOM     12  C   UNL     1       9.872  13.736  18.868  0.00  0.00    +0.000 C 
ATOM     13  C   UNL     1      11.022  14.060  17.890  0.00  0.00    +0.000 C 
ATOM     14  C   UNL     1      10.372  13.943  20.313  0.00  0.00    +0.000 C 
ENDBRANCH   5  12
ENDBRANCH   1   8
BRANCH   3  15
ATOM     15  C   UNL     1       6.682   6.671  16.785  0.00  0.00    +0.000 C 
BRANCH  15  16
ATOM     16  C   UNL     1       5.469   6.319  17.613  0.00  0.00    +0.000 A 
ATOM     17  C   UNL     1       4.233   6.935  17.377  0.00  0.00    +0.000 A 
ATOM     18  C   UNL     1       3.114   6.602  18.149  0.00  0.00    +0.000 A 
ATOM     19  C   UNL     1       3.207   5.642  19.157  0.00  0.00    +0.000 A 
ATOM     20  C   UNL     1       4.435   5.028  19.400  0.00  0.00    +0.000 A 
ATOM     21  C   UNL     1       5.554   5.357  18.628  0.00  0.00    +0.000 A 
BRANCH  19  22
ATOM     22  O   UNL     1       2.057   5.413  19.866  0.00  0.00    +0.000 OA
BRANCH  22  23
ATOM     23  C   UNL     1       2.219   4.636  21.057  0.00  0.00    +0.000 C 
BRANCH  23  24
ATOM     24  C   UNL     1       1.406   3.357  20.943  0.00  0.00    +0.000 C 
ATOM     25  O   UNL     1       0.803   3.023  19.934  0.00  0.00    +0.000 OA
BRANCH  24  26
ATOM     26  O   UNL     1       1.430   2.599  22.066  0.00  0.00    +0.000 OA
ATOM     27  H   UNL     1       0.546   2.194  22.207  0.00  0.00    +0.000 HD
ENDBRANCH  24  26
ENDBRANCH  23  24
ENDBRANCH  22  23
ENDBRANCH  19  22
ENDBRANCH  15  16
ENDBRANCH   3  15
TORSDOF 8
ENDMDL
MODEL 4
REMARK VINA RESULT:      -7.2      6.324      9.930
REMARK  Name = 
REMARK  11 active torsions:
REMARK  status: ('A' for Active; 'I' for Inactive)
REMARK    1  A    between atoms: C_1  and  C_2
REMARK    2  A    between atoms: C_2  and  C_3
REMARK    3  A    between atoms: C_2  and  C_4
REMARK    4  A    between atoms: C_2  and  C_5
REMARK    5  A    between atoms: C_8  and  C_9
REMARK    6  A    between atoms: N_11  and  C_12
REMARK    7  A    between atoms: C_12  and  C_13
REMARK    8  A    between atoms: C_16  and  O_17
REMARK    9  A    between atoms: O_17  and  C_18
REMARK   10  A    between atoms: C_18  and  C_19
REMARK   11  A    between atoms: C_19  and  O_21
REMARK                            x       y       z     vdW  Elec       q    Type
REMARK                         _______ _______ _______ _____ _____    ______ ____
ROOT
ATOM      1  C   UNL     1       1.930   8.494  18.523  0.00  0.00    +0.000 C 
ATOM      2  O   UNL     1       2.359   8.857  17.436  0.00  0.00    +0.000 OA
ATOM      3  N   UNL     1       1.270   9.329  19.397  0.00  0.00    +0.000 N 
ATOM      4  H   UNL     1       1.062   9.010  20.330  0.00  0.00    +0.000 HD
ENDROOT
BRANCH   1   8
ATOM      5  C   UNL     1       2.514   4.353  19.672  0.00  0.00    +0.000 A 
ATOM      6  C   UNL     1       2.747   4.812  18.365  0.00  0.00    +0.000 A 
ATOM      7  C   UNL     1       2.561   6.154  18.017  0.00  0.00    +0.000 A 
ATOM      8  C   UNL     1       2.139   7.084  18.968  0.00  0.00    +0.000 A 
ATOM      9  C   UNL     1       1.889   6.653  20.273  0.00  0.00    +0.000 A 
ATOM     10  C   UNL     1       2.076   5.304  20.616  0.00  0.00    +0.000 A 
BRANCH   5  12
ATOM     11  C   UNL     1       4.187   2.403  19.925  0.00  0.00    +0.000 C 
ATOM     12  C   UNL     1       2.724   2.881  20.078  0.00  0.00    +0.000 C 
ATOM     13  C   UNL     1       1.851   1.951  19.207  0.00  0.00    +0.000 C 
ATOM     14  C   UNL     1       2.335   2.688  21.559  0.00  0.00    +0.000 C 
ENDBRANCH   5  12
ENDBRANCH   1   8
BRANCH   3  15
ATOM     15  C   UNL     1       1.015  10.722  19.083  0.00  0.00    +0.000 C 
BRANCH  15  16
ATOM     16  C   UNL     1      -0.444  10.972  18.787  0.00  0.00    +0.000 A 
ATOM     17  C   UNL     1      -1.119  10.227  17.811  0.00  0.00    +0.000 A 
ATOM     18  C   UNL     1      -2.472  10.465  17.544  0.00  0.00    +0.000 A 
ATOM     19  C   UNL     1      -3.175  11.439  18.254  0.00  0.00    +0.000 A 
ATOM     20  C   UNL     1      -2.509  12.187  19.224  0.00  0.00    +0.000 A 
ATOM     21  C   UNL     1      -1.158  11.949  19.494  0.00  0.00    +0.000 A 
BRANCH  19  22
ATOM     22  O   UNL     1      -4.486  11.605  17.893  0.00  0.00    +0.000 OA
BRANCH  22  23
ATOM     23  C   UNL     1      -5.406  11.738  18.981  0.00  0.00    +0.000 C 
BRANCH  23  24
ATOM     24  C   UNL     1      -6.821  11.498  18.481  0.00  0.00    +0.000 C 
ATOM     25  O   UNL     1      -7.509  12.355  17.947  0.00  0.00    +0.000 OA
BRANCH  24  26
ATOM     26  O   UNL     1      -7.250  10.225  18.664  0.00  0.00    +0.000 OA
ATOM     27  H   UNL     1      -8.228  10.218  18.757  0.00  0.00    +0.000 HD
ENDBRANCH  24  26
ENDBRANCH  23  24
ENDBRANCH  22  23
ENDBRANCH  19  22
ENDBRANCH  15  16
ENDBRANCH   3  15
TORSDOF 8
ENDMDL
MODEL 5
REMARK VINA RESULT:      -7.2      6.329      9.912
REMARK  Name = 
REMARK  11 active torsions:
REMARK  status: ('A' for Active; 'I' for Inactive)
REMARK    1  A    between atoms: C_1  and  C_2
REMARK    2  A    between atoms: C_2  and  C_3
REMARK    3  A    between atoms: C_2  and  C_4
REMARK    4  A    between atoms: C_2  and  C_5
REMARK    5  A    between atoms: C_8  and  C_9
REMARK    6  A    between atoms: N_11  and  C_12
REMARK    7  A    between atoms: C_12  and  C_13
REMARK    8  A    between atoms: C_16  and  O_17
REMARK    9  A    between atoms: O_17  and  C_18
REMARK   10  A    between atoms: C_18  and  C_19
REMARK   11  A    between atoms: C_19  and  O_21
REMARK                            x       y       z     vdW  Elec       q    Type
REMARK                         _______ _______ _______ _____ _____    ______ ____
ROOT
ATOM      1  C   UNL     1       1.948   8.506  18.474  0.00  0.00    +0.000 C 
ATOM      2  O   UNL     1       2.418   8.876  17.406  0.00  0.00    +0.000 OA
ATOM      3  N   UNL     1       1.238   9.330  19.318  0.00  0.00    +0.000 N 
ATOM      4  H   UNL     1       0.995   9.007  20.242  0.00  0.00    +0.000 HD
ENDROOT
BRANCH   1   8
ATOM      5  C   UNL     1       2.542   4.374  19.652  0.00  0.00    +0.000 A 
ATOM      6  C   UNL     1       2.754   4.820  18.337  0.00  0.00    +0.000 A 
ATOM      7  C   UNL     1       2.565   6.160  17.979  0.00  0.00    +0.000 A 
ATOM      8  C   UNL     1       2.162   7.100  18.929  0.00  0.00    +0.000 A 
ATOM      9  C   UNL     1       1.933   6.681  20.242  0.00  0.00    +0.000 A 
ATOM     10  C   UNL     1       2.122   5.335  20.594  0.00  0.00    +0.000 A 
BRANCH   5  12
ATOM     11  C   UNL     1       1.900   1.905  19.255  0.00  0.00    +0.000 C 
ATOM     12  C   UNL     1       2.755   2.906  20.068  0.00  0.00    +0.000 C 
ATOM     13  C   UNL     1       2.391   2.707  21.555  0.00  0.00    +0.000 C 
ATOM     14  C   UNL     1       4.234   2.515  19.860  0.00  0.00    +0.000 C 
ENDBRANCH   5  12
ENDBRANCH   1   8
BRANCH   3  15
ATOM     15  C   UNL     1       0.974  10.718  18.992  0.00  0.00    +0.000 C 
BRANCH  15  16
ATOM     16  C   UNL     1      -0.476  10.946  18.640  0.00  0.00    +0.000 A 
ATOM     17  C   UNL     1      -1.211  11.975  19.243  0.00  0.00    +0.000 A 
ATOM     18  C   UNL     1      -2.555  12.179  18.909  0.00  0.00    +0.000 A 
ATOM     19  C   UNL     1      -3.182  11.369  17.961  0.00  0.00    +0.000 A 
ATOM     20  C   UNL     1      -2.458  10.341  17.359  0.00  0.00    +0.000 A 
ATOM     21  C   UNL     1      -1.114  10.138  17.689  0.00  0.00    +0.000 A 
BRANCH  19  22
ATOM     22  O   UNL     1      -4.505  11.642  17.731  0.00  0.00    +0.000 OA
BRANCH  22  23
ATOM     23  C   UNL     1      -5.342  11.627  18.892  0.00  0.00    +0.000 C 
BRANCH  23  24
ATOM     24  C   UNL     1      -6.788  11.425  18.472  0.00  0.00    +0.000 C 
ATOM     25  O   UNL     1      -7.482  12.301  17.977  0.00  0.00    +0.000 OA
BRANCH  24  26
ATOM     26  O   UNL     1      -7.239  10.163  18.677  0.00  0.00    +0.000 OA
ATOM     27  H   UNL     1      -8.077  10.193  19.190  0.00  0.00    +0.000 HD
ENDBRANCH  24  26
ENDBRANCH  23  24
ENDBRANCH  22  23
ENDBRANCH  19  22
ENDBRANCH  15  16
ENDBRANCH   3  15
TORSDOF 8
ENDMDL
MODEL 6
REMARK VINA RESULT:      -7.2      6.396      9.846
REMARK  Name = 
REMARK  11 active torsions:
REMARK  status: ('A' for Active; 'I' for Inactive)
REMARK    1  A    between atoms: C_1  and  C_2
REMARK    2  A    between atoms: C_2  and  C_3
REMARK    3  A    between atoms: C_2  and  C_4
REMARK    4  A    between atoms: C_2  and  C_5
REMARK    5  A    between atoms: C_8  and  C_9
REMARK    6  A    between atoms: N_11  and  C_12
REMARK    7  A    between atoms: C_12  and  C_13
REMARK    8  A    between atoms: C_16  and  O_17
REMARK    9  A    between atoms: O_17  and  C_18
REMARK   10  A    between atoms: C_18  and  C_19
REMARK   11  A    between atoms: C_19  and  O_21
REMARK                            x       y       z     vdW  Elec       q    Type
REMARK                         _______ _______ _______ _____ _____    ______ ____
ROOT
ATOM      1  C   UNL     1       1.919   8.437  18.369  0.00  0.00    +0.000 C 
ATOM      2  O   UNL     1       2.467   8.887  17.371  0.00  0.00    +0.000 OA
ATOM      3  N   UNL     1       1.111   9.186  19.194  0.00  0.00    +0.000 N 
ATOM      4  H   UNL     1       0.799   8.798  20.071  0.00  0.00    +0.000 HD
ENDROOT
BRANCH   1   8
ATOM      5  C   UNL     1       2.594   4.343  19.630  0.00  0.00    +0.000 A 
ATOM      6  C   UNL     1       2.246   5.361  20.533  0.00  0.00    +0.000 A 
ATOM      7  C   UNL     1       2.024   6.674  20.104  0.00  0.00    +0.000 A 
ATOM      8  C   UNL     1       2.138   7.011  18.755  0.00  0.00    +0.000 A 
ATOM      9  C   UNL     1       2.493   6.020  17.837  0.00  0.00    +0.000 A 
ATOM     10  C   UNL     1       2.717   4.704  18.273  0.00  0.00    +0.000 A 
BRANCH   5  12
ATOM     11  C   UNL     1       2.020   1.851  19.269  0.00  0.00    +0.000 C 
ATOM     12  C   UNL     1       2.832   2.888  20.081  0.00  0.00    +0.000 C 
ATOM     13  C   UNL     1       2.437   2.711  21.563  0.00  0.00    +0.000 C 
ATOM     14  C   UNL     1       4.324   2.529  19.916  0.00  0.00    +0.000 C 
ENDBRANCH   5  12
ENDBRANCH   1   8
BRANCH   3  15
ATOM     15  C   UNL     1       0.829  10.584  18.932  0.00  0.00    +0.000 C 
BRANCH  15  16
ATOM     16  C   UNL     1      -0.636  10.819  18.654  0.00  0.00    +0.000 A 
ATOM     17  C   UNL     1      -1.368  11.756  19.396  0.00  0.00    +0.000 A 
ATOM     18  C   UNL     1      -2.726  11.968  19.131  0.00  0.00    +0.000 A 
ATOM     19  C   UNL     1      -3.370  11.260  18.115  0.00  0.00    +0.000 A 
ATOM     20  C   UNL     1      -2.649  10.324  17.375  0.00  0.00    +0.000 A 
ATOM     21  C   UNL     1      -1.291  10.113  17.636  0.00  0.00    +0.000 A 
BRANCH  19  22
ATOM     22  O   UNL     1      -4.705  11.529  17.960  0.00  0.00    +0.000 OA
BRANCH  22  23
ATOM     23  C   UNL     1      -5.326  12.190  19.067  0.00  0.00    +0.000 C 
BRANCH  23  24
ATOM     24  C   UNL     1      -6.434  11.311  19.625  0.00  0.00    +0.000 C 
ATOM     25  O   UNL     1      -6.664  11.183  20.819  0.00  0.00    +0.000 OA
BRANCH  24  26
ATOM     26  O   UNL     1      -7.167  10.692  18.668  0.00  0.00    +0.000 OA
ATOM     27  H   UNL     1      -7.259   9.739  18.889  0.00  0.00    +0.000 HD
ENDBRANCH  24  26
ENDBRANCH  23  24
ENDBRANCH  22  23
ENDBRANCH  19  22
ENDBRANCH  15  16
ENDBRANCH   3  15
TORSDOF 8
ENDMDL
MODEL 7
REMARK VINA RESULT:      -7.2      6.406      9.866
REMARK  Name = 
REMARK  11 active torsions:
REMARK  status: ('A' for Active; 'I' for Inactive)
REMARK    1  A    between atoms: C_1  and  C_2
REMARK    2  A    between atoms: C_2  and  C_3
REMARK    3  A    between atoms: C_2  and  C_4
REMARK    4  A    between atoms: C_2  and  C_5
REMARK    5  A    between atoms: C_8  and  C_9
REMARK    6  A    between atoms: N_11  and  C_12
REMARK    7  A    between atoms: C_12  and  C_13
REMARK    8  A    between atoms: C_16  and  O_17
REMARK    9  A    between atoms: O_17  and  C_18
REMARK   10  A    between atoms: C_18  and  C_19
REMARK   11  A    between atoms: C_19  and  O_21
REMARK                            x       y       z     vdW  Elec       q    Type
REMARK                         _______ _______ _______ _____ _____    ______ ____
ROOT
ATOM      1  C   UNL     1       1.932   8.483  18.369  0.00  0.00    +0.000 C 
ATOM      2  O   UNL     1       2.499   8.853  17.350  0.00  0.00    +0.000 OA
ATOM      3  N   UNL     1       1.125   9.301  19.128  0.00  0.00    +0.000 N 
ATOM      4  H   UNL     1       0.796   8.981  20.027  0.00  0.00    +0.000 HD
ENDROOT
BRANCH   1   8
ATOM      5  C   UNL     1       2.428   4.373  19.661  0.00  0.00    +0.000 A 
ATOM      6  C   UNL     1       2.354   4.732  18.305  0.00  0.00    +0.000 A 
ATOM      7  C   UNL     1       2.202   6.065  17.909  0.00  0.00    +0.000 A 
ATOM      8  C   UNL     1       2.125   7.086  18.859  0.00  0.00    +0.000 A 
ATOM      9  C   UNL     1       2.185   6.755  20.214  0.00  0.00    +0.000 A 
ATOM     10  C   UNL     1       2.334   5.415  20.606  0.00  0.00    +0.000 A 
BRANCH   5  12
ATOM     11  C   UNL     1       1.825   1.896  19.250  0.00  0.00    +0.000 C 
ATOM     12  C   UNL     1       2.606   2.912  20.117  0.00  0.00    +0.000 C 
ATOM     13  C   UNL     1       2.114   2.736  21.571  0.00  0.00    +0.000 C 
ATOM     14  C   UNL     1       4.097   2.521  20.045  0.00  0.00    +0.000 C 
ENDBRANCH   5  12
ENDBRANCH   1   8
BRANCH   3  15
ATOM     15  C   UNL     1       0.869  10.681  18.763  0.00  0.00    +0.000 C 
BRANCH  15  16
ATOM     16  C   UNL     1      -0.609  10.986  18.727  0.00  0.00    +0.000 A 
ATOM     17  C   UNL     1      -1.470  10.279  17.876  0.00  0.00    +0.000 A 
ATOM     18  C   UNL     1      -2.839  10.568  17.850  0.00  0.00    +0.000 A 
ATOM     19  C   UNL     1      -3.372  11.556  18.679  0.00  0.00    +0.000 A 
ATOM     20  C   UNL     1      -2.521  12.266  19.525  0.00  0.00    +0.000 A 
ATOM     21  C   UNL     1      -1.154  11.977  19.555  0.00  0.00    +0.000 A 
BRANCH  19  22
ATOM     22  O   UNL     1      -4.719  11.773  18.552  0.00  0.00    +0.000 OA
BRANCH  22  23
ATOM     23  C   UNL     1      -5.476  10.650  18.086  0.00  0.00    +0.000 C 
BRANCH  23  24
ATOM     24  C   UNL     1      -6.815  10.609  18.805  0.00  0.00    +0.000 C 
ATOM     25  O   UNL     1      -7.393  11.601  19.224  0.00  0.00    +0.000 OA
BRANCH  24  26
ATOM     26  O   UNL     1      -7.328   9.360  18.920  0.00  0.00    +0.000 OA
ATOM     27  H   UNL     1      -6.597   8.703  18.920  0.00  0.00    +0.000 HD
ENDBRANCH  24  26
ENDBRANCH  23  24
ENDBRANCH  22  23
ENDBRANCH  19  22
ENDBRANCH  15  16
ENDBRANCH   3  15
TORSDOF 8
ENDMDL
MODEL 8
REMARK VINA RESULT:      -7.2      6.262      9.371
REMARK  Name = 
REMARK  11 active torsions:
REMARK  status: ('A' for Active; 'I' for Inactive)
REMARK    1  A    between atoms: C_1  and  C_2
REMARK    2  A    between atoms: C_2  and  C_3
REMARK    3  A    between atoms: C_2  and  C_4
REMARK    4  A    between atoms: C_2  and  C_5
REMARK    5  A    between atoms: C_8  and  C_9
REMARK    6  A    between atoms: N_11  and  C_12
REMARK    7  A    between atoms: C_12  and  C_13
REMARK    8  A    between atoms: C_16  and  O_17
REMARK    9  A    between atoms: O_17  and  C_18
REMARK   10  A    between atoms: C_18  and  C_19
REMARK   11  A    between atoms: C_19  and  O_21
REMARK                            x       y       z     vdW  Elec       q    Type
REMARK                         _______ _______ _______ _____ _____    ______ ____
ROOT
ATOM      1  C   UNL     1       0.170  10.503  18.799  0.00  0.00    +0.000 C 
ATOM      2  O   UNL     1       0.835  11.042  19.673  0.00  0.00    +0.000 OA
ATOM      3  N   UNL     1       0.691   9.609  17.890  0.00  0.00    +0.000 N 
ATOM      4  H   UNL     1       0.127   9.304  17.112  0.00  0.00    +0.000 HD
ENDROOT
BRANCH   1   8
ATOM      5  C   UNL     1      -4.042  11.507  18.554  0.00  0.00    +0.000 A 
ATOM      6  C   UNL     1      -3.155  12.183  19.408  0.00  0.00    +0.000 A 
ATOM      7  C   UNL     1      -1.798  11.849  19.466  0.00  0.00    +0.000 A 
ATOM      8  C   UNL     1      -1.281  10.829  18.665  0.00  0.00    +0.000 A 
ATOM      9  C   UNL     1      -2.143  10.134  17.815  0.00  0.00    +0.000 A 
ATOM     10  C   UNL     1      -3.505  10.471  17.763  0.00  0.00    +0.000 A 
BRANCH   5  12
ATOM     11  C   UNL     1      -6.475  10.644  18.607  0.00  0.00    +0.000 C 
ATOM     12  C   UNL     1      -5.538  11.867  18.468  0.00  0.00    +0.000 C 
ATOM     13  C   UNL     1      -5.857  12.529  17.110  0.00  0.00    +0.000 C 
ATOM     14  C   UNL     1      -5.903  12.852  19.600  0.00  0.00    +0.000 C 
ENDBRANCH   5  12
ENDBRANCH   1   8
BRANCH   3  15
ATOM     15  C   UNL     1       2.088   9.220  17.910  0.00  0.00    +0.000 C 
BRANCH  15  16
ATOM     16  C   UNL     1       2.282   7.858  18.531  0.00  0.00    +0.000 A 
ATOM     17  C   UNL     1       2.828   6.800  17.792  0.00  0.00    +0.000 A 
ATOM     18  C   UNL     1       3.005   5.541  18.376  0.00  0.00    +0.000 A 
ATOM     19  C   UNL     1       2.652   5.321  19.708  0.00  0.00    +0.000 A 
ATOM     20  C   UNL     1       2.105   6.367  20.449  0.00  0.00    +0.000 A 
ATOM     21  C   UNL     1       1.931   7.627  19.868  0.00  0.00    +0.000 A 
BRANCH  19  22
ATOM     22  O   UNL     1       2.845   4.045  20.169  0.00  0.00    +0.000 OA
BRANCH  22  23
ATOM     23  C   UNL     1       2.800   3.022  19.168  0.00  0.00    +0.000 C 
BRANCH  23  24
ATOM     24  C   UNL     1       4.000   2.103  19.328  0.00  0.00    +0.000 C 
ATOM     25  O   UNL     1       4.789   2.170  20.260  0.00  0.00    +0.000 OA
BRANCH  24  26
ATOM     26  O   UNL     1       4.106   1.177  18.345  0.00  0.00    +0.000 OA
ATOM     27  H   UNL     1       4.924   0.648  18.479  0.00  0.00    +0.000 HD
ENDBRANCH  24  26
ENDBRANCH  23  24
ENDBRANCH  22  23
ENDBRANCH  19  22
ENDBRANCH  15  16
ENDBRANCH   3  15
TORSDOF 8
ENDMDL
MODEL 9
REMARK VINA RESULT:      -7.1      0.694      1.505
REMARK  Name = 
REMARK  11 active torsions:
REMARK  status: ('A' for Active; 'I' for Inactive)
REMARK    1  A    between atoms: C_1  and  C_2
REMARK    2  A    between atoms: C_2  and  C_3
REMARK    3  A    between atoms: C_2  and  C_4
REMARK    4  A    between atoms: C_2  and  C_5
REMARK    5  A    between atoms: C_8  and  C_9
REMARK    6  A    between atoms: N_11  and  C_12
REMARK    7  A    between atoms: C_12  and  C_13
REMARK    8  A    between atoms: C_16  and  O_17
REMARK    9  A    between atoms: O_17  and  C_18
REMARK   10  A    between atoms: C_18  and  C_19
REMARK   11  A    between atoms: C_19  and  O_21
REMARK                            x       y       z     vdW  Elec       q    Type
REMARK                         _______ _______ _______ _____ _____    ______ ____
ROOT
ATOM      1  C   UNL     1       8.291   8.298  18.260  0.00  0.00    +0.000 C 
ATOM      2  O   UNL     1       8.655   7.469  19.084  0.00  0.00    +0.000 OA
ATOM      3  N   UNL     1       7.539   7.986  17.150  0.00  0.00    +0.000 N 
ATOM      4  H   UNL     1       7.387   8.685  16.439  0.00  0.00    +0.000 HD
ENDROOT
BRANCH   1   8
ATOM      5  C   UNL     1       9.457  12.428  18.887  0.00  0.00    +0.000 A 
ATOM      6  C   UNL     1       9.833  11.398  19.766  0.00  0.00    +0.000 A 
ATOM      7  C   UNL     1       9.453  10.071  19.540  0.00  0.00    +0.000 A 
ATOM      8  C   UNL     1       8.688   9.729  18.424  0.00  0.00    +0.000 A 
ATOM      9  C   UNL     1       8.292  10.735  17.540  0.00  0.00    +0.000 A 
ATOM     10  C   UNL     1       8.674  12.066  17.773  0.00  0.00    +0.000 A 
BRANCH   5  12
ATOM     11  C   UNL     1      10.913  14.073  20.245  0.00  0.00    +0.000 C 
ATOM     12  C   UNL     1       9.875  13.895  19.112  0.00  0.00    +0.000 C 
ATOM     13  C   UNL     1       8.647  14.754  19.485  0.00  0.00    +0.000 C 
ATOM     14  C   UNL     1      10.507  14.460  17.822  0.00  0.00    +0.000 C 
ENDBRANCH   5  12
ENDBRANCH   1   8
BRANCH   3  15
ATOM     15  C   UNL     1       7.101   6.632  16.875  0.00  0.00    +0.000 C 
BRANCH  15  16
ATOM     16  C   UNL     1       5.808   6.306  17.583  0.00  0.00    +0.000 A 
ATOM     17  C   UNL     1       5.780   5.393  18.646  0.00  0.00    +0.000 A 
ATOM     18  C   UNL     1       4.577   5.098  19.298  0.00  0.00    +0.000 A 
ATOM     19  C   UNL     1       3.388   5.716  18.909  0.00  0.00    +0.000 A 
ATOM     20  C   UNL     1       3.408   6.623  17.849  0.00  0.00    +0.000 A 
ATOM     21  C   UNL     1       4.609   6.922  17.199  0.00  0.00    +0.000 A 
BRANCH  19  22
ATOM     22  O   UNL     1       2.268   5.334  19.598  0.00  0.00    +0.000 OA
BRANCH  22  23
ATOM     23  C   UNL     1       1.542   4.241  19.025  0.00  0.00    +0.000 C 
BRANCH  23  24
ATOM     24  C   UNL     1       1.196   3.237  20.112  0.00  0.00    +0.000 C 
ATOM     25  O   UNL     1       1.896   3.026  21.092  0.00  0.00    +0.000 OA
BRANCH  24  26
ATOM     26  O   UNL     1       0.015   2.604  19.907  0.00  0.00    +0.000 OA
ATOM     27  H   UNL     1      -0.638   2.902  20.579  0.00  0.00    +0.000 HD
ENDBRANCH  24  26
ENDBRANCH  23  24
ENDBRANCH  22  23
ENDBRANCH  19  22
ENDBRANCH  15  16
ENDBRANCH   3  15
TORSDOF 8
ENDMDL
