MODEL 1
REMARK VINA RESULT:      -7.1      0.000      0.000
REMARK  Name = 
REMARK  5 active torsions:
REMARK  status: ('A' for Active; 'I' for Inactive)
REMARK    1  A    between atoms: C_2  and  O_5
REMARK    2  A    between atoms: O_5  and  C_6
REMARK    3  A    between atoms: C_9  and  C_10
REMARK    4  A    between atoms: C_10  and  N_11
REMARK    5  A    between atoms: N_11  and  C_12
REMARK                            x       y       z     vdW  Elec       q    Type
REMARK                         _______ _______ _______ _____ _____    ______ ____
ROOT
ATOM      1  C   UNL     1       2.565   4.093  17.240  0.00  0.00    +0.000 C 
ENDROOT
BRANCH   1   5
ATOM      2  C   UNL     1       1.886   7.078  20.302  0.00  0.00    +0.000 A 
ATOM      3  C   UNL     1       2.336   7.449  19.032  0.00  0.00    +0.000 A 
ATOM      4  C   UNL     1       2.560   6.486  18.045  0.00  0.00    +0.000 A 
ATOM      5  C   UNL     1       2.333   5.132  18.313  0.00  0.00    +0.000 A 
ATOM      6  C   UNL     1       1.944   4.759  19.606  0.00  0.00    +0.000 A 
ATOM      7  C   UNL     1       1.736   5.725  20.599  0.00  0.00    +0.000 A 
BRANCH   2   8
ATOM      8  O   UNL     1       1.683   8.117  21.158  0.00  0.00    +0.000 OA
BRANCH   8  10
ATOM      9  F   UNL     1       0.054   9.342  20.034  0.00  0.00    +0.000 F 
ATOM     10  C   UNL     1       0.416   8.756  21.193  0.00  0.00    +0.000 C 
ATOM     11  F   UNL     1       0.449   9.718  22.145  0.00  0.00    +0.000 F 
ATOM     12  F   UNL     1      -0.530   7.856  21.541  0.00  0.00    +0.000 F 
ENDBRANCH   8  10
ENDBRANCH   2   8
ENDBRANCH   1   5
BRANCH   1  13
ATOM     13  N   UNL     1       3.876   3.508  17.438  0.00  0.00    +0.000 N 
ATOM     14  H   UNL     1       3.917   2.503  17.309  0.00  0.00    +0.000 HD
BRANCH  13  15
ATOM     15  C   UNL     1       4.942   4.165  16.831  0.00  0.00    +0.000 A 
ATOM     16  N   UNL     1       5.086   4.155  15.484  0.00  0.00    +0.000 NA
ATOM     17  C   UNL     1       6.101   4.840  14.938  0.00  0.00    +0.000 A 
ATOM     18  N   UNL     1       7.040   5.552  15.568  0.00  0.00    +0.000 NA
ATOM     19  C   UNL     1       6.907   5.560  16.916  0.00  0.00    +0.000 A 
ATOM     20  C   UNL     1       7.775   6.241  17.821  0.00  0.00    +0.000 A 
ATOM     21  C   UNL     1       7.406   6.071  19.137  0.00  0.00    +0.000 A 
ATOM     22  S   UNL     1       6.010   5.095  19.283  0.00  0.00    +0.000 S 
ATOM     23  C   UNL     1       5.886   4.888  17.574  0.00  0.00    +0.000 A 
ENDBRANCH  13  15
ENDBRANCH   1  13
TORSDOF 5
ENDMDL
MODEL 2
REMARK VINA RESULT:      -7.1      0.179      1.042
REMARK  Name = 
REMARK  5 active torsions:
REMARK  status: ('A' for Active; 'I' for Inactive)
REMARK    1  A    between atoms: C_2  and  O_5
REMARK    2  A    between atoms: O_5  and  C_6
REMARK    3  A    between atoms: C_9  and  C_10
REMARK    4  A    between atoms: C_10  and  N_11
REMARK    5  A    between atoms: N_11  and  C_12
REMARK                            x       y       z     vdW  Elec       q    Type
REMARK                         _______ _______ _______ _____ _____    ______ ____
ROOT
ATOM      1  C   UNL     1       2.685   3.902  17.351  0.00  0.00    +0.000 C 
ENDROOT
BRANCH   1   5
ATOM      2  C   UNL     1       1.899   6.973  20.301  0.00  0.00    +0.000 A 
ATOM      3  C   UNL     1       1.661   5.627  20.592  0.00  0.00    +0.000 A 
ATOM      4  C   UNL     1       1.909   4.636  19.639  0.00  0.00    +0.000 A 
ATOM      5  C   UNL     1       2.405   4.977  18.377  0.00  0.00    +0.000 A 
ATOM      6  C   UNL     1       2.582   6.332  18.068  0.00  0.00    +0.000 A 
ATOM      7  C   UNL     1       2.317   7.325  19.019  0.00  0.00    +0.000 A 
BRANCH   2   8
ATOM      8  O   UNL     1       1.640   7.830  21.326  0.00  0.00    +0.000 OA
BRANCH   8  10
ATOM      9  F   UNL     1       0.262   9.257  20.109  0.00  0.00    +0.000 F 
ATOM     10  C   UNL     1       0.471   8.634  21.287  0.00  0.00    +0.000 C 
ATOM     11  F   UNL     1       0.576   9.589  22.241  0.00  0.00    +0.000 F 
ATOM     12  F   UNL     1      -0.606   7.873  21.575  0.00  0.00    +0.000 F 
ENDBRANCH   8  10
ENDBRANCH   2   8
ENDBRANCH   1   5
BRANCH   1  13
ATOM     13  N   UNL     1       4.048   3.441  17.525  0.00  0.00    +0.000 N 
ATOM     14  H   UNL     1       4.172   2.438  17.438  0.00  0.00    +0.000 HD
BRANCH  13  15
ATOM     15  C   UNL     1       5.031   4.159  16.850  0.00  0.00    +0.000 A 
ATOM     16  N   UNL     1       5.092   4.149  15.498  0.00  0.00    +0.000 NA
ATOM     17  C   UNL     1       6.027   4.892  14.887  0.00  0.00    +0.000 A 
ATOM     18  N   UNL     1       6.957   5.664  15.456  0.00  0.00    +0.000 NA
ATOM     19  C   UNL     1       6.908   5.673  16.810  0.00  0.00    +0.000 A 
ATOM     20  C   UNL     1       7.786   6.412  17.657  0.00  0.00    +0.000 A 
ATOM     21  C   UNL     1       7.511   6.228  18.994  0.00  0.00    +0.000 A 
ATOM     22  S   UNL     1       6.189   5.169  19.229  0.00  0.00    +0.000 S 
ATOM     23  C   UNL     1       5.972   4.943  17.532  0.00  0.00    +0.000 A 
ENDBRANCH  13  15
ENDBRANCH   1  13
TORSDOF 5
ENDMDL
MODEL 3
REMARK VINA RESULT:      -7.1      3.854      6.099
REMARK  Name = 
REMARK  5 active torsions:
REMARK  status: ('A' for Active; 'I' for Inactive)
REMARK    1  A    between atoms: C_2  and  O_5
REMARK    2  A    between atoms: O_5  and  C_6
REMARK    3  A    between atoms: C_9  and  C_10
REMARK    4  A    between atoms: C_10  and  N_11
REMARK    5  A    between atoms: N_11  and  C_12
REMARK                            x       y       z     vdW  Elec       q    Type
REMARK                         _______ _______ _______ _____ _____    ______ ____
ROOT
ATOM      1  C   UNL     1       3.982   2.807  17.025  0.00  0.00    +0.000 C 
ENDROOT
BRANCH   1   5
ATOM      2  C   UNL     1       6.905   5.997  16.846  0.00  0.00    +0.000 A 
ATOM      3  C   UNL     1       6.220   5.592  15.697  0.00  0.00    +0.000 A 
ATOM      4  C   UNL     1       5.281   4.559  15.753  0.00  0.00    +0.000 A 
ATOM      5  C   UNL     1       5.008   3.916  16.965  0.00  0.00    +0.000 A 
ATOM      6  C   UNL     1       5.743   4.282  18.100  0.00  0.00    +0.000 A 
ATOM      7  C   UNL     1       6.696   5.306  18.038  0.00  0.00    +0.000 A 
BRANCH   2   8
ATOM      8  O   UNL     1       7.770   7.030  16.656  0.00  0.00    +0.000 OA
BRANCH   8  10
ATOM      9  F   UNL     1       8.434   7.624  18.807  0.00  0.00    +0.000 F 
ATOM     10  C   UNL     1       7.882   8.039  17.648  0.00  0.00    +0.000 C 
ATOM     11  F   UNL     1       6.643   8.504  17.928  0.00  0.00    +0.000 F 
ATOM     12  F   UNL     1       8.613   9.066  17.161  0.00  0.00    +0.000 F 
ENDBRANCH   8  10
ENDBRANCH   2   8
ENDBRANCH   1   5
BRANCH   1  13
ATOM     13  N   UNL     1       2.663   3.401  17.110  0.00  0.00    +0.000 N 
ATOM     14  H   UNL     1       1.979   3.010  16.473  0.00  0.00    +0.000 HD
BRANCH  13  15
ATOM     15  C   UNL     1       2.152   3.585  18.391  0.00  0.00    +0.000 A 
ATOM     16  N   UNL     1       1.687   2.536  19.110  0.00  0.00    +0.000 NA
ATOM     17  C   UNL     1       1.246   2.751  20.358  0.00  0.00    +0.000 A 
ATOM     18  N   UNL     1       1.187   3.913  21.014  0.00  0.00    +0.000 NA
ATOM     19  C   UNL     1       1.643   4.970  20.299  0.00  0.00    +0.000 A 
ATOM     20  C   UNL     1       1.687   6.317  20.766  0.00  0.00    +0.000 A 
ATOM     21  C   UNL     1       2.192   7.186  19.824  0.00  0.00    +0.000 A 
ATOM     22  S   UNL     1       2.618   6.378  18.379  0.00  0.00    +0.000 S 
ATOM     23  C   UNL     1       2.126   4.847  19.003  0.00  0.00    +0.000 A 
ENDBRANCH  13  15
ENDBRANCH   1  13
TORSDOF 5
ENDMDL
MODEL 4
REMARK VINA RESULT:      -7.0      3.841      6.098
REMARK  Name = 
REMARK  5 active torsions:
REMARK  status: ('A' for Active; 'I' for Inactive)
REMARK    1  A    between atoms: C_2  and  O_5
REMARK    2  A    between atoms: O_5  and  C_6
REMARK    3  A    between atoms: C_9  and  C_10
REMARK    4  A    between atoms: C_10  and  N_11
REMARK    5  A    between atoms: N_11  and  C_12
REMARK                            x       y       z     vdW  Elec       q    Type
REMARK                         _______ _______ _______ _____ _____    ______ ____
ROOT
ATOM      1  C   UNL     1       3.958   2.814  17.089  0.00  0.00    +0.000 C 
ENDROOT
BRANCH   1   5
ATOM      2  C   UNL     1       6.888   5.980  16.711  0.00  0.00    +0.000 A 
ATOM      3  C   UNL     1       6.852   5.174  17.852  0.00  0.00    +0.000 A 
ATOM      4  C   UNL     1       5.904   4.156  17.978  0.00  0.00    +0.000 A 
ATOM      5  C   UNL     1       4.976   3.925  16.957  0.00  0.00    +0.000 A 
ATOM      6  C   UNL     1       4.974   4.775  15.844  0.00  0.00    +0.000 A 
ATOM      7  C   UNL     1       5.915   5.806  15.728  0.00  0.00    +0.000 A 
BRANCH   2   8
ATOM      8  O   UNL     1       7.877   6.915  16.707  0.00  0.00    +0.000 OA
BRANCH   8  10
ATOM      9  F   UNL     1       8.457   9.112  17.209  0.00  0.00    +0.000 F 
ATOM     10  C   UNL     1       7.820   7.998  17.623  0.00  0.00    +0.000 C 
ATOM     11  F   UNL     1       8.393   7.606  18.785  0.00  0.00    +0.000 F 
ATOM     12  F   UNL     1       6.528   8.302  17.877  0.00  0.00    +0.000 F 
ENDBRANCH   8  10
ENDBRANCH   2   8
ENDBRANCH   1   5
BRANCH   1  13
ATOM     13  N   UNL     1       2.638   3.404  17.176  0.00  0.00    +0.000 N 
ATOM     14  H   UNL     1       1.945   2.989  16.562  0.00  0.00    +0.000 HD
BRANCH  13  15
ATOM     15  C   UNL     1       2.145   3.629  18.458  0.00  0.00    +0.000 A 
ATOM     16  N   UNL     1       1.686   2.603  19.213  0.00  0.00    +0.000 NA
ATOM     17  C   UNL     1       1.264   2.857  20.460  0.00  0.00    +0.000 A 
ATOM     18  N   UNL     1       1.219   4.039  21.083  0.00  0.00    +0.000 NA
ATOM     19  C   UNL     1       1.670   5.071  20.331  0.00  0.00    +0.000 A 
ATOM     20  C   UNL     1       1.727   6.432  20.757  0.00  0.00    +0.000 A 
ATOM     21  C   UNL     1       2.222   7.270  19.783  0.00  0.00    +0.000 A 
ATOM     22  S   UNL     1       2.624   6.418  18.356  0.00  0.00    +0.000 S 
ATOM     23  C   UNL     1       2.134   4.908  19.032  0.00  0.00    +0.000 A 
ENDBRANCH  13  15
ENDBRANCH   1  13
TORSDOF 5
ENDMDL
MODEL 5
REMARK VINA RESULT:      -6.9      4.841      7.061
REMARK  Name = 
REMARK  5 active torsions:
REMARK  status: ('A' for Active; 'I' for Inactive)
REMARK    1  A    between atoms: C_2  and  O_5
REMARK    2  A    between atoms: O_5  and  C_6
REMARK    3  A    between atoms: C_9  and  C_10
REMARK    4  A    between atoms: C_10  and  N_11
REMARK    5  A    between atoms: N_11  and  C_12
REMARK                            x       y       z     vdW  Elec       q    Type
REMARK                         _______ _______ _______ _____ _____    ______ ____
ROOT
ATOM      1  C   UNL     1       1.922   5.589  20.118  0.00  0.00    +0.000 C 
ENDROOT
BRANCH   1   5
ATOM      2  C   UNL     1       4.725   3.922  17.268  0.00  0.00    +0.000 A 
ATOM      3  C   UNL     1       3.351   3.706  17.128  0.00  0.00    +0.000 A 
ATOM      4  C   UNL     1       2.447   4.238  18.050  0.00  0.00    +0.000 A 
ATOM      5  C   UNL     1       2.904   5.003  19.128  0.00  0.00    +0.000 A 
ATOM      6  C   UNL     1       4.285   5.165  19.300  0.00  0.00    +0.000 A 
ATOM      7  C   UNL     1       5.191   4.616  18.384  0.00  0.00    +0.000 A 
BRANCH   2   8
ATOM      8  O   UNL     1       5.490   3.371  16.288  0.00  0.00    +0.000 OA
BRANCH   8  10
ATOM      9  F   UNL     1       7.361   4.646  15.750  0.00  0.00    +0.000 F 
ATOM     10  C   UNL     1       6.146   4.215  15.354  0.00  0.00    +0.000 C 
ATOM     11  F   UNL     1       5.373   5.306  15.146  0.00  0.00    +0.000 F 
ATOM     12  F   UNL     1       6.276   3.565  14.177  0.00  0.00    +0.000 F 
ENDBRANCH   8  10
ENDBRANCH   2   8
ENDBRANCH   1   5
BRANCH   1  13
ATOM     13  N   UNL     1       2.397   6.897  20.521  0.00  0.00    +0.000 N 
ATOM     14  H   UNL     1       3.402   6.968  20.637  0.00  0.00    +0.000 HD
BRANCH  13  15
ATOM     15  C   UNL     1       1.864   7.985  19.835  0.00  0.00    +0.000 A 
ATOM     16  N   UNL     1       2.068   8.133  18.504  0.00  0.00    +0.000 NA
ATOM     17  C   UNL     1       1.497   9.170  17.875  0.00  0.00    +0.000 A 
ATOM     18  N   UNL     1       0.732  10.128  18.406  0.00  0.00    +0.000 NA
ATOM     19  C   UNL     1       0.530   9.992  19.738  0.00  0.00    +0.000 A 
ATOM     20  C   UNL     1      -0.245  10.877  20.545  0.00  0.00    +0.000 A 
ATOM     21  C   UNL     1      -0.274  10.498  21.869  0.00  0.00    +0.000 A 
ATOM     22  S   UNL     1       0.630   9.073  22.140  0.00  0.00    +0.000 S 
ATOM     23  C   UNL     1       1.072   8.948  20.477  0.00  0.00    +0.000 A 
ENDBRANCH  13  15
ENDBRANCH   1  13
TORSDOF 5
ENDMDL
MODEL 6
REMARK VINA RESULT:      -6.9      5.377      7.323
REMARK  Name = 
REMARK  5 active torsions:
REMARK  status: ('A' for Active; 'I' for Inactive)
REMARK    1  A    between atoms: C_2  and  O_5
REMARK    2  A    between atoms: O_5  and  C_6
REMARK    3  A    between atoms: C_9  and  C_10
REMARK    4  A    between atoms: C_10  and  N_11
REMARK    5  A    between atoms: N_11  and  C_12
REMARK                            x       y       z     vdW  Elec       q    Type
REMARK                         _______ _______ _______ _____ _____    ______ ____
ROOT
ATOM      1  C   UNL     1       5.523   5.566  18.817  0.00  0.00    +0.000 C 
ENDROOT
BRANCH   1   5
ATOM      2  C   UNL     1       6.573   4.919  14.665  0.00  0.00    +0.000 A 
ATOM      3  C   UNL     1       5.360   5.523  15.009  0.00  0.00    +0.000 A 
ATOM      4  C   UNL     1       5.018   5.727  16.348  0.00  0.00    +0.000 A 
ATOM      5  C   UNL     1       5.890   5.333  17.368  0.00  0.00    +0.000 A 
ATOM      6  C   UNL     1       7.075   4.672  17.022  0.00  0.00    +0.000 A 
ATOM      7  C   UNL     1       7.408   4.453  15.679  0.00  0.00    +0.000 A 
BRANCH   2   8
ATOM      8  O   UNL     1       6.792   4.806  13.328  0.00  0.00    +0.000 OA
BRANCH   8  10
ATOM      9  F   UNL     1       6.125   2.577  13.415  0.00  0.00    +0.000 F 
ATOM     10  C   UNL     1       6.315   3.662  12.635  0.00  0.00    +0.000 C 
ATOM     11  F   UNL     1       7.218   3.329  11.685  0.00  0.00    +0.000 F 
ATOM     12  F   UNL     1       5.152   3.965  12.018  0.00  0.00    +0.000 F 
ENDBRANCH   8  10
ENDBRANCH   2   8
ENDBRANCH   1   5
BRANCH   1  13
ATOM     13  N   UNL     1       5.445   4.284  19.486  0.00  0.00    +0.000 N 
ATOM     14  H   UNL     1       5.612   4.315  20.486  0.00  0.00    +0.000 HD
BRANCH  13  15
ATOM     15  C   UNL     1       4.359   3.479  19.154  0.00  0.00    +0.000 A 
ATOM     16  N   UNL     1       4.524   2.370  18.394  0.00  0.00    +0.000 NA
ATOM     17  C   UNL     1       3.459   1.598  18.138  0.00  0.00    +0.000 A 
ATOM     18  N   UNL     1       2.197   1.789  18.533  0.00  0.00    +0.000 NA
ATOM     19  C   UNL     1       2.021   2.901  19.287  0.00  0.00    +0.000 A 
ATOM     20  C   UNL     1       0.776   3.333  19.833  0.00  0.00    +0.000 A 
ATOM     21  C   UNL     1       0.891   4.502  20.552  0.00  0.00    +0.000 A 
ATOM     22  S   UNL     1       2.501   5.077  20.574  0.00  0.00    +0.000 S 
ATOM     23  C   UNL     1       3.064   3.759  19.613  0.00  0.00    +0.000 A 
ENDBRANCH  13  15
ENDBRANCH   1  13
TORSDOF 5
ENDMDL
MODEL 7
REMARK VINA RESULT:      -6.8      4.839      7.047
REMARK  Name = 
REMARK  5 active torsions:
REMARK  status: ('A' for Active; 'I' for Inactive)
REMARK    1  A    between atoms: C_2  and  O_5
REMARK    2  A    between atoms: O_5  and  C_6
REMARK    3  A    between atoms: C_9  and  C_10
REMARK    4  A    between atoms: C_10  and  N_11
REMARK    5  A    between atoms: N_11  and  C_12
REMARK                            x       y       z     vdW  Elec       q    Type
REMARK                         _______ _______ _______ _____ _____    ______ ____
ROOT
ATOM      1  C   UNL     1       1.855   5.655  20.144  0.00  0.00    +0.000 C 
ENDROOT
BRANCH   1   5
ATOM      2  C   UNL     1       4.503   3.874  17.217  0.00  0.00    +0.000 A 
ATOM      3  C   UNL     1       5.017   4.546  18.330  0.00  0.00    +0.000 A 
ATOM      4  C   UNL     1       4.164   5.126  19.272  0.00  0.00    +0.000 A 
ATOM      5  C   UNL     1       2.776   5.038  19.117  0.00  0.00    +0.000 A 
ATOM      6  C   UNL     1       2.266   4.419  17.969  0.00  0.00    +0.000 A 
ATOM      7  C   UNL     1       3.124   3.853  17.017  0.00  0.00    +0.000 A 
BRANCH   2   8
ATOM      8  O   UNL     1       5.443   3.335  16.395  0.00  0.00    +0.000 OA
BRANCH   8  10
ATOM      9  F   UNL     1       6.239   3.530  14.216  0.00  0.00    +0.000 F 
ATOM     10  C   UNL     1       6.052   4.146  15.401  0.00  0.00    +0.000 C 
ATOM     11  F   UNL     1       7.265   4.540  15.854  0.00  0.00    +0.000 F 
ATOM     12  F   UNL     1       5.301   5.251  15.204  0.00  0.00    +0.000 F 
ENDBRANCH   8  10
ENDBRANCH   2   8
ENDBRANCH   1   5
BRANCH   1  13
ATOM     13  N   UNL     1       2.383   6.951  20.520  0.00  0.00    +0.000 N 
ATOM     14  H   UNL     1       3.393   6.992  20.599  0.00  0.00    +0.000 HD
BRANCH  13  15
ATOM     15  C   UNL     1       1.858   8.050  19.845  0.00  0.00    +0.000 A 
ATOM     16  N   UNL     1       2.095   8.230  18.524  0.00  0.00    +0.000 NA
ATOM     17  C   UNL     1       1.531   9.276  17.904  0.00  0.00    +0.000 A 
ATOM     18  N   UNL     1       0.744  10.215  18.436  0.00  0.00    +0.000 NA
ATOM     19  C   UNL     1       0.509  10.047  19.759  0.00  0.00    +0.000 A 
ATOM     20  C   UNL     1      -0.295  10.907  20.565  0.00  0.00    +0.000 A 
ATOM     21  C   UNL     1      -0.354  10.498  21.879  0.00  0.00    +0.000 A 
ATOM     22  S   UNL     1       0.555   9.074  22.142  0.00  0.00    +0.000 S 
ATOM     23  C   UNL     1       1.041   8.991  20.488  0.00  0.00    +0.000 A 
ENDBRANCH  13  15
ENDBRANCH   1  13
TORSDOF 5
ENDMDL
MODEL 8
REMARK VINA RESULT:      -6.8      2.350      3.357
REMARK  Name = 
REMARK  5 active torsions:
REMARK  status: ('A' for Active; 'I' for Inactive)
REMARK    1  A    between atoms: C_2  and  O_5
REMARK    2  A    between atoms: O_5  and  C_6
REMARK    3  A    between atoms: C_9  and  C_10
REMARK    4  A    between atoms: C_10  and  N_11
REMARK    5  A    between atoms: N_11  and  C_12
REMARK                            x       y       z     vdW  Elec       q    Type
REMARK                         _______ _______ _______ _____ _____    ______ ____
ROOT
ATOM      1  C   UNL     1       2.921   5.943  19.733  0.00  0.00    +0.000 C 
ENDROOT
BRANCH   1   5
ATOM      2  C   UNL     1       0.964   9.720  18.919  0.00  0.00    +0.000 A 
ATOM      3  C   UNL     1       1.667   9.049  17.914  0.00  0.00    +0.000 A 
ATOM      4  C   UNL     1       2.303   7.834  18.177  0.00  0.00    +0.000 A 
ATOM      5  C   UNL     1       2.242   7.265  19.454  0.00  0.00    +0.000 A 
ATOM      6  C   UNL     1       1.591   7.971  20.473  0.00  0.00    +0.000 A 
ATOM      7  C   UNL     1       0.968   9.198  20.212  0.00  0.00    +0.000 A 
BRANCH   2   8
ATOM      8  O   UNL     1       0.371  10.878  18.521  0.00  0.00    +0.000 OA
BRANCH   8  10
ATOM      9  F   UNL     1      -1.645  11.106  19.663  0.00  0.00    +0.000 F 
ATOM     10  C   UNL     1      -1.045  10.954  18.464  0.00  0.00    +0.000 C 
ATOM     11  F   UNL     1      -1.514   9.810  17.915  0.00  0.00    +0.000 F 
ATOM     12  F   UNL     1      -1.406  11.980  17.663  0.00  0.00    +0.000 F 
ENDBRANCH   8  10
ENDBRANCH   2   8
ENDBRANCH   1   5
BRANCH   1  13
ATOM     13  N   UNL     1       3.471   5.436  18.492  0.00  0.00    +0.000 N 
ATOM     14  H   UNL     1       3.092   5.860  17.653  0.00  0.00    +0.000 HD
BRANCH  13  15
ATOM     15  C   UNL     1       4.856   5.303  18.441  0.00  0.00    +0.000 A 
ATOM     16  N   UNL     1       5.615   5.523  19.541  0.00  0.00    +0.000 NA
ATOM     17  C   UNL     1       6.940   5.338  19.459  0.00  0.00    +0.000 A 
ATOM     18  N   UNL     1       7.649   4.965  18.390  0.00  0.00    +0.000 NA
ATOM     19  C   UNL     1       6.898   4.751  17.283  0.00  0.00    +0.000 A 
ATOM     20  C   UNL     1       7.407   4.348  16.012  0.00  0.00    +0.000 A 
ATOM     21  C   UNL     1       6.417   4.212  15.065  0.00  0.00    +0.000 A 
ATOM     22  S   UNL     1       4.872   4.567  15.706  0.00  0.00    +0.000 S 
ATOM     23  C   UNL     1       5.518   4.908  17.270  0.00  0.00    +0.000 A 
ENDBRANCH  13  15
ENDBRANCH   1  13
TORSDOF 5
ENDMDL
MODEL 9
REMARK VINA RESULT:      -6.8      5.362      7.773
REMARK  Name = 
REMARK  5 active torsions:
REMARK  status: ('A' for Active; 'I' for Inactive)
REMARK    1  A    between atoms: C_2  and  O_5
REMARK    2  A    between atoms: O_5  and  C_6
REMARK    3  A    between atoms: C_9  and  C_10
REMARK    4  A    between atoms: C_10  and  N_11
REMARK    5  A    between atoms: N_11  and  C_12
REMARK                            x       y       z     vdW  Elec       q    Type
REMARK                         _______ _______ _______ _____ _____    ______ ____
ROOT
ATOM      1  C   UNL     1       4.761   6.396  17.746  0.00  0.00    +0.000 C 
ENDROOT
BRANCH   1   5
ATOM      2  C   UNL     1       6.097   4.072  14.345  0.00  0.00    +0.000 A 
ATOM      3  C   UNL     1       5.980   3.485  15.608  0.00  0.00    +0.000 A 
ATOM      4  C   UNL     1       5.554   4.235  16.707  0.00  0.00    +0.000 A 
ATOM      5  C   UNL     1       5.234   5.589  16.558  0.00  0.00    +0.000 A 
ATOM      6  C   UNL     1       5.414   6.188  15.305  0.00  0.00    +0.000 A 
ATOM      7  C   UNL     1       5.857   5.438  14.208  0.00  0.00    +0.000 A 
BRANCH   2   8
ATOM      8  O   UNL     1       6.496   3.223  13.359  0.00  0.00    +0.000 OA
BRANCH   8  10
ATOM      9  F   UNL     1       4.491   3.556  12.225  0.00  0.00    +0.000 F 
ATOM     10  C   UNL     1       5.788   3.198  12.129  0.00  0.00    +0.000 C 
ATOM     11  F   UNL     1       5.828   1.938  11.638  0.00  0.00    +0.000 F 
ATOM     12  F   UNL     1       6.401   4.012  11.243  0.00  0.00    +0.000 F 
ENDBRANCH   8  10
ENDBRANCH   2   8
ENDBRANCH   1   5
BRANCH   1  13
ATOM     13  N   UNL     1       3.318   6.508  17.684  0.00  0.00    +0.000 N 
ATOM     14  H   UNL     1       2.909   6.249  16.793  0.00  0.00    +0.000 HD
BRANCH  13  15
ATOM     15  C   UNL     1       2.611   5.988  18.764  0.00  0.00    +0.000 A 
ATOM     16  N   UNL     1       2.358   6.747  19.857  0.00  0.00    +0.000 NA
ATOM     17  C   UNL     1       1.633   6.221  20.855  0.00  0.00    +0.000 A 
ATOM     18  N   UNL     1       1.116   4.991  20.929  0.00  0.00    +0.000 NA
ATOM     19  C   UNL     1       1.372   4.223  19.843  0.00  0.00    +0.000 A 
ATOM     20  C   UNL     1       0.936   2.876  19.671  0.00  0.00    +0.000 A 
ATOM     21  C   UNL     1       1.346   2.336  18.472  0.00  0.00    +0.000 A 
ATOM     22  S   UNL     1       2.254   3.454  17.551  0.00  0.00    +0.000 S 
ATOM     23  C   UNL     1       2.106   4.680  18.756  0.00  0.00    +0.000 A 
ENDBRANCH  13  15
ENDBRANCH   1  13
TORSDOF 5
ENDMDL
