MODEL 1
REMARK VINA RESULT:      -9.0      0.000      0.000
REMARK  Name = 
REMARK  5 active torsions:
REMARK  status: ('A' for Active; 'I' for Inactive)
REMARK    1  A    between atoms: C_1  and  O_2
REMARK    2  A    between atoms: O_2  and  C_3
REMARK    3  A    between atoms: C_6  and  N_7
REMARK    4  A    between atoms: C_8  and  C_10
REMARK    5  A    between atoms: C_10  and  N_11
REMARK                            x       y       z     vdW  Elec       q    Type
REMARK                         _______ _______ _______ _____ _____    ______ ____
ROOT
ATOM      1  N   UNL     1       6.324   5.844  17.344  0.00  0.00    +0.000 N 
ATOM      2  C   UNL     1       6.730   4.890  18.278  0.00  0.00    +0.000 A 
ATOM      3  N   UNL     1       5.949   4.060  18.907  0.00  0.00    +0.000 NA
ATOM      4  C   UNL     1       4.646   4.226  18.585  0.00  0.00    +0.000 A 
ATOM      5  C   UNL     1       4.092   5.141  17.720  0.00  0.00    +0.000 A 
ATOM      6  N   UNL     1       2.727   5.031  17.679  0.00  0.00    +0.000 NA
ATOM      7  C   UNL     1       2.439   4.061  18.530  0.00  0.00    +0.000 A 
ATOM      8  N   UNL     1       3.583   3.524  19.081  0.00  0.00    +0.000 N 
ATOM      9  C   UNL     1       3.630   2.441  20.039  0.00  0.00    +0.000 C 
ATOM     10  C   UNL     1       2.955   2.796  21.362  0.00  0.00    +0.000 C 
ATOM     11  C   UNL     1       1.426   2.762  21.304  0.00  0.00    +0.000 C 
ATOM     12  C   UNL     1       0.784   3.813  20.395  0.00  0.00    +0.000 C 
ATOM     13  C   UNL     1       1.070   3.608  18.907  0.00  0.00    +0.000 C 
ATOM     14  C   UNL     1       4.975   6.061  17.031  0.00  0.00    +0.000 A 
ATOM     15  O   UNL     1       4.606   6.951  16.265  0.00  0.00    +0.000 OA
ENDROOT
BRANCH   1  16
ATOM     16  C   UNL     1       7.306   6.696  16.700  0.00  0.00    +0.000 C 
BRANCH  16  18
ATOM     17  N   UNL     1       8.036   8.929  17.392  0.00  0.00    +0.000 N 
ATOM     18  C   UNL     1       7.935   7.597  17.760  0.00  0.00    +0.000 C 
ATOM     19  O   UNL     1       8.233   7.109  18.847  0.00  0.00    +0.000 OA
ATOM     20  H   UNL     1       7.618   9.199  16.503  0.00  0.00    +0.000 HD
BRANCH  17  24
ATOM     21  C   UNL     1       9.505  12.176  19.694  0.00  0.00    +0.000 A 
ATOM     22  C   UNL     1       9.600  10.876  20.184  0.00  0.00    +0.000 A 
ATOM     23  C   UNL     1       9.143   9.791  19.432  0.00  0.00    +0.000 A 
ATOM     24  C   UNL     1       8.552   9.984  18.182  0.00  0.00    +0.000 A 
ATOM     25  C   UNL     1       8.455  11.294  17.692  0.00  0.00    +0.000 A 
ATOM     26  C   UNL     1       8.930  12.385  18.442  0.00  0.00    +0.000 A 
BRANCH  21  28
ATOM     27  C   UNL     1      11.061  13.917  20.082  0.00  0.00    +0.000 C 
ATOM     28  O   UNL     1       9.964  13.141  20.543  0.00  0.00    +0.000 OA
ENDBRANCH  21  28
ENDBRANCH  17  24
ENDBRANCH  16  18
ENDBRANCH   1  16
TORSDOF 4
ENDMDL
MODEL 2
REMARK VINA RESULT:      -8.7      6.409      8.867
REMARK  Name = 
REMARK  5 active torsions:
REMARK  status: ('A' for Active; 'I' for Inactive)
REMARK    1  A    between atoms: C_1  and  O_2
REMARK    2  A    between atoms: O_2  and  C_3
REMARK    3  A    between atoms: C_6  and  N_7
REMARK    4  A    between atoms: C_8  and  C_10
REMARK    5  A    between atoms: C_10  and  N_11
REMARK                            x       y       z     vdW  Elec       q    Type
REMARK                         _______ _______ _______ _____ _____    ______ ____
ROOT
ATOM      1  N   UNL     1       1.576   9.225  19.436  0.00  0.00    +0.000 N 
ATOM      2  C   UNL     1       1.293   8.592  20.646  0.00  0.00    +0.000 A 
ATOM      3  N   UNL     1       1.505   7.337  20.918  0.00  0.00    +0.000 NA
ATOM      4  C   UNL     1       2.023   6.659  19.869  0.00  0.00    +0.000 A 
ATOM      5  C   UNL     1       2.317   7.131  18.611  0.00  0.00    +0.000 A 
ATOM      6  N   UNL     1       2.794   6.134  17.799  0.00  0.00    +0.000 NA
ATOM      7  C   UNL     1       2.779   5.047  18.552  0.00  0.00    +0.000 A 
ATOM      8  N   UNL     1       2.342   5.330  19.830  0.00  0.00    +0.000 N 
ATOM      9  C   UNL     1       2.215   4.375  20.908  0.00  0.00    +0.000 C 
ATOM     10  C   UNL     1       1.184   3.289  20.614  0.00  0.00    +0.000 C 
ATOM     11  C   UNL     1       1.677   2.216  19.639  0.00  0.00    +0.000 C 
ATOM     12  C   UNL     1       1.951   2.706  18.215  0.00  0.00    +0.000 C 
ATOM     13  C   UNL     1       3.133   3.670  18.105  0.00  0.00    +0.000 C 
ATOM     14  C   UNL     1       2.070   8.529  18.323  0.00  0.00    +0.000 A 
ATOM     15  O   UNL     1       2.250   9.066  17.230  0.00  0.00    +0.000 OA
ENDROOT
BRANCH   1  16
ATOM     16  C   UNL     1       1.306  10.642  19.273  0.00  0.00    +0.000 C 
BRANCH  16  18
ATOM     17  N   UNL     1      -0.802  11.119  18.123  0.00  0.00    +0.000 N 
ATOM     18  C   UNL     1      -0.203  10.858  19.345  0.00  0.00    +0.000 C 
ATOM     19  O   UNL     1      -0.768  10.724  20.427  0.00  0.00    +0.000 OA
ATOM     20  H   UNL     1      -0.212  11.065  17.294  0.00  0.00    +0.000 HD
BRANCH  17  24
ATOM     21  C   UNL     1      -4.932  11.673  17.327  0.00  0.00    +0.000 A 
ATOM     22  C   UNL     1      -4.411  12.016  18.572  0.00  0.00    +0.000 A 
ATOM     23  C   UNL     1      -3.050  11.863  18.846  0.00  0.00    +0.000 A 
ATOM     24  C   UNL     1      -2.182  11.334  17.890  0.00  0.00    +0.000 A 
ATOM     25  C   UNL     1      -2.710  10.986  16.638  0.00  0.00    +0.000 A 
ATOM     26  C   UNL     1      -4.077  11.156  16.356  0.00  0.00    +0.000 A 
BRANCH  21  28
ATOM     27  C   UNL     1      -7.073  11.442  18.313  0.00  0.00    +0.000 C 
ATOM     28  O   UNL     1      -6.281  11.848  17.205  0.00  0.00    +0.000 OA
ENDBRANCH  21  28
ENDBRANCH  17  24
ENDBRANCH  16  18
ENDBRANCH   1  16
TORSDOF 4
ENDMDL
MODEL 3
REMARK VINA RESULT:      -8.7      0.886      1.281
REMARK  Name = 
REMARK  5 active torsions:
REMARK  status: ('A' for Active; 'I' for Inactive)
REMARK    1  A    between atoms: C_1  and  O_2
REMARK    2  A    between atoms: O_2  and  C_3
REMARK    3  A    between atoms: C_6  and  N_7
REMARK    4  A    between atoms: C_8  and  C_10
REMARK    5  A    between atoms: C_10  and  N_11
REMARK                            x       y       z     vdW  Elec       q    Type
REMARK                         _______ _______ _______ _____ _____    ______ ____
ROOT
ATOM      1  N   UNL     1       6.517   5.781  17.624  0.00  0.00    +0.000 N 
ATOM      2  C   UNL     1       6.683   5.407  18.957  0.00  0.00    +0.000 A 
ATOM      3  N   UNL     1       5.881   4.641  19.639  0.00  0.00    +0.000 NA
ATOM      4  C   UNL     1       4.808   4.243  18.921  0.00  0.00    +0.000 A 
ATOM      5  C   UNL     1       4.487   4.559  17.621  0.00  0.00    +0.000 A 
ATOM      6  N   UNL     1       3.294   3.996  17.246  0.00  0.00    +0.000 NA
ATOM      7  C   UNL     1       2.873   3.348  18.319  0.00  0.00    +0.000 A 
ATOM      8  N   UNL     1       3.781   3.450  19.353  0.00  0.00    +0.000 N 
ATOM      9  C   UNL     1       3.638   2.852  20.662  0.00  0.00    +0.000 C 
ATOM     10  C   UNL     1       2.442   3.402  21.433  0.00  0.00    +0.000 C 
ATOM     11  C   UNL     1       1.095   2.846  20.964  0.00  0.00    +0.000 C 
ATOM     12  C   UNL     1       0.688   3.236  19.541  0.00  0.00    +0.000 C 
ATOM     13  C   UNL     1       1.573   2.630  18.452  0.00  0.00    +0.000 C 
ATOM     14  C   UNL     1       5.388   5.415  16.877  0.00  0.00    +0.000 A 
ATOM     15  O   UNL     1       5.199   5.806  15.725  0.00  0.00    +0.000 OA
ENDROOT
BRANCH   1  16
ATOM     16  C   UNL     1       7.502   6.628  16.976  0.00  0.00    +0.000 C 
BRANCH  16  18
ATOM     17  N   UNL     1       8.599   8.608  17.910  0.00  0.00    +0.000 N 
ATOM     18  C   UNL     1       7.388   8.035  17.557  0.00  0.00    +0.000 C 
ATOM     19  O   UNL     1       6.281   8.565  17.606  0.00  0.00    +0.000 OA
ATOM     20  H   UNL     1       9.444   8.087  17.681  0.00  0.00    +0.000 HD
BRANCH  17  24
ATOM     21  C   UNL     1       9.261  12.440  19.605  0.00  0.00    +0.000 A 
ATOM     22  C   UNL     1       8.812  12.329  18.292  0.00  0.00    +0.000 A 
ATOM     23  C   UNL     1       8.566  11.076  17.722  0.00  0.00    +0.000 A 
ATOM     24  C   UNL     1       8.793   9.905  18.445  0.00  0.00    +0.000 A 
ATOM     25  C   UNL     1       9.249  10.019  19.766  0.00  0.00    +0.000 A 
ATOM     26  C   UNL     1       9.480  11.280  20.345  0.00  0.00    +0.000 A 
BRANCH  21  28
ATOM     27  C   UNL     1      10.822  14.038  20.390  0.00  0.00    +0.000 C 
ATOM     28  O   UNL     1       9.486  13.720  20.024  0.00  0.00    +0.000 OA
ENDBRANCH  21  28
ENDBRANCH  17  24
ENDBRANCH  16  18
ENDBRANCH   1  16
TORSDOF 4
ENDMDL
MODEL 4
REMARK VINA RESULT:      -8.6      6.791      8.675
REMARK  Name = 
REMARK  5 active torsions:
REMARK  status: ('A' for Active; 'I' for Inactive)
REMARK    1  A    between atoms: C_1  and  O_2
REMARK    2  A    between atoms: O_2  and  C_3
REMARK    3  A    between atoms: C_6  and  N_7
REMARK    4  A    between atoms: C_8  and  C_10
REMARK    5  A    between atoms: C_10  and  N_11
REMARK                            x       y       z     vdW  Elec       q    Type
REMARK                         _______ _______ _______ _____ _____    ______ ____
ROOT
ATOM      1  N   UNL     1       1.456   9.239  19.500  0.00  0.00    +0.000 N 
ATOM      2  C   UNL     1       1.171   8.598  20.705  0.00  0.00    +0.000 A 
ATOM      3  N   UNL     1       1.430   7.353  20.985  0.00  0.00    +0.000 NA
ATOM      4  C   UNL     1       2.000   6.695  19.951  0.00  0.00    +0.000 A 
ATOM      5  C   UNL     1       2.303   7.176  18.698  0.00  0.00    +0.000 A 
ATOM      6  N   UNL     1       2.841   6.199  17.901  0.00  0.00    +0.000 NA
ATOM      7  C   UNL     1       2.853   5.114  18.656  0.00  0.00    +0.000 A 
ATOM      8  N   UNL     1       2.376   5.381  19.923  0.00  0.00    +0.000 N 
ATOM      9  C   UNL     1       2.263   4.423  21.000  0.00  0.00    +0.000 C 
ATOM     10  C   UNL     1       1.286   3.294  20.685  0.00  0.00    +0.000 C 
ATOM     11  C   UNL     1       1.846   2.241  19.725  0.00  0.00    +0.000 C 
ATOM     12  C   UNL     1       2.133   2.740  18.307  0.00  0.00    +0.000 C 
ATOM     13  C   UNL     1       3.276   3.752  18.221  0.00  0.00    +0.000 C 
ATOM     14  C   UNL     1       2.005   8.562  18.401  0.00  0.00    +0.000 A 
ATOM     15  O   UNL     1       2.188   9.105  17.311  0.00  0.00    +0.000 OA
ENDROOT
BRANCH   1  16
ATOM     16  C   UNL     1       1.131  10.643  19.327  0.00  0.00    +0.000 C 
BRANCH  16  18
ATOM     17  N   UNL     1      -0.459  11.688  20.869  0.00  0.00    +0.000 N 
ATOM     18  C   UNL     1      -0.315  10.863  19.765  0.00  0.00    +0.000 C 
ATOM     19  O   UNL     1      -1.216  10.367  19.095  0.00  0.00    +0.000 OA
ATOM     20  H   UNL     1       0.384  12.130  21.232  0.00  0.00    +0.000 HD
BRANCH  17  24
ATOM     21  C   UNL     1      -4.050  12.862  22.797  0.00  0.00    +0.000 A 
ATOM     22  C   UNL     1      -3.861  13.145  21.447  0.00  0.00    +0.000 A 
ATOM     23  C   UNL     1      -2.695  12.746  20.788  0.00  0.00    +0.000 A 
ATOM     24  C   UNL     1      -1.677  12.081  21.473  0.00  0.00    +0.000 A 
ATOM     25  C   UNL     1      -1.869  11.801  22.833  0.00  0.00    +0.000 A 
ATOM     26  C   UNL     1      -3.049  12.187  23.493  0.00  0.00    +0.000 A 
BRANCH  21  28
ATOM     27  C   UNL     1      -5.824  14.422  22.637  0.00  0.00    +0.000 C 
ATOM     28  O   UNL     1      -5.220  13.332  23.320  0.00  0.00    +0.000 OA
ENDBRANCH  21  28
ENDBRANCH  17  24
ENDBRANCH  16  18
ENDBRANCH   1  16
TORSDOF 4
ENDMDL
MODEL 5
REMARK VINA RESULT:      -8.6      1.281      2.070
REMARK  Name = 
REMARK  5 active torsions:
REMARK  status: ('A' for Active; 'I' for Inactive)
REMARK    1  A    between atoms: C_1  and  O_2
REMARK    2  A    between atoms: O_2  and  C_3
REMARK    3  A    between atoms: C_6  and  N_7
REMARK    4  A    between atoms: C_8  and  C_10
REMARK    5  A    between atoms: C_10  and  N_11
REMARK                            x       y       z     vdW  Elec       q    Type
REMARK                         _______ _______ _______ _____ _____    ______ ____
ROOT
ATOM      1  N   UNL     1       6.453   6.414  17.476  0.00  0.00    +0.000 N 
ATOM      2  C   UNL     1       5.188   6.987  17.339  0.00  0.00    +0.000 A 
ATOM      3  N   UNL     1       4.079   6.507  17.822  0.00  0.00    +0.000 NA
ATOM      4  C   UNL     1       4.258   5.337  18.475  0.00  0.00    +0.000 A 
ATOM      5  C   UNL     1       5.427   4.634  18.658  0.00  0.00    +0.000 A 
ATOM      6  N   UNL     1       5.208   3.466  19.341  0.00  0.00    +0.000 NA
ATOM      7  C   UNL     1       3.905   3.442  19.565  0.00  0.00    +0.000 A 
ATOM      8  N   UNL     1       3.294   4.579  19.078  0.00  0.00    +0.000 N 
ATOM      9  C   UNL     1       1.882   4.879  19.164  0.00  0.00    +0.000 C 
ATOM     10  C   UNL     1       1.020   3.881  18.396  0.00  0.00    +0.000 C 
ATOM     11  C   UNL     1       0.841   2.539  19.111  0.00  0.00    +0.000 C 
ATOM     12  C   UNL     1       2.119   1.710  19.271  0.00  0.00    +0.000 C 
ATOM     13  C   UNL     1       3.151   2.332  20.212  0.00  0.00    +0.000 C 
ATOM     14  C   UNL     1       6.652   5.179  18.110  0.00  0.00    +0.000 A 
ATOM     15  O   UNL     1       7.754   4.632  18.167  0.00  0.00    +0.000 OA
ENDROOT
BRANCH   1  16
ATOM     16  C   UNL     1       7.615   7.067  16.902  0.00  0.00    +0.000 C 
BRANCH  16  18
ATOM     17  N   UNL     1       8.275   9.328  17.574  0.00  0.00    +0.000 N 
ATOM     18  C   UNL     1       8.216   7.996  17.954  0.00  0.00    +0.000 C 
ATOM     19  O   UNL     1       8.531   7.528  19.045  0.00  0.00    +0.000 OA
ATOM     20  H   UNL     1       7.848   9.576  16.683  0.00  0.00    +0.000 HD
BRANCH  17  24
ATOM     21  C   UNL     1       9.647  12.639  19.843  0.00  0.00    +0.000 A 
ATOM     22  C   UNL     1       9.753  11.350  20.359  0.00  0.00    +0.000 A 
ATOM     23  C   UNL     1       9.328  10.244  19.618  0.00  0.00    +0.000 A 
ATOM     24  C   UNL     1       8.759  10.405  18.354  0.00  0.00    +0.000 A 
ATOM     25  C   UNL     1       8.650  11.704  17.839  0.00  0.00    +0.000 A 
ATOM     26  C   UNL     1       9.093  12.816  18.577  0.00  0.00    +0.000 A 
BRANCH  21  28
ATOM     27  C   UNL     1       9.429  13.703  21.947  0.00  0.00    +0.000 C 
ATOM     28  O   UNL     1      10.074  13.627  20.683  0.00  0.00    +0.000 OA
ENDBRANCH  21  28
ENDBRANCH  17  24
ENDBRANCH  16  18
ENDBRANCH   1  16
TORSDOF 4
ENDMDL
MODEL 6
REMARK VINA RESULT:      -8.5      1.386      2.367
REMARK  Name = 
REMARK  5 active torsions:
REMARK  status: ('A' for Active; 'I' for Inactive)
REMARK    1  A    between atoms: C_1  and  O_2
REMARK    2  A    between atoms: O_2  and  C_3
REMARK    3  A    between atoms: C_6  and  N_7
REMARK    4  A    between atoms: C_8  and  C_10
REMARK    5  A    between atoms: C_10  and  N_11
REMARK                            x       y       z     vdW  Elec       q    Type
REMARK                         _______ _______ _______ _____ _____    ______ ____
ROOT
ATOM      1  N   UNL     1       6.610   6.186  17.955  0.00  0.00    +0.000 N 
ATOM      2  C   UNL     1       5.645   6.232  16.949  0.00  0.00    +0.000 A 
ATOM      3  N   UNL     1       4.414   5.825  17.056  0.00  0.00    +0.000 NA
ATOM      4  C   UNL     1       4.142   5.304  18.273  0.00  0.00    +0.000 A 
ATOM      5  C   UNL     1       4.992   5.154  19.345  0.00  0.00    +0.000 A 
ATOM      6  N   UNL     1       4.365   4.546  20.402  0.00  0.00    +0.000 NA
ATOM      7  C   UNL     1       3.136   4.307  19.976  0.00  0.00    +0.000 A 
ATOM      8  N   UNL     1       2.951   4.780  18.694  0.00  0.00    +0.000 N 
ATOM      9  C   UNL     1       1.724   4.694  17.933  0.00  0.00    +0.000 C 
ATOM     10  C   UNL     1       1.311   3.253  17.644  0.00  0.00    +0.000 C 
ATOM     11  C   UNL     1       0.689   2.536  18.844  0.00  0.00    +0.000 C 
ATOM     12  C   UNL     1       1.634   2.302  20.026  0.00  0.00    +0.000 C 
ATOM     13  C   UNL     1       2.075   3.584  20.733  0.00  0.00    +0.000 C 
ATOM     14  C   UNL     1       6.361   5.608  19.208  0.00  0.00    +0.000 A 
ATOM     15  O   UNL     1       7.230   5.495  20.073  0.00  0.00    +0.000 OA
ENDROOT
BRANCH   1  16
ATOM     16  C   UNL     1       7.947   6.694  17.707  0.00  0.00    +0.000 C 
BRANCH  16  18
ATOM     17  N   UNL     1       8.861   8.722  18.731  0.00  0.00    +0.000 N 
ATOM     18  C   UNL     1       7.921   8.213  17.849  0.00  0.00    +0.000 C 
ATOM     19  O   UNL     1       7.145   8.859  17.148  0.00  0.00    +0.000 OA
ATOM     20  H   UNL     1       9.524   8.062  19.135  0.00  0.00    +0.000 HD
BRANCH  17  24
ATOM     21  C   UNL     1       9.570  12.775  19.760  0.00  0.00    +0.000 A 
ATOM     22  C   UNL     1       9.334  12.425  18.433  0.00  0.00    +0.000 A 
ATOM     23  C   UNL     1       9.076  11.099  18.077  0.00  0.00    +0.000 A 
ATOM     24  C   UNL     1       9.077  10.087  19.037  0.00  0.00    +0.000 A 
ATOM     25  C   UNL     1       9.319  10.441  20.372  0.00  0.00    +0.000 A 
ATOM     26  C   UNL     1       9.562  11.779  20.733  0.00  0.00    +0.000 A 
BRANCH  21  28
ATOM     27  C   UNL     1       9.612  14.964  18.856  0.00  0.00    +0.000 C 
ATOM     28  O   UNL     1       9.835  14.099  19.962  0.00  0.00    +0.000 OA
ENDBRANCH  21  28
ENDBRANCH  17  24
ENDBRANCH  16  18
ENDBRANCH   1  16
TORSDOF 4
ENDMDL
MODEL 7
REMARK VINA RESULT:      -8.5      6.743      9.130
REMARK  Name = 
REMARK  5 active torsions:
REMARK  status: ('A' for Active; 'I' for Inactive)
REMARK    1  A    between atoms: C_1  and  O_2
REMARK    2  A    between atoms: O_2  and  C_3
REMARK    3  A    between atoms: C_6  and  N_7
REMARK    4  A    between atoms: C_8  and  C_10
REMARK    5  A    between atoms: C_10  and  N_11
REMARK                            x       y       z     vdW  Elec       q    Type
REMARK                         _______ _______ _______ _____ _____    ______ ____
ROOT
ATOM      1  N   UNL     1       1.360   9.700  19.623  0.00  0.00    +0.000 N 
ATOM      2  C   UNL     1       1.101   9.010  20.807  0.00  0.00    +0.000 A 
ATOM      3  N   UNL     1       1.339   7.749  21.022  0.00  0.00    +0.000 NA
ATOM      4  C   UNL     1       1.857   7.126  19.940  0.00  0.00    +0.000 A 
ATOM      5  C   UNL     1       2.130   7.657  18.700  0.00  0.00    +0.000 A 
ATOM      6  N   UNL     1       2.616   6.705  17.842  0.00  0.00    +0.000 NA
ATOM      7  C   UNL     1       2.628   5.587  18.547  0.00  0.00    +0.000 A 
ATOM      8  N   UNL     1       2.200   5.806  19.840  0.00  0.00    +0.000 N 
ATOM      9  C   UNL     1       2.101   4.803  20.877  0.00  0.00    +0.000 C 
ATOM     10  C   UNL     1       1.087   3.712  20.546  0.00  0.00    +0.000 C 
ATOM     11  C   UNL     1       1.588   2.692  19.521  0.00  0.00    +0.000 C 
ATOM     12  C   UNL     1       1.839   3.247  18.117  0.00  0.00    +0.000 C 
ATOM     13  C   UNL     1       3.002   4.237  18.037  0.00  0.00    +0.000 C 
ATOM     14  C   UNL     1       1.855   9.061  18.476  0.00  0.00    +0.000 A 
ATOM     15  O   UNL     1       2.014   9.649  17.406  0.00  0.00    +0.000 OA
ENDROOT
BRANCH   1  16
ATOM     16  C   UNL     1       1.063  11.117  19.524  0.00  0.00    +0.000 C 
BRANCH  16  18
ATOM     17  N   UNL     1      -1.069  11.300  18.334  0.00  0.00    +0.000 N 
ATOM     18  C   UNL     1      -0.451  11.299  19.574  0.00  0.00    +0.000 C 
ATOM     19  O   UNL     1      -1.003  11.361  20.670  0.00  0.00    +0.000 OA
ATOM     20  H   UNL     1      -0.484  11.102  17.523  0.00  0.00    +0.000 HD
BRANCH  17  24
ATOM     21  C   UNL     1      -5.234  11.765  17.681  0.00  0.00    +0.000 A 
ATOM     22  C   UNL     1      -4.427  11.240  16.675  0.00  0.00    +0.000 A 
ATOM     23  C   UNL     1      -3.056  11.057  16.878  0.00  0.00    +0.000 A 
ATOM     24  C   UNL     1      -2.457  11.424  18.084  0.00  0.00    +0.000 A 
ATOM     25  C   UNL     1      -3.272  11.956  19.093  0.00  0.00    +0.000 A 
ATOM     26  C   UNL     1      -4.654  12.124  18.895  0.00  0.00    +0.000 A 
BRANCH  21  28
ATOM     27  C   UNL     1      -6.984  13.241  17.075  0.00  0.00    +0.000 C 
ATOM     28  O   UNL     1      -6.548  11.914  17.338  0.00  0.00    +0.000 OA
ENDBRANCH  21  28
ENDBRANCH  17  24
ENDBRANCH  16  18
ENDBRANCH   1  16
TORSDOF 4
ENDMDL
MODEL 8
REMARK VINA RESULT:      -8.5      1.272      2.242
REMARK  Name = 
REMARK  5 active torsions:
REMARK  status: ('A' for Active; 'I' for Inactive)
REMARK    1  A    between atoms: C_1  and  O_2
REMARK    2  A    between atoms: O_2  and  C_3
REMARK    3  A    between atoms: C_6  and  N_7
REMARK    4  A    between atoms: C_8  and  C_10
REMARK    5  A    between atoms: C_10  and  N_11
REMARK                            x       y       z     vdW  Elec       q    Type
REMARK                         _______ _______ _______ _____ _____    ______ ____
ROOT
ATOM      1  N   UNL     1       6.474   6.390  17.486  0.00  0.00    +0.000 N 
ATOM      2  C   UNL     1       5.213   6.966  17.335  0.00  0.00    +0.000 A 
ATOM      3  N   UNL     1       4.098   6.496  17.816  0.00  0.00    +0.000 NA
ATOM      4  C   UNL     1       4.269   5.332  18.482  0.00  0.00    +0.000 A 
ATOM      5  C   UNL     1       5.434   4.626  18.679  0.00  0.00    +0.000 A 
ATOM      6  N   UNL     1       5.207   3.466  19.373  0.00  0.00    +0.000 NA
ATOM      7  C   UNL     1       3.902   3.450  19.589  0.00  0.00    +0.000 A 
ATOM      8  N   UNL     1       3.298   4.584  19.087  0.00  0.00    +0.000 N 
ATOM      9  C   UNL     1       1.887   4.890  19.162  0.00  0.00    +0.000 C 
ATOM     10  C   UNL     1       1.025   3.887  18.399  0.00  0.00    +0.000 C 
ATOM     11  C   UNL     1       0.838   2.554  19.127  0.00  0.00    +0.000 C 
ATOM     12  C   UNL     1       2.110   1.722  19.303  0.00  0.00    +0.000 C 
ATOM     13  C   UNL     1       3.139   2.349  20.244  0.00  0.00    +0.000 C 
ATOM     14  C   UNL     1       6.664   5.161  18.134  0.00  0.00    +0.000 A 
ATOM     15  O   UNL     1       7.764   4.610  18.203  0.00  0.00    +0.000 OA
ENDROOT
BRANCH   1  16
ATOM     16  C   UNL     1       7.642   7.032  16.912  0.00  0.00    +0.000 C 
BRANCH  16  18
ATOM     17  N   UNL     1       8.239   9.324  17.537  0.00  0.00    +0.000 N 
ATOM     18  C   UNL     1       8.218   7.999  17.943  0.00  0.00    +0.000 C 
ATOM     19  O   UNL     1       8.547   7.561  19.043  0.00  0.00    +0.000 OA
ATOM     20  H   UNL     1       7.804   9.542  16.642  0.00  0.00    +0.000 HD
BRANCH  17  24
ATOM     21  C   UNL     1       9.678  12.557  19.876  0.00  0.00    +0.000 A 
ATOM     22  C   UNL     1       9.113  12.799  18.627  0.00  0.00    +0.000 A 
ATOM     23  C   UNL     1       8.612  11.750  17.850  0.00  0.00    +0.000 A 
ATOM     24  C   UNL     1       8.693  10.430  18.295  0.00  0.00    +0.000 A 
ATOM     25  C   UNL     1       9.265  10.188  19.551  0.00  0.00    +0.000 A 
ATOM     26  C   UNL     1       9.754  11.245  20.340  0.00  0.00    +0.000 A 
BRANCH  21  28
ATOM     27  C   UNL     1       9.580  14.909  20.124  0.00  0.00    +0.000 C 
ATOM     28  O   UNL     1      10.151  13.667  20.514  0.00  0.00    +0.000 OA
ENDBRANCH  21  28
ENDBRANCH  17  24
ENDBRANCH  16  18
ENDBRANCH   1  16
TORSDOF 4
ENDMDL
MODEL 9
REMARK VINA RESULT:      -8.3      6.627      8.345
REMARK  Name = 
REMARK  5 active torsions:
REMARK  status: ('A' for Active; 'I' for Inactive)
REMARK    1  A    between atoms: C_1  and  O_2
REMARK    2  A    between atoms: O_2  and  C_3
REMARK    3  A    between atoms: C_6  and  N_7
REMARK    4  A    between atoms: C_8  and  C_10
REMARK    5  A    between atoms: C_10  and  N_11
REMARK                            x       y       z     vdW  Elec       q    Type
REMARK                         _______ _______ _______ _____ _____    ______ ____
ROOT
ATOM      1  N   UNL     1       1.578   9.099  19.321  0.00  0.00    +0.000 N 
ATOM      2  C   UNL     1       1.214   8.482  20.518  0.00  0.00    +0.000 A 
ATOM      3  N   UNL     1       1.421   7.235  20.825  0.00  0.00    +0.000 NA
ATOM      4  C   UNL     1       2.022   6.546  19.829  0.00  0.00    +0.000 A 
ATOM      5  C   UNL     1       2.401   7.002  18.587  0.00  0.00    +0.000 A 
ATOM      6  N   UNL     1       2.948   5.999  17.830  0.00  0.00    +0.000 NA
ATOM      7  C   UNL     1       2.890   4.924  18.597  0.00  0.00    +0.000 A 
ATOM      8  N   UNL     1       2.359   5.221  19.835  0.00  0.00    +0.000 N 
ATOM      9  C   UNL     1       2.165   4.282  20.917  0.00  0.00    +0.000 C 
ATOM     10  C   UNL     1       1.171   3.178  20.567  0.00  0.00    +0.000 C 
ATOM     11  C   UNL     1       1.746   2.097  19.649  0.00  0.00    +0.000 C 
ATOM     12  C   UNL     1       2.117   2.567  18.240  0.00  0.00    +0.000 C 
ATOM     13  C   UNL     1       3.293   3.545  18.200  0.00  0.00    +0.000 C 
ATOM     14  C   UNL     1       2.160   8.392  18.259  0.00  0.00    +0.000 A 
ATOM     15  O   UNL     1       2.413   8.914  17.173  0.00  0.00    +0.000 OA
ENDROOT
BRANCH   1  16
ATOM     16  C   UNL     1       1.304  10.510  19.116  0.00  0.00    +0.000 C 
BRANCH  16  18
ATOM     17  N   UNL     1      -0.016  11.638  20.843  0.00  0.00    +0.000 N 
ATOM     18  C   UNL     1      -0.062  10.830  19.718  0.00  0.00    +0.000 C 
ATOM     19  O   UNL     1      -1.070  10.422  19.146  0.00  0.00    +0.000 OA
ATOM     20  H   UNL     1       0.895  12.005  21.115  0.00  0.00    +0.000 HD
BRANCH  17  24
ATOM     21  C   UNL     1      -3.377  13.121  22.964  0.00  0.00    +0.000 A 
ATOM     22  C   UNL     1      -2.745  11.955  23.389  0.00  0.00    +0.000 A 
ATOM     23  C   UNL     1      -1.623  11.462  22.718  0.00  0.00    +0.000 A 
ATOM     24  C   UNL     1      -1.124  12.110  21.587  0.00  0.00    +0.000 A 
ATOM     25  C   UNL     1      -1.764  13.282  21.159  0.00  0.00    +0.000 A 
ATOM     26  C   UNL     1      -2.883  13.787  21.845  0.00  0.00    +0.000 A 
BRANCH  21  28
ATOM     27  C   UNL     1      -5.731  13.029  23.198  0.00  0.00    +0.000 C 
ATOM     28  O   UNL     1      -4.476  13.473  23.694  0.00  0.00    +0.000 OA
ENDBRANCH  21  28
ENDBRANCH  17  24
ENDBRANCH  16  18
ENDBRANCH   1  16
TORSDOF 4
ENDMDL
