MODEL 1
REMARK VINA RESULT:      -7.3      0.000      0.000
REMARK  Name = 
REMARK  2 active torsions:
REMARK  status: ('A' for Active; 'I' for Inactive)
REMARK    1  A    between atoms: C_1  and  C_2
REMARK    2  A    between atoms: C_6  and  C_7
REMARK                            x       y       z     vdW  Elec       q    Type
REMARK                         _______ _______ _______ _____ _____    ______ ____
ROOT
ATOM      1  C   UNL     1       4.217   4.012  18.044  0.00  0.00    +0.000 A 
ATOM      2  N   UNL     1       2.944   4.297  17.921  0.00  0.00    +0.000 NA
ATOM      3  C   UNL     1       2.411   3.798  19.066  0.00  0.00    +0.000 A 
ATOM      4  C   UNL     1       1.166   3.750  19.552  0.00  0.00    +0.000 A 
ATOM      5  C   UNL     1       0.916   3.126  20.853  0.00  0.00    +0.000 A 
ATOM      6  C   UNL     1       1.940   2.602  21.557  0.00  0.00    +0.000 A 
ATOM      7  N   UNL     1       3.235   2.631  21.081  0.00  0.00    +0.000 N 
ATOM      8  C   UNL     1       3.499   3.204  19.867  0.00  0.00    +0.000 A 
ATOM      9  N   UNL     1       4.609   3.348  19.210  0.00  0.00    +0.000 NA
ATOM     10  H   UNL     1       3.988   2.235  21.625  0.00  0.00    +0.000 HD
ENDROOT
BRANCH   1  16
ATOM     11  C   UNL     1       5.915   3.732  13.333  0.00  0.00    +0.000 C 
ATOM     12  C   UNL     1       6.065   4.228  14.741  0.00  0.00    +0.000 A 
ATOM     13  C   UNL     1       7.132   5.060  15.102  0.00  0.00    +0.000 A 
ATOM     14  C   UNL     1       7.250   5.534  16.409  0.00  0.00    +0.000 A 
ATOM     15  C   UNL     1       6.299   5.186  17.367  0.00  0.00    +0.000 A 
ATOM     16  C   UNL     1       5.229   4.352  17.020  0.00  0.00    +0.000 A 
ATOM     17  C   UNL     1       5.118   3.869  15.712  0.00  0.00    +0.000 A 
ENDBRANCH   1  16
TORSDOF 1
ENDMDL
MODEL 2
REMARK VINA RESULT:      -7.1      2.495      6.181
REMARK  Name = 
REMARK  2 active torsions:
REMARK  status: ('A' for Active; 'I' for Inactive)
REMARK    1  A    between atoms: C_1  and  C_2
REMARK    2  A    between atoms: C_6  and  C_7
REMARK                            x       y       z     vdW  Elec       q    Type
REMARK                         _______ _______ _______ _____ _____    ______ ____
ROOT
ATOM      1  C   UNL     1       4.432   4.858  18.778  0.00  0.00    +0.000 A 
ATOM      2  N   UNL     1       5.531   4.699  19.473  0.00  0.00    +0.000 NA
ATOM      3  C   UNL     1       6.373   5.611  18.922  0.00  0.00    +0.000 A 
ATOM      4  C   UNL     1       7.644   5.947  19.162  0.00  0.00    +0.000 A 
ATOM      5  C   UNL     1       8.280   7.002  18.369  0.00  0.00    +0.000 A 
ATOM      6  C   UNL     1       7.583   7.630  17.401  0.00  0.00    +0.000 A 
ATOM      7  N   UNL     1       6.272   7.303  17.124  0.00  0.00    +0.000 N 
ATOM      8  C   UNL     1       5.652   6.320  17.845  0.00  0.00    +0.000 A 
ATOM      9  N   UNL     1       4.450   5.832  17.776  0.00  0.00    +0.000 NA
ATOM     10  H   UNL     1       5.767   7.787  16.397  0.00  0.00    +0.000 HD
ENDROOT
BRANCH   1  16
ATOM     11  C   UNL     1       1.303   2.457  21.877  0.00  0.00    +0.000 C 
ATOM     12  C   UNL     1       1.677   2.899  20.493  0.00  0.00    +0.000 A 
ATOM     13  C   UNL     1       0.851   2.613  19.399  0.00  0.00    +0.000 A 
ATOM     14  C   UNL     1       1.196   3.047  18.118  0.00  0.00    +0.000 A 
ATOM     15  C   UNL     1       2.367   3.776  17.920  0.00  0.00    +0.000 A 
ATOM     16  C   UNL     1       3.204   4.064  19.004  0.00  0.00    +0.000 A 
ATOM     17  C   UNL     1       2.862   3.620  20.286  0.00  0.00    +0.000 A 
ENDBRANCH   1  16
TORSDOF 1
ENDMDL
MODEL 3
REMARK VINA RESULT:      -7.1      1.052      1.074
REMARK  Name = 
REMARK  2 active torsions:
REMARK  status: ('A' for Active; 'I' for Inactive)
REMARK    1  A    between atoms: C_1  and  C_2
REMARK    2  A    between atoms: C_6  and  C_7
REMARK                            x       y       z     vdW  Elec       q    Type
REMARK                         _______ _______ _______ _____ _____    ______ ____
ROOT
ATOM      1  C   UNL     1       4.265   4.114  17.583  0.00  0.00    +0.000 A 
ATOM      2  N   UNL     1       3.361   3.167  17.519  0.00  0.00    +0.000 NA
ATOM      3  C   UNL     1       2.680   3.320  18.685  0.00  0.00    +0.000 A 
ATOM      4  C   UNL     1       1.651   2.669  19.236  0.00  0.00    +0.000 A 
ATOM      5  C   UNL     1       1.136   3.094  20.540  0.00  0.00    +0.000 A 
ATOM      6  C   UNL     1       1.700   4.138  21.179  0.00  0.00    +0.000 A 
ATOM      7  N   UNL     1       2.766   4.828  20.640  0.00  0.00    +0.000 N 
ATOM      8  C   UNL     1       3.271   4.452  19.425  0.00  0.00    +0.000 A 
ATOM      9  N   UNL     1       4.254   4.926  18.721  0.00  0.00    +0.000 NA
ATOM     10  H   UNL     1       3.172   5.609  21.134  0.00  0.00    +0.000 HD
ENDROOT
BRANCH   1  16
ATOM     11  C   UNL     1       5.823   3.569  12.847  0.00  0.00    +0.000 C 
ATOM     12  C   UNL     1       6.042   4.095  14.235  0.00  0.00    +0.000 A 
ATOM     13  C   UNL     1       7.175   4.857  14.545  0.00  0.00    +0.000 A 
ATOM     14  C   UNL     1       7.358   5.361  15.834  0.00  0.00    +0.000 A 
ATOM     15  C   UNL     1       6.408   5.112  16.823  0.00  0.00    +0.000 A 
ATOM     16  C   UNL     1       5.274   4.348  16.527  0.00  0.00    +0.000 A 
ATOM     17  C   UNL     1       5.095   3.835  15.237  0.00  0.00    +0.000 A 
ENDBRANCH   1  16
TORSDOF 1
ENDMDL
MODEL 4
REMARK VINA RESULT:      -7.1      0.705      1.473
REMARK  Name = 
REMARK  2 active torsions:
REMARK  status: ('A' for Active; 'I' for Inactive)
REMARK    1  A    between atoms: C_1  and  C_2
REMARK    2  A    between atoms: C_6  and  C_7
REMARK                            x       y       z     vdW  Elec       q    Type
REMARK                         _______ _______ _______ _____ _____    ______ ____
ROOT
ATOM      1  C   UNL     1       4.325   3.910  18.046  0.00  0.00    +0.000 A 
ATOM      2  N   UNL     1       4.657   3.308  19.161  0.00  0.00    +0.000 NA
ATOM      3  C   UNL     1       3.466   3.181  19.803  0.00  0.00    +0.000 A 
ATOM      4  C   UNL     1       3.113   2.668  20.986  0.00  0.00    +0.000 A 
ATOM      5  C   UNL     1       1.706   2.686  21.395  0.00  0.00    +0.000 A 
ATOM      6  C   UNL     1       0.774   3.218  20.580  0.00  0.00    +0.000 A 
ATOM      7  N   UNL     1       1.106   3.760  19.356  0.00  0.00    +0.000 N 
ATOM      8  C   UNL     1       2.412   3.762  18.947  0.00  0.00    +0.000 A 
ATOM      9  N   UNL     1       2.972   4.208  17.864  0.00  0.00    +0.000 NA
ATOM     10  H   UNL     1       0.392   4.151  18.759  0.00  0.00    +0.000 HD
ENDROOT
BRANCH   1  16
ATOM     11  C   UNL     1       5.920   3.689  13.296  0.00  0.00    +0.000 C 
ATOM     12  C   UNL     1       6.087   4.186  14.701  0.00  0.00    +0.000 A 
ATOM     13  C   UNL     1       7.139   5.048  15.039  0.00  0.00    +0.000 A 
ATOM     14  C   UNL     1       7.273   5.522  16.345  0.00  0.00    +0.000 A 
ATOM     15  C   UNL     1       6.355   5.145  17.323  0.00  0.00    +0.000 A 
ATOM     16  C   UNL     1       5.303   4.281  17.000  0.00  0.00    +0.000 A 
ATOM     17  C   UNL     1       5.174   3.798  15.693  0.00  0.00    +0.000 A 
ENDBRANCH   1  16
TORSDOF 1
ENDMDL
MODEL 5
REMARK VINA RESULT:      -7.0      1.056      1.092
REMARK  Name = 
REMARK  2 active torsions:
REMARK  status: ('A' for Active; 'I' for Inactive)
REMARK    1  A    between atoms: C_1  and  C_2
REMARK    2  A    between atoms: C_6  and  C_7
REMARK                            x       y       z     vdW  Elec       q    Type
REMARK                         _______ _______ _______ _____ _____    ______ ____
ROOT
ATOM      1  C   UNL     1       4.367   4.080  17.799  0.00  0.00    +0.000 A 
ATOM      2  N   UNL     1       4.105   4.953  18.741  0.00  0.00    +0.000 NA
ATOM      3  C   UNL     1       3.173   4.313  19.495  0.00  0.00    +0.000 A 
ATOM      4  C   UNL     1       2.489   4.656  20.591  0.00  0.00    +0.000 A 
ATOM      5  C   UNL     1       1.531   3.714  21.175  0.00  0.00    +0.000 A 
ATOM      6  C   UNL     1       1.343   2.506  20.608  0.00  0.00    +0.000 A 
ATOM      7  N   UNL     1       2.029   2.123  19.474  0.00  0.00    +0.000 N 
ATOM      8  C   UNL     1       2.927   2.983  18.903  0.00  0.00    +0.000 A 
ATOM      9  N   UNL     1       3.679   2.864  17.851  0.00  0.00    +0.000 NA
ATOM     10  H   UNL     1       1.876   1.213  19.066  0.00  0.00    +0.000 HD
ENDROOT
BRANCH   1  16
ATOM     11  C   UNL     1       5.741   3.591  13.001  0.00  0.00    +0.000 C 
ATOM     12  C   UNL     1       6.014   4.100  14.385  0.00  0.00    +0.000 A 
ATOM     13  C   UNL     1       7.158   4.859  14.660  0.00  0.00    +0.000 A 
ATOM     14  C   UNL     1       7.391   5.348  15.947  0.00  0.00    +0.000 A 
ATOM     15  C   UNL     1       6.480   5.088  16.969  0.00  0.00    +0.000 A 
ATOM     16  C   UNL     1       5.335   4.327  16.708  0.00  0.00    +0.000 A 
ATOM     17  C   UNL     1       5.107   3.829  15.420  0.00  0.00    +0.000 A 
ENDBRANCH   1  16
TORSDOF 1
ENDMDL
MODEL 6
REMARK VINA RESULT:      -7.0      2.424      6.013
REMARK  Name = 
REMARK  2 active torsions:
REMARK  status: ('A' for Active; 'I' for Inactive)
REMARK    1  A    between atoms: C_1  and  C_2
REMARK    2  A    between atoms: C_6  and  C_7
REMARK                            x       y       z     vdW  Elec       q    Type
REMARK                         _______ _______ _______ _____ _____    ______ ____
ROOT
ATOM      1  C   UNL     1       4.278   4.847  18.706  0.00  0.00    +0.000 A 
ATOM      2  N   UNL     1       4.323   5.733  17.742  0.00  0.00    +0.000 NA
ATOM      3  C   UNL     1       5.583   6.230  17.847  0.00  0.00    +0.000 A 
ATOM      4  C   UNL     1       6.257   7.168  17.174  0.00  0.00    +0.000 A 
ATOM      5  C   UNL     1       7.639   7.479  17.546  0.00  0.00    +0.000 A 
ATOM      6  C   UNL     1       8.227   6.820  18.564  0.00  0.00    +0.000 A 
ATOM      7  N   UNL     1       7.558   5.851  19.283  0.00  0.00    +0.000 N 
ATOM      8  C   UNL     1       6.265   5.541  18.961  0.00  0.00    +0.000 A 
ATOM      9  N   UNL     1       5.432   4.689  19.478  0.00  0.00    +0.000 NA
ATOM     10  H   UNL     1       8.017   5.367  20.040  0.00  0.00    +0.000 HD
ENDROOT
BRANCH   1  16
ATOM     11  C   UNL     1       1.341   2.464  22.000  0.00  0.00    +0.000 C 
ATOM     12  C   UNL     1       1.646   2.873  20.590  0.00  0.00    +0.000 A 
ATOM     13  C   UNL     1       0.782   2.537  19.540  0.00  0.00    +0.000 A 
ATOM     14  C   UNL     1       1.063   2.942  18.234  0.00  0.00    +0.000 A 
ATOM     15  C   UNL     1       2.207   3.692  17.966  0.00  0.00    +0.000 A 
ATOM     16  C   UNL     1       3.081   4.031  19.005  0.00  0.00    +0.000 A 
ATOM     17  C   UNL     1       2.803   3.616  20.313  0.00  0.00    +0.000 A 
ENDBRANCH   1  16
TORSDOF 1
ENDMDL
MODEL 7
REMARK VINA RESULT:      -6.8      1.078      1.085
REMARK  Name = 
REMARK  2 active torsions:
REMARK  status: ('A' for Active; 'I' for Inactive)
REMARK    1  A    between atoms: C_1  and  C_2
REMARK    2  A    between atoms: C_6  and  C_7
REMARK                            x       y       z     vdW  Elec       q    Type
REMARK                         _______ _______ _______ _____ _____    ______ ____
ROOT
ATOM      1  C   UNL     1       3.637   4.378  18.192  0.00  0.00    +0.000 A 
ATOM      2  N   UNL     1       2.365   4.609  18.404  0.00  0.00    +0.000 NA
ATOM      3  C   UNL     1       2.114   3.901  19.536  0.00  0.00    +0.000 A 
ATOM      4  C   UNL     1       1.012   3.707  20.269  0.00  0.00    +0.000 A 
ATOM      5  C   UNL     1       1.075   2.866  21.466  0.00  0.00    +0.000 A 
ATOM      6  C   UNL     1       2.241   2.291  21.826  0.00  0.00    +0.000 A 
ATOM      7  N   UNL     1       3.393   2.468  21.089  0.00  0.00    +0.000 N 
ATOM      8  C   UNL     1       3.365   3.245  19.963  0.00  0.00    +0.000 A 
ATOM      9  N   UNL     1       4.295   3.555  19.111  0.00  0.00    +0.000 NA
ATOM     10  H   UNL     1       4.256   2.031  21.377  0.00  0.00    +0.000 HD
ENDROOT
BRANCH   1  16
ATOM     11  C   UNL     1       6.159   3.729  13.905  0.00  0.00    +0.000 C 
ATOM     12  C   UNL     1       5.608   4.638  14.964  0.00  0.00    +0.000 A 
ATOM     13  C   UNL     1       5.746   6.028  14.863  0.00  0.00    +0.000 A 
ATOM     14  C   UNL     1       5.210   6.866  15.842  0.00  0.00    +0.000 A 
ATOM     15  C   UNL     1       4.527   6.323  16.929  0.00  0.00    +0.000 A 
ATOM     16  C   UNL     1       4.385   4.935  17.044  0.00  0.00    +0.000 A 
ATOM     17  C   UNL     1       4.932   4.095  16.067  0.00  0.00    +0.000 A 
ENDBRANCH   1  16
TORSDOF 1
ENDMDL
MODEL 8
REMARK VINA RESULT:      -6.7      0.898      2.037
REMARK  Name = 
REMARK  2 active torsions:
REMARK  status: ('A' for Active; 'I' for Inactive)
REMARK    1  A    between atoms: C_1  and  C_2
REMARK    2  A    between atoms: C_6  and  C_7
REMARK                            x       y       z     vdW  Elec       q    Type
REMARK                         _______ _______ _______ _____ _____    ______ ____
ROOT
ATOM      1  C   UNL     1       4.239   4.377  18.508  0.00  0.00    +0.000 A 
ATOM      2  N   UNL     1       2.969   4.656  18.344  0.00  0.00    +0.000 NA
ATOM      3  C   UNL     1       2.376   3.974  19.358  0.00  0.00    +0.000 A 
ATOM      4  C   UNL     1       1.103   3.829  19.743  0.00  0.00    +0.000 A 
ATOM      5  C   UNL     1       0.787   3.005  20.912  0.00  0.00    +0.000 A 
ATOM      6  C   UNL     1       1.777   2.395  21.594  0.00  0.00    +0.000 A 
ATOM      7  N   UNL     1       3.098   2.520  21.220  0.00  0.00    +0.000 N 
ATOM      8  C   UNL     1       3.425   3.281  20.131  0.00  0.00    +0.000 A 
ATOM      9  N   UNL     1       4.572   3.545  19.582  0.00  0.00    +0.000 NA
ATOM     10  H   UNL     1       3.825   2.058  21.746  0.00  0.00    +0.000 HD
ENDROOT
BRANCH   1  16
ATOM     11  C   UNL     1       7.756   7.793  17.452  0.00  0.00    +0.000 C 
ATOM     12  C   UNL     1       7.016   6.537  17.098  0.00  0.00    +0.000 A 
ATOM     13  C   UNL     1       7.352   5.802  15.954  0.00  0.00    +0.000 A 
ATOM     14  C   UNL     1       6.673   4.623  15.645  0.00  0.00    +0.000 A 
ATOM     15  C   UNL     1       5.655   4.164  16.479  0.00  0.00    +0.000 A 
ATOM     16  C   UNL     1       5.306   4.891  17.623  0.00  0.00    +0.000 A 
ATOM     17  C   UNL     1       5.981   6.079  17.926  0.00  0.00    +0.000 A 
ENDBRANCH   1  16
TORSDOF 1
ENDMDL
MODEL 9
REMARK VINA RESULT:      -6.7      1.764      2.947
REMARK  Name = 
REMARK  2 active torsions:
REMARK  status: ('A' for Active; 'I' for Inactive)
REMARK    1  A    between atoms: C_1  and  C_2
REMARK    2  A    between atoms: C_6  and  C_7
REMARK                            x       y       z     vdW  Elec       q    Type
REMARK                         _______ _______ _______ _____ _____    ______ ____
ROOT
ATOM      1  C   UNL     1       5.187   4.779  15.834  0.00  0.00    +0.000 A 
ATOM      2  N   UNL     1       4.818   5.977  16.217  0.00  0.00    +0.000 NA
ATOM      3  C   UNL     1       4.237   5.744  17.422  0.00  0.00    +0.000 A 
ATOM      4  C   UNL     1       3.649   6.538  18.324  0.00  0.00    +0.000 A 
ATOM      5  C   UNL     1       3.107   5.961  19.556  0.00  0.00    +0.000 A 
ATOM      6  C   UNL     1       3.203   4.635  19.779  0.00  0.00    +0.000 A 
ATOM      7  N   UNL     1       3.799   3.789  18.867  0.00  0.00    +0.000 N 
ATOM      8  C   UNL     1       4.311   4.297  17.704  0.00  0.00    +0.000 A 
ATOM      9  N   UNL     1       4.903   3.721  16.703  0.00  0.00    +0.000 NA
ATOM     10  H   UNL     1       3.864   2.799  19.054  0.00  0.00    +0.000 HD
ENDROOT
BRANCH   1  16
ATOM     11  C   UNL     1       5.352   2.455  11.393  0.00  0.00    +0.000 C 
ATOM     12  C   UNL     1       5.962   3.391  12.394  0.00  0.00    +0.000 A 
ATOM     13  C   UNL     1       7.159   4.063  12.113  0.00  0.00    +0.000 A 
ATOM     14  C   UNL     1       7.707   4.950  13.041  0.00  0.00    +0.000 A 
ATOM     15  C   UNL     1       7.062   5.177  14.256  0.00  0.00    +0.000 A 
ATOM     16  C   UNL     1       5.869   4.508  14.550  0.00  0.00    +0.000 A 
ATOM     17  C   UNL     1       5.325   3.612  13.623  0.00  0.00    +0.000 A 
ENDBRANCH   1  16
TORSDOF 1
ENDMDL
