MODEL 1
REMARK VINA RESULT:      -7.5      0.000      0.000
REMARK  Name = 
REMARK  4 active torsions:
REMARK  status: ('A' for Active; 'I' for Inactive)
REMARK    1  A    between atoms: C_2  and  C_13
REMARK    2  A    between atoms: N_3  and  N_4
REMARK    3  A    between atoms: C_5  and  C_6
REMARK    4  A    between atoms: C_16  and  C_17
REMARK                            x       y       z     vdW  Elec       q    Type
REMARK                         _______ _______ _______ _____ _____    ______ ____
ROOT
ATOM      1  O   UNL     1       2.245   6.056  20.189  0.00  0.00    +0.000 OA
ATOM      2  C   UNL     1       2.531   6.761  19.225  0.00  0.00    +0.000 C 
ATOM      3  N   UNL     1       2.141   8.082  19.053  0.00  0.00    +0.000 N 
ATOM      4  H   UNL     1       2.488   8.643  18.284  0.00  0.00    +0.000 HD
ENDROOT
BRANCH   2   5
ATOM      5  C   UNL     1       3.394   6.196  18.149  0.00  0.00    +0.000 A 
ATOM      6  C   UNL     1       4.230   6.999  17.363  0.00  0.00    +0.000 A 
ATOM      7  C   UNL     1       5.030   6.420  16.373  0.00  0.00    +0.000 A 
ATOM      8  C   UNL     1       5.000   5.035  16.145  0.00  0.00    +0.000 A 
ATOM      9  C   UNL     1       4.141   4.239  16.918  0.00  0.00    +0.000 A 
ATOM     10  C   UNL     1       3.341   4.817  17.911  0.00  0.00    +0.000 A 
BRANCH   8  11
ATOM     11  C   UNL     1       5.874   4.402  15.088  0.00  0.00    +0.000 C 
ATOM     12  F   UNL     1       6.215   3.113  15.371  0.00  0.00    +0.000 F 
ATOM     13  F   UNL     1       5.270   4.367  13.869  0.00  0.00    +0.000 F 
ATOM     14  F   UNL     1       7.047   5.067  14.909  0.00  0.00    +0.000 F 
ENDBRANCH   8  11
ENDBRANCH   2   5
BRANCH   3  15
ATOM     15  N   UNL     1       1.352   8.667  19.993  0.00  0.00    +0.000 NA
ATOM     16  C   UNL     1       0.760   9.767  19.656  0.00  0.00    +0.000 C 
BRANCH  16  17
ATOM     17  C   UNL     1      -0.132  10.463  20.605  0.00  0.00    +0.000 A 
ATOM     18  C   UNL     1      -0.980  11.480  20.153  0.00  0.00    +0.000 A 
ATOM     19  C   UNL     1      -1.806  12.152  21.055  0.00  0.00    +0.000 A 
ATOM     20  C   UNL     1      -1.781  11.803  22.404  0.00  0.00    +0.000 A 
ATOM     21 BR   UNL     1      -2.890  12.721  23.628  0.00  0.00    +0.000 Br
ATOM     22  C   UNL     1      -0.940  10.785  22.858  0.00  0.00    +0.000 A 
ATOM     23  C   UNL     1      -0.112  10.109  21.957  0.00  0.00    +0.000 A 
ENDBRANCH  16  17
ENDBRANCH   3  15
TORSDOF 4
ENDMDL
MODEL 2
REMARK VINA RESULT:      -7.5      0.050      1.035
REMARK  Name = 
REMARK  4 active torsions:
REMARK  status: ('A' for Active; 'I' for Inactive)
REMARK    1  A    between atoms: C_2  and  C_13
REMARK    2  A    between atoms: N_3  and  N_4
REMARK    3  A    between atoms: C_5  and  C_6
REMARK    4  A    between atoms: C_16  and  C_17
REMARK                            x       y       z     vdW  Elec       q    Type
REMARK                         _______ _______ _______ _____ _____    ______ ____
ROOT
ATOM      1  O   UNL     1       2.280   6.052  20.212  0.00  0.00    +0.000 OA
ATOM      2  C   UNL     1       2.543   6.747  19.234  0.00  0.00    +0.000 C 
ATOM      3  N   UNL     1       2.125   8.057  19.044  0.00  0.00    +0.000 N 
ATOM      4  H   UNL     1       2.453   8.611  18.263  0.00  0.00    +0.000 HD
ENDROOT
BRANCH   2   5
ATOM      5  C   UNL     1       3.408   6.181  18.160  0.00  0.00    +0.000 A 
ATOM      6  C   UNL     1       4.229   6.987  17.361  0.00  0.00    +0.000 A 
ATOM      7  C   UNL     1       5.031   6.407  16.373  0.00  0.00    +0.000 A 
ATOM      8  C   UNL     1       5.019   5.019  16.161  0.00  0.00    +0.000 A 
ATOM      9  C   UNL     1       4.175   4.221  16.947  0.00  0.00    +0.000 A 
ATOM     10  C   UNL     1       3.373   4.799  17.937  0.00  0.00    +0.000 A 
BRANCH   8  11
ATOM     11  C   UNL     1       5.896   4.387  15.106  0.00  0.00    +0.000 C 
ATOM     12  F   UNL     1       6.210   3.088  15.374  0.00  0.00    +0.000 F 
ATOM     13  F   UNL     1       5.307   4.380  13.878  0.00  0.00    +0.000 F 
ATOM     14  F   UNL     1       7.083   5.034  14.952  0.00  0.00    +0.000 F 
ENDBRANCH   8  11
ENDBRANCH   2   5
BRANCH   3  15
ATOM     15  N   UNL     1       1.333   8.641  19.982  0.00  0.00    +0.000 NA
ATOM     16  C   UNL     1       0.827   9.793  19.683  0.00  0.00    +0.000 C 
BRANCH  16  17
ATOM     17  C   UNL     1      -0.062  10.496  20.630  0.00  0.00    +0.000 A 
ATOM     18  C   UNL     1      -0.036  10.170  21.991  0.00  0.00    +0.000 A 
ATOM     19  C   UNL     1      -0.893  10.819  22.880  0.00  0.00    +0.000 A 
ATOM     20  C   UNL     1      -1.770  11.792  22.406  0.00  0.00    +0.000 A 
ATOM     21 BR   UNL     1      -2.940  12.662  23.607  0.00  0.00    +0.000 Br
ATOM     22  C   UNL     1      -1.796  12.124  21.049  0.00  0.00    +0.000 A 
ATOM     23  C   UNL     1      -0.938  11.476  20.155  0.00  0.00    +0.000 A 
ENDBRANCH  16  17
ENDBRANCH   3  15
TORSDOF 4
ENDMDL
MODEL 3
REMARK VINA RESULT:      -7.4      6.863      8.023
REMARK  Name = 
REMARK  4 active torsions:
REMARK  status: ('A' for Active; 'I' for Inactive)
REMARK    1  A    between atoms: C_2  and  C_13
REMARK    2  A    between atoms: N_3  and  N_4
REMARK    3  A    between atoms: C_5  and  C_6
REMARK    4  A    between atoms: C_16  and  C_17
REMARK                            x       y       z     vdW  Elec       q    Type
REMARK                         _______ _______ _______ _____ _____    ______ ____
ROOT
ATOM      1  O   UNL     1       8.362   6.634  18.734  0.00  0.00    +0.000 OA
ATOM      2  C   UNL     1       7.353   6.908  18.088  0.00  0.00    +0.000 C 
ATOM      3  N   UNL     1       7.171   8.058  17.333  0.00  0.00    +0.000 N 
ATOM      4  H   UNL     1       6.357   8.184  16.745  0.00  0.00    +0.000 HD
ENDROOT
BRANCH   2   5
ATOM      5  C   UNL     1       6.227   5.932  18.064  0.00  0.00    +0.000 A 
ATOM      6  C   UNL     1       5.932   5.105  19.155  0.00  0.00    +0.000 A 
ATOM      7  C   UNL     1       4.857   4.213  19.087  0.00  0.00    +0.000 A 
ATOM      8  C   UNL     1       4.069   4.124  17.928  0.00  0.00    +0.000 A 
ATOM      9  C   UNL     1       4.387   4.936  16.829  0.00  0.00    +0.000 A 
ATOM     10  C   UNL     1       5.461   5.831  16.896  0.00  0.00    +0.000 A 
BRANCH   8  11
ATOM     11  C   UNL     1       2.897   3.173  17.856  0.00  0.00    +0.000 C 
ATOM     12  F   UNL     1       1.933   3.435  18.785  0.00  0.00    +0.000 F 
ATOM     13  F   UNL     1       2.270   3.215  16.649  0.00  0.00    +0.000 F 
ATOM     14  F   UNL     1       3.260   1.877  18.050  0.00  0.00    +0.000 F 
ENDBRANCH   8  11
ENDBRANCH   2   5
BRANCH   3  15
ATOM     15  N   UNL     1       8.156   8.995  17.307  0.00  0.00    +0.000 NA
ATOM     16  C   UNL     1       8.018  10.008  18.099  0.00  0.00    +0.000 C 
BRANCH  16  17
ATOM     17  C   UNL     1       9.047  11.067  18.155  0.00  0.00    +0.000 A 
ATOM     18  C   UNL     1       8.752  12.357  17.702  0.00  0.00    +0.000 A 
ATOM     19  C   UNL     1       9.732  13.350  17.735  0.00  0.00    +0.000 A 
ATOM     20  C   UNL     1      11.002  13.048  18.222  0.00  0.00    +0.000 A 
ATOM     21 BR   UNL     1      12.333  14.388  18.255  0.00  0.00    +0.000 Br
ATOM     22  C   UNL     1      11.300  11.762  18.680  0.00  0.00    +0.000 A 
ATOM     23  C   UNL     1      10.319  10.766  18.650  0.00  0.00    +0.000 A 
ENDBRANCH  16  17
ENDBRANCH   3  15
TORSDOF 4
ENDMDL
MODEL 4
REMARK VINA RESULT:      -7.4      0.155      1.312
REMARK  Name = 
REMARK  4 active torsions:
REMARK  status: ('A' for Active; 'I' for Inactive)
REMARK    1  A    between atoms: C_2  and  C_13
REMARK    2  A    between atoms: N_3  and  N_4
REMARK    3  A    between atoms: C_5  and  C_6
REMARK    4  A    between atoms: C_16  and  C_17
REMARK                            x       y       z     vdW  Elec       q    Type
REMARK                         _______ _______ _______ _____ _____    ______ ____
ROOT
ATOM      1  O   UNL     1       1.987   5.961  20.247  0.00  0.00    +0.000 OA
ATOM      2  C   UNL     1       2.403   6.675  19.339  0.00  0.00    +0.000 C 
ATOM      3  N   UNL     1       2.164   8.036  19.213  0.00  0.00    +0.000 N 
ATOM      4  H   UNL     1       2.612   8.591  18.495  0.00  0.00    +0.000 HD
ENDROOT
BRANCH   2   5
ATOM      5  C   UNL     1       3.266   6.070  18.285  0.00  0.00    +0.000 A 
ATOM      6  C   UNL     1       3.319   4.687  18.066  0.00  0.00    +0.000 A 
ATOM      7  C   UNL     1       4.137   4.168  17.058  0.00  0.00    +0.000 A 
ATOM      8  C   UNL     1       4.922   5.018  16.261  0.00  0.00    +0.000 A 
ATOM      9  C   UNL     1       4.884   6.399  16.504  0.00  0.00    +0.000 A 
ATOM     10  C   UNL     1       4.065   6.920  17.511  0.00  0.00    +0.000 A 
BRANCH   8  11
ATOM     11  C   UNL     1       5.795   4.463  15.160  0.00  0.00    +0.000 C 
ATOM     12  F   UNL     1       6.967   5.143  15.008  0.00  0.00    +0.000 F 
ATOM     13  F   UNL     1       6.144   3.166  15.379  0.00  0.00    +0.000 F 
ATOM     14  F   UNL     1       5.187   4.491  13.943  0.00  0.00    +0.000 F 
ENDBRANCH   8  11
ENDBRANCH   2   5
BRANCH   3  15
ATOM     15  N   UNL     1       1.384   8.658  20.138  0.00  0.00    +0.000 NA
ATOM     16  C   UNL     1       0.703   9.681  19.733  0.00  0.00    +0.000 C 
BRANCH  16  17
ATOM     17  C   UNL     1      -0.187  10.409  20.660  0.00  0.00    +0.000 A 
ATOM     18  C   UNL     1      -1.006  11.438  20.184  0.00  0.00    +0.000 A 
ATOM     19  C   UNL     1      -1.830  12.139  21.066  0.00  0.00    +0.000 A 
ATOM     20  C   UNL     1      -1.831  11.807  22.419  0.00  0.00    +0.000 A 
ATOM     21 BR   UNL     1      -2.936  12.764  23.616  0.00  0.00    +0.000 Br
ATOM     22  C   UNL     1      -1.018  10.776  22.898  0.00  0.00    +0.000 A 
ATOM     23  C   UNL     1      -0.193  10.071  22.016  0.00  0.00    +0.000 A 
ENDBRANCH  16  17
ENDBRANCH   3  15
TORSDOF 4
ENDMDL
MODEL 5
REMARK VINA RESULT:      -7.4      7.004      8.104
REMARK  Name = 
REMARK  4 active torsions:
REMARK  status: ('A' for Active; 'I' for Inactive)
REMARK    1  A    between atoms: C_2  and  C_13
REMARK    2  A    between atoms: N_3  and  N_4
REMARK    3  A    between atoms: C_5  and  C_6
REMARK    4  A    between atoms: C_16  and  C_17
REMARK                            x       y       z     vdW  Elec       q    Type
REMARK                         _______ _______ _______ _____ _____    ______ ____
ROOT
ATOM      1  O   UNL     1       7.791   6.571  16.118  0.00  0.00    +0.000 OA
ATOM      2  C   UNL     1       7.233   6.629  17.210  0.00  0.00    +0.000 C 
ATOM      3  N   UNL     1       7.449   7.607  18.171  0.00  0.00    +0.000 N 
ATOM      4  H   UNL     1       6.891   7.657  19.013  0.00  0.00    +0.000 HD
ENDROOT
BRANCH   2   5
ATOM      5  C   UNL     1       6.210   5.601  17.552  0.00  0.00    +0.000 A 
ATOM      6  C   UNL     1       5.968   5.199  18.872  0.00  0.00    +0.000 A 
ATOM      7  C   UNL     1       4.988   4.238  19.143  0.00  0.00    +0.000 A 
ATOM      8  C   UNL     1       4.245   3.657  18.103  0.00  0.00    +0.000 A 
ATOM      9  C   UNL     1       4.511   4.045  16.782  0.00  0.00    +0.000 A 
ATOM     10  C   UNL     1       5.489   5.007  16.508  0.00  0.00    +0.000 A 
BRANCH   8  11
ATOM     11  C   UNL     1       3.175   2.630  18.393  0.00  0.00    +0.000 C 
ATOM     12  F   UNL     1       2.513   2.213  17.276  0.00  0.00    +0.000 F 
ATOM     13  F   UNL     1       3.679   1.504  18.967  0.00  0.00    +0.000 F 
ATOM     14  F   UNL     1       2.219   3.093  19.243  0.00  0.00    +0.000 F 
ENDBRANCH   8  11
ENDBRANCH   2   5
BRANCH   3  15
ATOM     15  N   UNL     1       8.369   8.579  17.930  0.00  0.00    +0.000 NA
ATOM     16  C   UNL     1       8.041   9.787  18.258  0.00  0.00    +0.000 C 
BRANCH  16  17
ATOM     17  C   UNL     1       8.983  10.906  18.052  0.00  0.00    +0.000 A 
ATOM     18  C   UNL     1       8.505  12.168  17.686  0.00  0.00    +0.000 A 
ATOM     19  C   UNL     1       9.398  13.218  17.471  0.00  0.00    +0.000 A 
ATOM     20  C   UNL     1      10.766  13.000  17.622  0.00  0.00    +0.000 A 
ATOM     21 BR   UNL     1      11.977  14.418  17.318  0.00  0.00    +0.000 Br
ATOM     22  C   UNL     1      11.248  11.743  17.992  0.00  0.00    +0.000 A 
ATOM     23  C   UNL     1      10.355  10.689  18.211  0.00  0.00    +0.000 A 
ENDBRANCH  16  17
ENDBRANCH   3  15
TORSDOF 4
ENDMDL
MODEL 6
REMARK VINA RESULT:      -7.4      0.401      1.509
REMARK  Name = 
REMARK  4 active torsions:
REMARK  status: ('A' for Active; 'I' for Inactive)
REMARK    1  A    between atoms: C_2  and  C_13
REMARK    2  A    between atoms: N_3  and  N_4
REMARK    3  A    between atoms: C_5  and  C_6
REMARK    4  A    between atoms: C_16  and  C_17
REMARK                            x       y       z     vdW  Elec       q    Type
REMARK                         _______ _______ _______ _____ _____    ______ ____
ROOT
ATOM      1  O   UNL     1       1.881   5.707  20.145  0.00  0.00    +0.000 OA
ATOM      2  C   UNL     1       2.412   6.474  19.345  0.00  0.00    +0.000 C 
ATOM      3  N   UNL     1       2.237   7.850  19.317  0.00  0.00    +0.000 N 
ATOM      4  H   UNL     1       2.775   8.441  18.695  0.00  0.00    +0.000 HD
ENDROOT
BRANCH   2   5
ATOM      5  C   UNL     1       3.352   5.919  18.330  0.00  0.00    +0.000 A 
ATOM      6  C   UNL     1       3.525   4.541  18.147  0.00  0.00    +0.000 A 
ATOM      7  C   UNL     1       4.411   4.070  17.173  0.00  0.00    +0.000 A 
ATOM      8  C   UNL     1       5.145   4.964  16.377  0.00  0.00    +0.000 A 
ATOM      9  C   UNL     1       4.987   6.342  16.584  0.00  0.00    +0.000 A 
ATOM     10  C   UNL     1       4.099   6.816  17.556  0.00  0.00    +0.000 A 
BRANCH   8  11
ATOM     11  C   UNL     1       6.092   4.459  15.313  0.00  0.00    +0.000 C 
ATOM     12  F   UNL     1       6.061   3.105  15.163  0.00  0.00    +0.000 F 
ATOM     13  F   UNL     1       5.813   4.975  14.085  0.00  0.00    +0.000 F 
ATOM     14  F   UNL     1       7.389   4.776  15.571  0.00  0.00    +0.000 F 
ENDBRANCH   8  11
ENDBRANCH   2   5
BRANCH   3  15
ATOM     15  N   UNL     1       1.394   8.428  20.213  0.00  0.00    +0.000 NA
ATOM     16  C   UNL     1       0.990   9.628  19.944  0.00  0.00    +0.000 C 
BRANCH  16  17
ATOM     17  C   UNL     1       0.056  10.329  20.848  0.00  0.00    +0.000 A 
ATOM     18  C   UNL     1      -0.086   9.909  22.175  0.00  0.00    +0.000 A 
ATOM     19  C   UNL     1      -0.984  10.560  23.021  0.00  0.00    +0.000 A 
ATOM     20  C   UNL     1      -1.736  11.628  22.537  0.00  0.00    +0.000 A 
ATOM     21 BR   UNL     1      -2.963  12.501  23.678  0.00  0.00    +0.000 Br
ATOM     22  C   UNL     1      -1.594  12.055  21.215  0.00  0.00    +0.000 A 
ATOM     23  C   UNL     1      -0.693  11.406  20.364  0.00  0.00    +0.000 A 
ENDBRANCH  16  17
ENDBRANCH   3  15
TORSDOF 4
ENDMDL
MODEL 7
REMARK VINA RESULT:      -7.2      6.836      8.002
REMARK  Name = 
REMARK  4 active torsions:
REMARK  status: ('A' for Active; 'I' for Inactive)
REMARK    1  A    between atoms: C_2  and  C_13
REMARK    2  A    between atoms: N_3  and  N_4
REMARK    3  A    between atoms: C_5  and  C_6
REMARK    4  A    between atoms: C_16  and  C_17
REMARK                            x       y       z     vdW  Elec       q    Type
REMARK                         _______ _______ _______ _____ _____    ______ ____
ROOT
ATOM      1  O   UNL     1       5.803   7.522  16.120  0.00  0.00    +0.000 OA
ATOM      2  C   UNL     1       6.266   6.987  17.123  0.00  0.00    +0.000 C 
ATOM      3  N   UNL     1       7.319   7.478  17.882  0.00  0.00    +0.000 N 
ATOM      4  H   UNL     1       7.595   7.043  18.753  0.00  0.00    +0.000 HD
ENDROOT
BRANCH   2   5
ATOM      5  C   UNL     1       5.650   5.722  17.614  0.00  0.00    +0.000 A 
ATOM      6  C   UNL     1       5.768   5.301  18.945  0.00  0.00    +0.000 A 
ATOM      7  C   UNL     1       5.162   4.112  19.361  0.00  0.00    +0.000 A 
ATOM      8  C   UNL     1       4.440   3.319  18.454  0.00  0.00    +0.000 A 
ATOM      9  C   UNL     1       4.347   3.733  17.117  0.00  0.00    +0.000 A 
ATOM     10  C   UNL     1       4.951   4.924  16.700  0.00  0.00    +0.000 A 
BRANCH   8  11
ATOM     11  C   UNL     1       3.769   2.041  18.902  0.00  0.00    +0.000 C 
ATOM     12  F   UNL     1       2.544   2.244  19.464  0.00  0.00    +0.000 F 
ATOM     13  F   UNL     1       3.566   1.174  17.873  0.00  0.00    +0.000 F 
ATOM     14  F   UNL     1       4.497   1.363  19.830  0.00  0.00    +0.000 F 
ENDBRANCH   8  11
ENDBRANCH   2   5
BRANCH   3  15
ATOM     15  N   UNL     1       7.932   8.629  17.495  0.00  0.00    +0.000 NA
ATOM     16  C   UNL     1       8.399   9.385  18.436  0.00  0.00    +0.000 C 
BRANCH  16  17
ATOM     17  C   UNL     1       9.098  10.646  18.112  0.00  0.00    +0.000 A 
ATOM     18  C   UNL     1      10.494  10.713  18.184  0.00  0.00    +0.000 A 
ATOM     19  C   UNL     1      11.150  11.911  17.900  0.00  0.00    +0.000 A 
ATOM     20  C   UNL     1      10.409  13.035  17.542  0.00  0.00    +0.000 A 
ATOM     21 BR   UNL     1      11.296  14.660  17.169  0.00  0.00    +0.000 Br
ATOM     22  C   UNL     1       9.016  12.971  17.463  0.00  0.00    +0.000 A 
ATOM     23  C   UNL     1       8.355  11.772  17.747  0.00  0.00    +0.000 A 
ENDBRANCH  16  17
ENDBRANCH   3  15
TORSDOF 4
ENDMDL
MODEL 8
REMARK VINA RESULT:      -7.2      7.055      8.161
REMARK  Name = 
REMARK  4 active torsions:
REMARK  status: ('A' for Active; 'I' for Inactive)
REMARK    1  A    between atoms: C_2  and  C_13
REMARK    2  A    between atoms: N_3  and  N_4
REMARK    3  A    between atoms: C_5  and  C_6
REMARK    4  A    between atoms: C_16  and  C_17
REMARK                            x       y       z     vdW  Elec       q    Type
REMARK                         _______ _______ _______ _____ _____    ______ ____
ROOT
ATOM      1  O   UNL     1       7.689   6.644  16.080  0.00  0.00    +0.000 OA
ATOM      2  C   UNL     1       7.164   6.589  17.189  0.00  0.00    +0.000 C 
ATOM      3  N   UNL     1       7.375   7.491  18.222  0.00  0.00    +0.000 N 
ATOM      4  H   UNL     1       6.841   7.450  19.081  0.00  0.00    +0.000 HD
ENDROOT
BRANCH   2   5
ATOM      5  C   UNL     1       6.189   5.498  17.471  0.00  0.00    +0.000 A 
ATOM      6  C   UNL     1       5.464   4.863  16.455  0.00  0.00    +0.000 A 
ATOM      7  C   UNL     1       4.569   3.836  16.769  0.00  0.00    +0.000 A 
ATOM      8  C   UNL     1       4.374   3.436  18.101  0.00  0.00    +0.000 A 
ATOM      9  C   UNL     1       5.084   4.094  19.117  0.00  0.00    +0.000 A 
ATOM     10  C   UNL     1       5.982   5.120  18.804  0.00  0.00    +0.000 A 
BRANCH   8  11
ATOM     11  C   UNL     1       3.419   2.316  18.444  0.00  0.00    +0.000 C 
ATOM     12  F   UNL     1       2.343   2.730  19.172  0.00  0.00    +0.000 F 
ATOM     13  F   UNL     1       2.908   1.713  17.337  0.00  0.00    +0.000 F 
ATOM     14  F   UNL     1       4.007   1.331  19.175  0.00  0.00    +0.000 F 
ENDBRANCH   8  11
ENDBRANCH   2   5
BRANCH   3  15
ATOM     15  N   UNL     1       8.252   8.514  18.038  0.00  0.00    +0.000 NA
ATOM     16  C   UNL     1       8.447   9.303  19.044  0.00  0.00    +0.000 C 
BRANCH  16  17
ATOM     17  C   UNL     1       9.396  10.431  18.945  0.00  0.00    +0.000 A 
ATOM     18  C   UNL     1      10.090  10.866  20.079  0.00  0.00    +0.000 A 
ATOM     19  C   UNL     1      10.969  11.946  19.987  0.00  0.00    +0.000 A 
ATOM     20  C   UNL     1      11.152  12.584  18.762  0.00  0.00    +0.000 A 
ATOM     21 BR   UNL     1      12.332  14.054  18.640  0.00  0.00    +0.000 Br
ATOM     22  C   UNL     1      10.465  12.150  17.626  0.00  0.00    +0.000 A 
ATOM     23  C   UNL     1       9.584  11.067  17.714  0.00  0.00    +0.000 A 
ENDBRANCH  16  17
ENDBRANCH   3  15
TORSDOF 4
ENDMDL
MODEL 9
REMARK VINA RESULT:      -7.2      6.865      8.043
REMARK  Name = 
REMARK  4 active torsions:
REMARK  status: ('A' for Active; 'I' for Inactive)
REMARK    1  A    between atoms: C_2  and  C_13
REMARK    2  A    between atoms: N_3  and  N_4
REMARK    3  A    between atoms: C_5  and  C_6
REMARK    4  A    between atoms: C_16  and  C_17
REMARK                            x       y       z     vdW  Elec       q    Type
REMARK                         _______ _______ _______ _____ _____    ______ ____
ROOT
ATOM      1  O   UNL     1       8.217   6.832  18.915  0.00  0.00    +0.000 OA
ATOM      2  C   UNL     1       7.309   6.989  18.103  0.00  0.00    +0.000 C 
ATOM      3  N   UNL     1       7.212   8.039  17.201  0.00  0.00    +0.000 N 
ATOM      4  H   UNL     1       6.491   8.065  16.491  0.00  0.00    +0.000 HD
ENDROOT
BRANCH   2   5
ATOM      5  C   UNL     1       6.223   5.971  18.030  0.00  0.00    +0.000 A 
ATOM      6  C   UNL     1       5.351   5.887  16.937  0.00  0.00    +0.000 A 
ATOM      7  C   UNL     1       4.355   4.906  16.910  0.00  0.00    +0.000 A 
ATOM      8  C   UNL     1       4.206   4.003  17.975  0.00  0.00    +0.000 A 
ATOM      9  C   UNL     1       5.066   4.110  19.079  0.00  0.00    +0.000 A 
ATOM     10  C   UNL     1       6.065   5.089  19.107  0.00  0.00    +0.000 A 
BRANCH   8  11
ATOM     11  C   UNL     1       3.141   2.932  17.943  0.00  0.00    +0.000 C 
ATOM     12  F   UNL     1       2.757   2.517  19.183  0.00  0.00    +0.000 F 
ATOM     13  F   UNL     1       2.003   3.350  17.323  0.00  0.00    +0.000 F 
ATOM     14  F   UNL     1       3.542   1.812  17.282  0.00  0.00    +0.000 F 
ENDBRANCH   8  11
ENDBRANCH   2   5
BRANCH   3  15
ATOM     15  N   UNL     1       8.167   9.008  17.209  0.00  0.00    +0.000 NA
ATOM     16  C   UNL     1       8.174   9.811  18.223  0.00  0.00    +0.000 C 
BRANCH  16  17
ATOM     17  C   UNL     1       9.186  10.882  18.328  0.00  0.00    +0.000 A 
ATOM     18  C   UNL     1      10.187  10.809  19.303  0.00  0.00    +0.000 A 
ATOM     19  C   UNL     1      11.128  11.833  19.414  0.00  0.00    +0.000 A 
ATOM     20  C   UNL     1      11.065  12.924  18.552  0.00  0.00    +0.000 A 
ATOM     21 BR   UNL     1      12.331  14.318  18.711  0.00  0.00    +0.000 Br
ATOM     22  C   UNL     1      10.070  13.000  17.574  0.00  0.00    +0.000 A 
ATOM     23  C   UNL     1       9.126  11.974  17.458  0.00  0.00    +0.000 A 
ENDBRANCH  16  17
ENDBRANCH   3  15
TORSDOF 4
ENDMDL
