MODEL 1
REMARK VINA RESULT:      -6.8      0.000      0.000
REMARK  Name = 
REMARK  7 active torsions:
REMARK  status: ('A' for Active; 'I' for Inactive)
REMARK    1  A    between atoms: O_1  and  C_2
REMARK    2  A    between atoms: C_2  and  C_3
REMARK    3  A    between atoms: C_3  and  N_4
REMARK    4  A    between atoms: N_4  and  N_10
REMARK    5  A    between atoms: N_10  and  C_18
REMARK    6  A    between atoms: C_11  and  C_12
REMARK    7  A    between atoms: C_18  and  C_19
REMARK                            x       y       z     vdW  Elec       q    Type
REMARK                         _______ _______ _______ _____ _____    ______ ____
ROOT
ATOM      1  N   UNL     1       3.440   6.341  17.787  0.00  0.00    +0.000 N 
ATOM      2  C   UNL     1       2.270   5.754  17.889  0.00  0.00    +0.000 C 
ENDROOT
BRANCH   1   3
ATOM      3  N   UNL     1       4.668   5.661  17.870  0.00  0.00    +0.000 N 
ATOM      4  C   UNL     1       5.422   5.362  16.690  0.00  0.00    +0.000 C 
ATOM      5  N   UNL     1       6.220   4.366  16.625  0.00  0.00    +0.000 NA
ATOM      6  C   UNL     1       6.754   4.245  15.291  0.00  0.00    +0.000 C 
ATOM      7  C   UNL     1       6.012   5.317  14.473  0.00  0.00    +0.000 C 
ATOM      8  N   UNL     1       5.306   6.059  15.476  0.00  0.00    +0.000 N 
ATOM      9  H   UNL     1       4.723   6.890  15.305  0.00  0.00    +0.000 HD
BRANCH   3  10
ATOM     10  C   UNL     1       5.389   5.524  19.141  0.00  0.00    +0.000 C 
BRANCH  10  11
ATOM     11  C   UNL     1       4.978   4.274  19.903  0.00  0.00    +0.000 C 
BRANCH  11  12
ATOM     12  O   UNL     1       5.246   3.129  19.146  0.00  0.00    +0.000 OA
ATOM     13  H   UNL     1       5.443   2.414  19.805  0.00  0.00    +0.000 HD
ENDBRANCH  11  12
ENDBRANCH  10  11
ENDBRANCH   3  10
ENDBRANCH   1   3
BRANCH   2  14
ATOM     14  C   UNL     1       1.977   4.340  18.281  0.00  0.00    +0.000 A 
ATOM     15  C   UNL     1       1.269   4.083  19.468  0.00  0.00    +0.000 A 
ATOM     16  C   UNL     1       1.013   2.762  19.850  0.00  0.00    +0.000 A 
ATOM     17  C   UNL     1       1.483   1.710  19.067  0.00  0.00    +0.000 A 
ATOM     18  C   UNL     1       2.205   1.993  17.906  0.00  0.00    +0.000 A 
ATOM     19  N   UNL     1       2.433   3.285  17.546  0.00  0.00    +0.000 NA
ENDBRANCH   2  14
BRANCH   1  20
ATOM     20  C   UNL     1       3.384   7.781  17.586  0.00  0.00    +0.000 C 
BRANCH  20  21
ATOM     21  C   UNL     1       2.321   8.423  18.420  0.00  0.00    +0.000 A 
ATOM     22  C   UNL     1       1.481   9.406  17.878  0.00  0.00    +0.000 A 
ATOM     23  C   UNL     1       0.484   9.970  18.675  0.00  0.00    +0.000 A 
ATOM     24  C   UNL     1       0.345   9.560  20.003  0.00  0.00    +0.000 A 
ATOM     25  C   UNL     1       1.213   8.590  20.512  0.00  0.00    +0.000 A 
ATOM     26  N   UNL     1       2.172   8.047  19.719  0.00  0.00    +0.000 NA
ENDBRANCH  20  21
ENDBRANCH   1  20
TORSDOF 7
ENDMDL
MODEL 2
REMARK VINA RESULT:      -6.5      2.402      5.181
REMARK  Name = 
REMARK  7 active torsions:
REMARK  status: ('A' for Active; 'I' for Inactive)
REMARK    1  A    between atoms: O_1  and  C_2
REMARK    2  A    between atoms: C_2  and  C_3
REMARK    3  A    between atoms: C_3  and  N_4
REMARK    4  A    between atoms: N_4  and  N_10
REMARK    5  A    between atoms: N_10  and  C_18
REMARK    6  A    between atoms: C_11  and  C_12
REMARK    7  A    between atoms: C_18  and  C_19
REMARK                            x       y       z     vdW  Elec       q    Type
REMARK                         _______ _______ _______ _____ _____    ______ ____
ROOT
ATOM      1  N   UNL     1       5.040   5.576  17.331  0.00  0.00    +0.000 N 
ATOM      2  C   UNL     1       3.768   5.893  17.403  0.00  0.00    +0.000 C 
ENDROOT
BRANCH   1   3
ATOM      3  N   UNL     1       5.661   4.636  18.172  0.00  0.00    +0.000 N 
ATOM      4  C   UNL     1       5.054   3.363  18.424  0.00  0.00    +0.000 C 
ATOM      5  N   UNL     1       5.265   2.709  19.501  0.00  0.00    +0.000 NA
ATOM      6  C   UNL     1       4.442   1.525  19.530  0.00  0.00    +0.000 C 
ATOM      7  C   UNL     1       3.551   1.636  18.280  0.00  0.00    +0.000 C 
ATOM      8  N   UNL     1       4.116   2.750  17.577  0.00  0.00    +0.000 N 
ATOM      9  H   UNL     1       3.801   3.101  16.662  0.00  0.00    +0.000 HD
BRANCH   3  10
ATOM     10  C   UNL     1       7.073   4.757  18.554  0.00  0.00    +0.000 C 
BRANCH  10  11
ATOM     11  C   UNL     1       7.293   5.829  19.609  0.00  0.00    +0.000 C 
BRANCH  11  12
ATOM     12  O   UNL     1       8.139   5.357  20.617  0.00  0.00    +0.000 OA
ATOM     13  H   UNL     1       8.516   6.166  21.051  0.00  0.00    +0.000 HD
ENDBRANCH  11  12
ENDBRANCH  10  11
ENDBRANCH   3  10
ENDBRANCH   1   3
BRANCH   2  14
ATOM     14  C   UNL     1       2.775   5.500  18.450  0.00  0.00    +0.000 A 
ATOM     15  C   UNL     1       2.796   6.139  19.701  0.00  0.00    +0.000 A 
ATOM     16  C   UNL     1       1.885   5.757  20.691  0.00  0.00    +0.000 A 
ATOM     17  C   UNL     1       0.978   4.729  20.439  0.00  0.00    +0.000 A 
ATOM     18  C   UNL     1       0.994   4.094  19.196  0.00  0.00    +0.000 A 
ATOM     19  N   UNL     1       1.882   4.488  18.243  0.00  0.00    +0.000 NA
ENDBRANCH   2  14
BRANCH   1  20
ATOM     20  C   UNL     1       5.789   6.285  16.305  0.00  0.00    +0.000 C 
BRANCH  20  21
ATOM     21  C   UNL     1       6.067   5.420  15.116  0.00  0.00    +0.000 A 
ATOM     22  C   UNL     1       5.103   4.518  14.644  0.00  0.00    +0.000 A 
ATOM     23  C   UNL     1       5.385   3.741  13.520  0.00  0.00    +0.000 A 
ATOM     24  C   UNL     1       6.624   3.861  12.888  0.00  0.00    +0.000 A 
ATOM     25  C   UNL     1       7.567   4.757  13.400  0.00  0.00    +0.000 A 
ATOM     26  N   UNL     1       7.272   5.511  14.490  0.00  0.00    +0.000 NA
ENDBRANCH  20  21
ENDBRANCH   1  20
TORSDOF 7
ENDMDL
MODEL 3
REMARK VINA RESULT:      -6.4      1.874      4.303
REMARK  Name = 
REMARK  7 active torsions:
REMARK  status: ('A' for Active; 'I' for Inactive)
REMARK    1  A    between atoms: O_1  and  C_2
REMARK    2  A    between atoms: C_2  and  C_3
REMARK    3  A    between atoms: C_3  and  N_4
REMARK    4  A    between atoms: N_4  and  N_10
REMARK    5  A    between atoms: N_10  and  C_18
REMARK    6  A    between atoms: C_11  and  C_12
REMARK    7  A    between atoms: C_18  and  C_19
REMARK                            x       y       z     vdW  Elec       q    Type
REMARK                         _______ _______ _______ _____ _____    ______ ____
ROOT
ATOM      1  N   UNL     1       3.253   5.378  19.148  0.00  0.00    +0.000 N 
ATOM      2  C   UNL     1       4.378   5.946  18.776  0.00  0.00    +0.000 C 
ENDROOT
BRANCH   1   3
ATOM      3  N   UNL     1       2.798   4.144  18.653  0.00  0.00    +0.000 N 
ATOM      4  C   UNL     1       3.428   2.919  19.044  0.00  0.00    +0.000 C 
ATOM      5  N   UNL     1       3.425   1.882  18.298  0.00  0.00    +0.000 NA
ATOM      6  C   UNL     1       4.224   0.840  18.894  0.00  0.00    +0.000 C 
ATOM      7  C   UNL     1       4.855   1.492  20.137  0.00  0.00    +0.000 C 
ATOM      8  N   UNL     1       4.176   2.752  20.222  0.00  0.00    +0.000 N 
ATOM      9  H   UNL     1       4.310   3.454  20.963  0.00  0.00    +0.000 HD
BRANCH   3  10
ATOM     10  C   UNL     1       1.490   4.010  18.002  0.00  0.00    +0.000 C 
BRANCH  10  11
ATOM     11  C   UNL     1       0.503   3.222  18.850  0.00  0.00    +0.000 C 
BRANCH  11  12
ATOM     12  O   UNL     1       0.319   1.941  18.321  0.00  0.00    +0.000 OA
ATOM     13  H   UNL     1       0.084   2.077  17.367  0.00  0.00    +0.000 HD
ENDBRANCH  11  12
ENDBRANCH  10  11
ENDBRANCH   3  10
ENDBRANCH   1   3
BRANCH   2  14
ATOM     14  C   UNL     1       5.296   5.539  17.667  0.00  0.00    +0.000 A 
ATOM     15  C   UNL     1       4.926   5.786  16.334  0.00  0.00    +0.000 A 
ATOM     16  C   UNL     1       5.771   5.386  15.295  0.00  0.00    +0.000 A 
ATOM     17  C   UNL     1       6.961   4.722  15.585  0.00  0.00    +0.000 A 
ATOM     18  C   UNL     1       7.293   4.467  16.916  0.00  0.00    +0.000 A 
ATOM     19  N   UNL     1       6.462   4.875  17.914  0.00  0.00    +0.000 NA
ENDBRANCH   2  14
BRANCH   1  20
ATOM     20  C   UNL     1       2.484   6.132  20.126  0.00  0.00    +0.000 C 
BRANCH  20  21
ATOM     21  C   UNL     1       2.037   7.455  19.588  0.00  0.00    +0.000 A 
ATOM     22  C   UNL     1       2.224   7.780  18.237  0.00  0.00    +0.000 A 
ATOM     23  C   UNL     1       1.776   9.013  17.761  0.00  0.00    +0.000 A 
ATOM     24  C   UNL     1       1.161   9.911  18.636  0.00  0.00    +0.000 A 
ATOM     25  C   UNL     1       1.009   9.558  19.981  0.00  0.00    +0.000 A 
ATOM     26  N   UNL     1       1.444   8.351  20.423  0.00  0.00    +0.000 NA
ENDBRANCH  20  21
ENDBRANCH   1  20
TORSDOF 7
ENDMDL
MODEL 4
REMARK VINA RESULT:      -6.4      1.111      1.369
REMARK  Name = 
REMARK  7 active torsions:
REMARK  status: ('A' for Active; 'I' for Inactive)
REMARK    1  A    between atoms: O_1  and  C_2
REMARK    2  A    between atoms: C_2  and  C_3
REMARK    3  A    between atoms: C_3  and  N_4
REMARK    4  A    between atoms: N_4  and  N_10
REMARK    5  A    between atoms: N_10  and  C_18
REMARK    6  A    between atoms: C_11  and  C_12
REMARK    7  A    between atoms: C_18  and  C_19
REMARK                            x       y       z     vdW  Elec       q    Type
REMARK                         _______ _______ _______ _____ _____    ______ ____
ROOT
ATOM      1  N   UNL     1       3.470   6.241  18.090  0.00  0.00    +0.000 N 
ATOM      2  C   UNL     1       2.287   5.765  18.405  0.00  0.00    +0.000 C 
ENDROOT
BRANCH   1   3
ATOM      3  N   UNL     1       4.646   5.471  18.076  0.00  0.00    +0.000 N 
ATOM      4  C   UNL     1       5.277   5.120  16.840  0.00  0.00    +0.000 C 
ATOM      5  N   UNL     1       5.991   4.067  16.714  0.00  0.00    +0.000 NA
ATOM      6  C   UNL     1       6.405   3.910  15.342  0.00  0.00    +0.000 C 
ATOM      7  C   UNL     1       5.681   5.037  14.583  0.00  0.00    +0.000 C 
ATOM      8  N   UNL     1       5.116   5.827  15.637  0.00  0.00    +0.000 N 
ATOM      9  H   UNL     1       4.585   6.700  15.511  0.00  0.00    +0.000 HD
BRANCH   3  10
ATOM     10  C   UNL     1       5.454   5.277  19.285  0.00  0.00    +0.000 C 
BRANCH  10  11
ATOM     11  C   UNL     1       6.879   5.779  19.111  0.00  0.00    +0.000 C 
BRANCH  11  12
ATOM     12  O   UNL     1       7.636   5.508  20.255  0.00  0.00    +0.000 OA
ATOM     13  H   UNL     1       7.714   4.520  20.296  0.00  0.00    +0.000 HD
ENDBRANCH  11  12
ENDBRANCH  10  11
ENDBRANCH   3  10
ENDBRANCH   1   3
BRANCH   2  14
ATOM     14  C   UNL     1       1.953   4.422  18.973  0.00  0.00    +0.000 A 
ATOM     15  C   UNL     1       1.495   3.403  18.120  0.00  0.00    +0.000 A 
ATOM     16  C   UNL     1       1.160   2.153  18.650  0.00  0.00    +0.000 A 
ATOM     17  C   UNL     1       1.257   1.933  20.023  0.00  0.00    +0.000 A 
ATOM     18  C   UNL     1       1.691   2.970  20.850  0.00  0.00    +0.000 A 
ATOM     19  N   UNL     1       2.023   4.175  20.313  0.00  0.00    +0.000 NA
ENDBRANCH   2  14
BRANCH   1  20
ATOM     20  C   UNL     1       3.487   7.657  17.756  0.00  0.00    +0.000 C 
BRANCH  20  21
ATOM     21  C   UNL     1       2.386   8.408  18.434  0.00  0.00    +0.000 A 
ATOM     22  C   UNL     1       1.616   9.344  17.729  0.00  0.00    +0.000 A 
ATOM     23  C   UNL     1       0.580  10.011  18.385  0.00  0.00    +0.000 A 
ATOM     24  C   UNL     1       0.333   9.751  19.734  0.00  0.00    +0.000 A 
ATOM     25  C   UNL     1       1.135   8.825  20.408  0.00  0.00    +0.000 A 
ATOM     26  N   UNL     1       2.132   8.179  19.751  0.00  0.00    +0.000 NA
ENDBRANCH  20  21
ENDBRANCH   1  20
TORSDOF 7
ENDMDL
MODEL 5
REMARK VINA RESULT:      -6.4      2.381      4.801
REMARK  Name = 
REMARK  7 active torsions:
REMARK  status: ('A' for Active; 'I' for Inactive)
REMARK    1  A    between atoms: O_1  and  C_2
REMARK    2  A    between atoms: C_2  and  C_3
REMARK    3  A    between atoms: C_3  and  N_4
REMARK    4  A    between atoms: N_4  and  N_10
REMARK    5  A    between atoms: N_10  and  C_18
REMARK    6  A    between atoms: C_11  and  C_12
REMARK    7  A    between atoms: C_18  and  C_19
REMARK                            x       y       z     vdW  Elec       q    Type
REMARK                         _______ _______ _______ _____ _____    ______ ____
ROOT
ATOM      1  N   UNL     1       4.702   5.756  17.517  0.00  0.00    +0.000 N 
ATOM      2  C   UNL     1       4.810   6.080  16.249  0.00  0.00    +0.000 C 
ENDROOT
BRANCH   1   3
ATOM      3  N   UNL     1       5.462   4.747  18.135  0.00  0.00    +0.000 N 
ATOM      4  C   UNL     1       4.911   3.443  18.350  0.00  0.00    +0.000 C 
ATOM      5  N   UNL     1       5.306   2.684  19.299  0.00  0.00    +0.000 NA
ATOM      6  C   UNL     1       4.504   1.486  19.343  0.00  0.00    +0.000 C 
ATOM      7  C   UNL     1       3.411   1.707  18.282  0.00  0.00    +0.000 C 
ATOM      8  N   UNL     1       3.843   2.901  17.615  0.00  0.00    +0.000 N 
ATOM      9  H   UNL     1       3.375   3.338  16.810  0.00  0.00    +0.000 HD
BRANCH   3  10
ATOM     10  C   UNL     1       6.917   4.858  18.281  0.00  0.00    +0.000 C 
BRANCH  10  11
ATOM     11  C   UNL     1       7.315   5.950  19.262  0.00  0.00    +0.000 C 
BRANCH  11  12
ATOM     12  O   UNL     1       7.909   5.393  20.398  0.00  0.00    +0.000 OA
ATOM     13  H   UNL     1       7.180   4.921  20.877  0.00  0.00    +0.000 HD
ENDBRANCH  11  12
ENDBRANCH  10  11
ENDBRANCH   3  10
ENDBRANCH   1   3
BRANCH   2  14
ATOM     14  C   UNL     1       5.579   5.375  15.177  0.00  0.00    +0.000 A 
ATOM     15  C   UNL     1       4.962   4.348  14.442  0.00  0.00    +0.000 A 
ATOM     16  C   UNL     1       5.685   3.671  13.455  0.00  0.00    +0.000 A 
ATOM     17  C   UNL     1       7.019   4.001  13.223  0.00  0.00    +0.000 A 
ATOM     18  C   UNL     1       7.614   5.009  13.984  0.00  0.00    +0.000 A 
ATOM     19  N   UNL     1       6.890   5.663  14.932  0.00  0.00    +0.000 NA
ENDBRANCH   2  14
BRANCH   1  20
ATOM     20  C   UNL     1       3.714   6.522  18.261  0.00  0.00    +0.000 C 
BRANCH  20  21
ATOM     21  C   UNL     1       2.761   5.639  19.002  0.00  0.00    +0.000 A 
ATOM     22  C   UNL     1       2.822   5.532  20.399  0.00  0.00    +0.000 A 
ATOM     23  C   UNL     1       1.905   4.716  21.064  0.00  0.00    +0.000 A 
ATOM     24  C   UNL     1       0.950   4.009  20.331  0.00  0.00    +0.000 A 
ATOM     25  C   UNL     1       0.933   4.127  18.938  0.00  0.00    +0.000 A 
ATOM     26  N   UNL     1       1.828   4.932  18.310  0.00  0.00    +0.000 NA
ENDBRANCH  20  21
ENDBRANCH   1  20
TORSDOF 7
ENDMDL
MODEL 6
REMARK VINA RESULT:      -6.3      2.034      5.770
REMARK  Name = 
REMARK  7 active torsions:
REMARK  status: ('A' for Active; 'I' for Inactive)
REMARK    1  A    between atoms: O_1  and  C_2
REMARK    2  A    between atoms: C_2  and  C_3
REMARK    3  A    between atoms: C_3  and  N_4
REMARK    4  A    between atoms: N_4  and  N_10
REMARK    5  A    between atoms: N_10  and  C_18
REMARK    6  A    between atoms: C_11  and  C_12
REMARK    7  A    between atoms: C_18  and  C_19
REMARK                            x       y       z     vdW  Elec       q    Type
REMARK                         _______ _______ _______ _____ _____    ______ ____
ROOT
ATOM      1  N   UNL     1       6.077   5.686  16.718  0.00  0.00    +0.000 N 
ATOM      2  C   UNL     1       5.044   6.484  16.576  0.00  0.00    +0.000 C 
ENDROOT
BRANCH   1   3
ATOM      3  N   UNL     1       6.264   4.835  17.821  0.00  0.00    +0.000 N 
ATOM      4  C   UNL     1       5.328   3.789  18.107  0.00  0.00    +0.000 C 
ATOM      5  N   UNL     1       5.146   3.342  19.290  0.00  0.00    +0.000 NA
ATOM      6  C   UNL     1       4.073   2.378  19.296  0.00  0.00    +0.000 C 
ATOM      7  C   UNL     1       3.515   2.404  17.862  0.00  0.00    +0.000 C 
ATOM      8  N   UNL     1       4.466   3.214  17.158  0.00  0.00    +0.000 N 
ATOM      9  H   UNL     1       4.443   3.424  16.151  0.00  0.00    +0.000 HD
BRANCH   3  10
ATOM     10  C   UNL     1       7.552   4.748  18.519  0.00  0.00    +0.000 C 
BRANCH  10  11
ATOM     11  C   UNL     1       7.736   5.871  19.528  0.00  0.00    +0.000 C 
BRANCH  11  12
ATOM     12  O   UNL     1       8.214   5.365  20.740  0.00  0.00    +0.000 OA
ATOM     13  H   UNL     1       8.910   6.005  21.041  0.00  0.00    +0.000 HD
ENDBRANCH  11  12
ENDBRANCH  10  11
ENDBRANCH   3  10
ENDBRANCH   1   3
BRANCH   2  14
ATOM     14  C   UNL     1       3.978   6.803  17.577  0.00  0.00    +0.000 A 
ATOM     15  C   UNL     1       3.232   7.986  17.442  0.00  0.00    +0.000 A 
ATOM     16  C   UNL     1       2.251   8.298  18.388  0.00  0.00    +0.000 A 
ATOM     17  C   UNL     1       2.037   7.448  19.471  0.00  0.00    +0.000 A 
ATOM     18  C   UNL     1       2.809   6.292  19.595  0.00  0.00    +0.000 A 
ATOM     19  N   UNL     1       3.751   6.001  18.657  0.00  0.00    +0.000 NA
ENDBRANCH   2  14
BRANCH   1  20
ATOM     20  C   UNL     1       7.048   5.746  15.636  0.00  0.00    +0.000 C 
BRANCH  20  21
ATOM     21  C   UNL     1       6.621   4.934  14.454  0.00  0.00    +0.000 A 
ATOM     22  C   UNL     1       7.427   4.856  13.309  0.00  0.00    +0.000 A 
ATOM     23  C   UNL     1       7.011   4.072  12.232  0.00  0.00    +0.000 A 
ATOM     24  C   UNL     1       5.796   3.388  12.301  0.00  0.00    +0.000 A 
ATOM     25  C   UNL     1       5.012   3.505  13.453  0.00  0.00    +0.000 A 
ATOM     26  N   UNL     1       5.437   4.266  14.494  0.00  0.00    +0.000 NA
ENDBRANCH  20  21
ENDBRANCH   1  20
TORSDOF 7
ENDMDL
MODEL 7
REMARK VINA RESULT:      -6.3      1.187      1.684
REMARK  Name = 
REMARK  7 active torsions:
REMARK  status: ('A' for Active; 'I' for Inactive)
REMARK    1  A    between atoms: O_1  and  C_2
REMARK    2  A    between atoms: C_2  and  C_3
REMARK    3  A    between atoms: C_3  and  N_4
REMARK    4  A    between atoms: N_4  and  N_10
REMARK    5  A    between atoms: N_10  and  C_18
REMARK    6  A    between atoms: C_11  and  C_12
REMARK    7  A    between atoms: C_18  and  C_19
REMARK                            x       y       z     vdW  Elec       q    Type
REMARK                         _______ _______ _______ _____ _____    ______ ____
ROOT
ATOM      1  N   UNL     1       3.655   6.214  17.917  0.00  0.00    +0.000 N 
ATOM      2  C   UNL     1       2.465   5.708  18.145  0.00  0.00    +0.000 C 
ENDROOT
BRANCH   1   3
ATOM      3  N   UNL     1       4.841   5.459  17.918  0.00  0.00    +0.000 N 
ATOM      4  C   UNL     1       5.517   5.153  16.693  0.00  0.00    +0.000 C 
ATOM      5  N   UNL     1       6.248   4.114  16.558  0.00  0.00    +0.000 NA
ATOM      6  C   UNL     1       6.708   4.005  15.196  0.00  0.00    +0.000 C 
ATOM      7  C   UNL     1       5.994   5.146  14.449  0.00  0.00    +0.000 C 
ATOM      8  N   UNL     1       5.386   5.896  15.508  0.00  0.00    +0.000 N 
ATOM      9  H   UNL     1       4.848   6.766  15.391  0.00  0.00    +0.000 HD
BRANCH   3  10
ATOM     10  C   UNL     1       5.613   5.236  19.146  0.00  0.00    +0.000 C 
BRANCH  10  11
ATOM     11  C   UNL     1       7.027   5.785  19.044  0.00  0.00    +0.000 C 
BRANCH  11  12
ATOM     12  O   UNL     1       7.745   5.506  20.211  0.00  0.00    +0.000 OA
ATOM     13  H   UNL     1       7.552   4.556  20.422  0.00  0.00    +0.000 HD
ENDBRANCH  11  12
ENDBRANCH  10  11
ENDBRANCH   3  10
ENDBRANCH   1   3
BRANCH   2  14
ATOM     14  C   UNL     1       2.122   4.331  18.618  0.00  0.00    +0.000 A 
ATOM     15  C   UNL     1       2.341   3.232  17.770  0.00  0.00    +0.000 A 
ATOM     16  C   UNL     1       2.000   1.945  18.200  0.00  0.00    +0.000 A 
ATOM     17  C   UNL     1       1.422   1.764  19.455  0.00  0.00    +0.000 A 
ATOM     18  C   UNL     1       1.192   2.875  20.267  0.00  0.00    +0.000 A 
ATOM     19  N   UNL     1       1.541   4.117  19.834  0.00  0.00    +0.000 NA
ENDBRANCH   2  14
BRANCH   1  20
ATOM     20  C   UNL     1       3.671   7.647  17.665  0.00  0.00    +0.000 C 
BRANCH  20  21
ATOM     21  C   UNL     1       2.529   8.346  18.333  0.00  0.00    +0.000 A 
ATOM     22  C   UNL     1       2.200   8.067  19.667  0.00  0.00    +0.000 A 
ATOM     23  C   UNL     1       1.143   8.753  20.269  0.00  0.00    +0.000 A 
ATOM     24  C   UNL     1       0.420   9.694  19.533  0.00  0.00    +0.000 A 
ATOM     25  C   UNL     1       0.766   9.930  18.200  0.00  0.00    +0.000 A 
ATOM     26  N   UNL     1       1.803   9.260  17.634  0.00  0.00    +0.000 NA
ENDBRANCH  20  21
ENDBRANCH   1  20
TORSDOF 7
ENDMDL
MODEL 8
REMARK VINA RESULT:      -6.2      2.568      4.895
REMARK  Name = 
REMARK  7 active torsions:
REMARK  status: ('A' for Active; 'I' for Inactive)
REMARK    1  A    between atoms: O_1  and  C_2
REMARK    2  A    between atoms: C_2  and  C_3
REMARK    3  A    between atoms: C_3  and  N_4
REMARK    4  A    between atoms: N_4  and  N_10
REMARK    5  A    between atoms: N_10  and  C_18
REMARK    6  A    between atoms: C_11  and  C_12
REMARK    7  A    between atoms: C_18  and  C_19
REMARK                            x       y       z     vdW  Elec       q    Type
REMARK                         _______ _______ _______ _____ _____    ______ ____
ROOT
ATOM      1  N   UNL     1       4.315   5.429  17.625  0.00  0.00    +0.000 N 
ATOM      2  C   UNL     1       3.030   5.230  17.438  0.00  0.00    +0.000 C 
ENDROOT
BRANCH   1   3
ATOM      3  N   UNL     1       5.054   4.848  18.670  0.00  0.00    +0.000 N 
ATOM      4  C   UNL     1       4.923   3.455  18.975  0.00  0.00    +0.000 C 
ATOM      5  N   UNL     1       5.135   2.990  20.145  0.00  0.00    +0.000 NA
ATOM      6  C   UNL     1       4.821   1.583  20.185  0.00  0.00    +0.000 C 
ATOM      7  C   UNL     1       4.229   1.275  18.798  0.00  0.00    +0.000 C 
ATOM      8  N   UNL     1       4.472   2.483  18.065  0.00  0.00    +0.000 N 
ATOM      9  H   UNL     1       4.245   2.637  17.073  0.00  0.00    +0.000 HD
BRANCH   3  10
ATOM     10  C   UNL     1       6.210   5.526  19.267  0.00  0.00    +0.000 C 
BRANCH  10  11
ATOM     11  C   UNL     1       7.530   4.991  18.733  0.00  0.00    +0.000 C 
BRANCH  11  12
ATOM     12  O   UNL     1       8.531   5.107  19.702  0.00  0.00    +0.000 OA
ATOM     13  H   UNL     1       8.057   5.271  20.558  0.00  0.00    +0.000 HD
ENDBRANCH  11  12
ENDBRANCH  10  11
ENDBRANCH   3  10
ENDBRANCH   1   3
BRANCH   2  14
ATOM     14  C   UNL     1       2.062   4.534  18.341  0.00  0.00    +0.000 A 
ATOM     15  C   UNL     1       1.845   5.030  19.638  0.00  0.00    +0.000 A 
ATOM     16  C   UNL     1       0.958   4.369  20.494  0.00  0.00    +0.000 A 
ATOM     17  C   UNL     1       0.315   3.210  20.065  0.00  0.00    +0.000 A 
ATOM     18  C   UNL     1       0.568   2.725  18.781  0.00  0.00    +0.000 A 
ATOM     19  N   UNL     1       1.426   3.389  17.960  0.00  0.00    +0.000 NA
ENDBRANCH   2  14
BRANCH   1  20
ATOM     20  C   UNL     1       4.941   6.321  16.660  0.00  0.00    +0.000 C 
BRANCH  20  21
ATOM     21  C   UNL     1       5.619   5.568  15.559  0.00  0.00    +0.000 A 
ATOM     22  C   UNL     1       4.912   4.637  14.785  0.00  0.00    +0.000 A 
ATOM     23  C   UNL     1       5.568   3.968  13.751  0.00  0.00    +0.000 A 
ATOM     24  C   UNL     1       6.920   4.222  13.509  0.00  0.00    +0.000 A 
ATOM     25  C   UNL     1       7.596   5.143  14.315  0.00  0.00    +0.000 A 
ATOM     26  N   UNL     1       6.938   5.791  15.311  0.00  0.00    +0.000 NA
ENDBRANCH  20  21
ENDBRANCH   1  20
TORSDOF 7
ENDMDL
MODEL 9
REMARK VINA RESULT:      -6.1      1.894      4.364
REMARK  Name = 
REMARK  7 active torsions:
REMARK  status: ('A' for Active; 'I' for Inactive)
REMARK    1  A    between atoms: O_1  and  C_2
REMARK    2  A    between atoms: C_2  and  C_3
REMARK    3  A    between atoms: C_3  and  N_4
REMARK    4  A    between atoms: N_4  and  N_10
REMARK    5  A    between atoms: N_10  and  C_18
REMARK    6  A    between atoms: C_11  and  C_12
REMARK    7  A    between atoms: C_18  and  C_19
REMARK                            x       y       z     vdW  Elec       q    Type
REMARK                         _______ _______ _______ _____ _____    ______ ____
ROOT
ATOM      1  N   UNL     1       3.294   5.345  19.152  0.00  0.00    +0.000 N 
ATOM      2  C   UNL     1       4.414   5.900  18.747  0.00  0.00    +0.000 C 
ENDROOT
BRANCH   1   3
ATOM      3  N   UNL     1       2.805   4.121  18.663  0.00  0.00    +0.000 N 
ATOM      4  C   UNL     1       3.426   2.884  19.029  0.00  0.00    +0.000 C 
ATOM      5  N   UNL     1       3.385   1.851  18.278  0.00  0.00    +0.000 NA
ATOM      6  C   UNL     1       4.184   0.793  18.845  0.00  0.00    +0.000 C 
ATOM      7  C   UNL     1       4.860   1.429  20.074  0.00  0.00    +0.000 C 
ATOM      8  N   UNL     1       4.204   2.699  20.185  0.00  0.00    +0.000 N 
ATOM      9  H   UNL     1       4.370   3.394  20.925  0.00  0.00    +0.000 HD
BRANCH   3  10
ATOM     10  C   UNL     1       1.477   4.012  18.048  0.00  0.00    +0.000 C 
BRANCH  10  11
ATOM     11  C   UNL     1       0.508   3.216  18.909  0.00  0.00    +0.000 C 
BRANCH  11  12
ATOM     12  O   UNL     1       0.309   1.942  18.370  0.00  0.00    +0.000 OA
ATOM     13  H   UNL     1       0.551   2.017  17.410  0.00  0.00    +0.000 HD
ENDBRANCH  11  12
ENDBRANCH  10  11
ENDBRANCH   3  10
ENDBRANCH   1   3
BRANCH   2  14
ATOM     14  C   UNL     1       5.290   5.488  17.606  0.00  0.00    +0.000 A 
ATOM     15  C   UNL     1       6.529   4.881  17.868  0.00  0.00    +0.000 A 
ATOM     16  C   UNL     1       7.361   4.516  16.804  0.00  0.00    +0.000 A 
ATOM     17  C   UNL     1       6.967   4.779  15.494  0.00  0.00    +0.000 A 
ATOM     18  C   UNL     1       5.741   5.406  15.263  0.00  0.00    +0.000 A 
ATOM     19  N   UNL     1       4.942   5.743  16.312  0.00  0.00    +0.000 NA
ENDBRANCH   2  14
BRANCH   1  20
ATOM     20  C   UNL     1       2.568   6.102  20.159  0.00  0.00    +0.000 C 
BRANCH  20  21
ATOM     21  C   UNL     1       2.067   7.408  19.627  0.00  0.00    +0.000 A 
ATOM     22  C   UNL     1       1.416   8.322  20.468  0.00  0.00    +0.000 A 
ATOM     23  C   UNL     1       0.980   9.541  19.946  0.00  0.00    +0.000 A 
ATOM     24  C   UNL     1       1.185   9.829  18.595  0.00  0.00    +0.000 A 
ATOM     25  C   UNL     1       1.822   8.885  17.785  0.00  0.00    +0.000 A 
ATOM     26  N   UNL     1       2.246   7.707  18.313  0.00  0.00    +0.000 NA
ENDBRANCH  20  21
ENDBRANCH   1  20
TORSDOF 7
ENDMDL
