MODEL 1
REMARK VINA RESULT:      -7.8      0.000      0.000
REMARK  Name = 
REMARK  3 active torsions:
REMARK  status: ('A' for Active; 'I' for Inactive)
REMARK    1  A    between atoms: C_2  and  C_10
REMARK    2  A    between atoms: N_3  and  C_4
REMARK    3  A    between atoms: C_14  and  C_15
REMARK                            x       y       z     vdW  Elec       q    Type
REMARK                         _______ _______ _______ _____ _____    ______ ____
ROOT
ATOM      1  C   UNL     1       4.676   5.598  17.579  0.00  0.00    +0.000 A 
ATOM      2  C   UNL     1       5.562   5.358  18.625  0.00  0.00    +0.000 A 
ATOM      3  C   UNL     1       6.826   4.881  18.326  0.00  0.00    +0.000 A 
ATOM      4  C   UNL     1       7.163   4.662  16.997  0.00  0.00    +0.000 A 
ATOM      5  C   UNL     1       6.222   4.908  15.988  0.00  0.00    +0.000 A 
ATOM      6  N   UNL     1       4.973   5.384  16.265  0.00  0.00    +0.000 NA
ENDROOT
BRANCH   5   7
ATOM      7  C   UNL     1       6.546   4.669  14.562  0.00  0.00    +0.000 A 
ATOM      8  C   UNL     1       7.553   5.405  13.913  0.00  0.00    +0.000 A 
ATOM      9  C   UNL     1       7.873   5.180  12.568  0.00  0.00    +0.000 A 
ATOM     10  C   UNL     1       7.189   4.211  11.838  0.00  0.00    +0.000 A 
ATOM     11  C   UNL     1       6.190   3.471  12.459  0.00  0.00    +0.000 A 
ATOM     12 CL   UNL     1       5.334   2.273  11.566  0.00  0.00    +0.000 Cl
ATOM     13  C   UNL     1       5.870   3.693  13.801  0.00  0.00    +0.000 A 
ENDBRANCH   5   7
BRANCH   1  15
ATOM     14  O   UNL     1       2.343   5.393  17.931  0.00  0.00    +0.000 OA
ATOM     15  C   UNL     1       3.320   6.136  17.931  0.00  0.00    +0.000 C 
ATOM     16  N   UNL     1       3.227   7.480  18.243  0.00  0.00    +0.000 N 
ATOM     17  H   UNL     1       4.099   8.006  18.290  0.00  0.00    +0.000 HD
BRANCH  16  18
ATOM     18  C   UNL     1       1.949   8.073  18.617  0.00  0.00    +0.000 C 
ATOM     19  C   UNL     1       1.717   9.407  17.905  0.00  0.00    +0.000 C 
ATOM     20  C   UNL     1       0.409  10.045  18.367  0.00  0.00    +0.000 C 
ATOM     21  C   UNL     1       0.349  10.125  19.887  0.00  0.00    +0.000 C 
ATOM     22  O   UNL     1       0.522   8.835  20.468  0.00  0.00    +0.000 OA
ATOM     23  C   UNL     1       1.787   8.248  20.137  0.00  0.00    +0.000 C 
ENDBRANCH  16  18
ENDBRANCH   1  15
TORSDOF 3
ENDMDL
MODEL 2
REMARK VINA RESULT:      -7.5      2.450      3.940
REMARK  Name = 
REMARK  3 active torsions:
REMARK  status: ('A' for Active; 'I' for Inactive)
REMARK    1  A    between atoms: C_2  and  C_10
REMARK    2  A    between atoms: N_3  and  C_4
REMARK    3  A    between atoms: C_14  and  C_15
REMARK                            x       y       z     vdW  Elec       q    Type
REMARK                         _______ _______ _______ _____ _____    ______ ____
ROOT
ATOM      1  C   UNL     1       2.166   6.473  20.080  0.00  0.00    +0.000 A 
ATOM      2  C   UNL     1       1.461   5.403  20.620  0.00  0.00    +0.000 A 
ATOM      3  C   UNL     1       1.920   4.119  20.382  0.00  0.00    +0.000 A 
ATOM      4  C   UNL     1       3.066   3.949  19.615  0.00  0.00    +0.000 A 
ATOM      5  C   UNL     1       3.724   5.066  19.084  0.00  0.00    +0.000 A 
ATOM      6  N   UNL     1       3.287   6.339  19.314  0.00  0.00    +0.000 NA
ENDROOT
BRANCH   5   7
ATOM      7  C   UNL     1       4.938   4.916  18.248  0.00  0.00    +0.000 A 
ATOM      8  C   UNL     1       6.221   5.108  18.792  0.00  0.00    +0.000 A 
ATOM      9  C   UNL     1       7.376   4.959  18.014  0.00  0.00    +0.000 A 
ATOM     10  C   UNL     1       7.273   4.616  16.667  0.00  0.00    +0.000 A 
ATOM     11  C   UNL     1       6.016   4.422  16.109  0.00  0.00    +0.000 A 
ATOM     12 CL   UNL     1       5.876   4.003  14.444  0.00  0.00    +0.000 Cl
ATOM     13  C   UNL     1       4.863   4.569  16.884  0.00  0.00    +0.000 A 
ENDBRANCH   5   7
BRANCH   1  15
ATOM     14  O   UNL     1       1.424   8.193  21.530  0.00  0.00    +0.000 OA
ATOM     15  C   UNL     1       1.658   7.855  20.373  0.00  0.00    +0.000 C 
ATOM     16  N   UNL     1       1.466   8.706  19.300  0.00  0.00    +0.000 N 
ATOM     17  H   UNL     1       1.756   8.367  18.383  0.00  0.00    +0.000 HD
BRANCH  16  18
ATOM     18  C   UNL     1       0.996  10.070  19.504  0.00  0.00    +0.000 C 
ATOM     19  C   UNL     1      -0.531  10.154  19.447  0.00  0.00    +0.000 C 
ATOM     20  C   UNL     1      -0.997  11.602  19.589  0.00  0.00    +0.000 C 
ATOM     21  C   UNL     1      -0.279  12.505  18.593  0.00  0.00    +0.000 C 
ATOM     22  O   UNL     1       1.134  12.405  18.747  0.00  0.00    +0.000 OA
ATOM     23  C   UNL     1       1.619  11.076  18.520  0.00  0.00    +0.000 C 
ENDBRANCH  16  18
ENDBRANCH   1  15
TORSDOF 3
ENDMDL
MODEL 3
REMARK VINA RESULT:      -7.3      3.671      7.922
REMARK  Name = 
REMARK  3 active torsions:
REMARK  status: ('A' for Active; 'I' for Inactive)
REMARK    1  A    between atoms: C_2  and  C_10
REMARK    2  A    between atoms: N_3  and  C_4
REMARK    3  A    between atoms: C_14  and  C_15
REMARK                            x       y       z     vdW  Elec       q    Type
REMARK                         _______ _______ _______ _____ _____    ______ ____
ROOT
ATOM      1  C   UNL     1       4.757   4.604  17.966  0.00  0.00    +0.000 A 
ATOM      2  C   UNL     1       4.516   3.549  18.839  0.00  0.00    +0.000 A 
ATOM      3  C   UNL     1       3.547   3.704  19.815  0.00  0.00    +0.000 A 
ATOM      4  C   UNL     1       2.853   4.906  19.885  0.00  0.00    +0.000 A 
ATOM      5  C   UNL     1       3.153   5.939  18.987  0.00  0.00    +0.000 A 
ATOM      6  N   UNL     1       4.101   5.800  18.016  0.00  0.00    +0.000 NA
ENDROOT
BRANCH   5   7
ATOM      7  C   UNL     1       2.442   7.238  19.046  0.00  0.00    +0.000 A 
ATOM      8  C   UNL     1       2.354   8.069  17.915  0.00  0.00    +0.000 A 
ATOM      9  C   UNL     1       1.676   9.293  17.957  0.00  0.00    +0.000 A 
ATOM     10  C   UNL     1       1.070   9.718  19.138  0.00  0.00    +0.000 A 
ATOM     11  C   UNL     1       1.145   8.913  20.268  0.00  0.00    +0.000 A 
ATOM     12 CL   UNL     1       0.404   9.430  21.735  0.00  0.00    +0.000 Cl
ATOM     13  C   UNL     1       1.819   7.691  20.227  0.00  0.00    +0.000 A 
ENDBRANCH   5   7
BRANCH   1  15
ATOM     14  O   UNL     1       6.985   4.330  17.210  0.00  0.00    +0.000 OA
ATOM     15  C   UNL     1       5.798   4.399  16.905  0.00  0.00    +0.000 C 
ATOM     16  N   UNL     1       5.364   4.300  15.596  0.00  0.00    +0.000 N 
ATOM     17  H   UNL     1       4.356   4.295  15.441  0.00  0.00    +0.000 HD
BRANCH  16  18
ATOM     18  C   UNL     1       6.311   4.078  14.509  0.00  0.00    +0.000 C 
ATOM     19  C   UNL     1       7.119   5.340  14.200  0.00  0.00    +0.000 C 
ATOM     20  C   UNL     1       8.050   5.107  13.012  0.00  0.00    +0.000 C 
ATOM     21  C   UNL     1       7.283   4.543  11.822  0.00  0.00    +0.000 C 
ATOM     22  O   UNL     1       6.602   3.344  12.182  0.00  0.00    +0.000 OA
ATOM     23  C   UNL     1       5.644   3.548  13.228  0.00  0.00    +0.000 C 
ENDBRANCH  16  18
ENDBRANCH   1  15
TORSDOF 3
ENDMDL
MODEL 4
REMARK VINA RESULT:      -7.3      2.160      3.737
REMARK  Name = 
REMARK  3 active torsions:
REMARK  status: ('A' for Active; 'I' for Inactive)
REMARK    1  A    between atoms: C_2  and  C_10
REMARK    2  A    between atoms: N_3  and  C_4
REMARK    3  A    between atoms: C_14  and  C_15
REMARK                            x       y       z     vdW  Elec       q    Type
REMARK                         _______ _______ _______ _____ _____    ______ ____
ROOT
ATOM      1  C   UNL     1       2.437   7.499  18.848  0.00  0.00    +0.000 A 
ATOM      2  C   UNL     1       1.915   6.837  19.955  0.00  0.00    +0.000 A 
ATOM      3  C   UNL     1       2.475   5.628  20.329  0.00  0.00    +0.000 A 
ATOM      4  C   UNL     1       3.535   5.122  19.587  0.00  0.00    +0.000 A 
ATOM      5  C   UNL     1       4.006   5.827  18.472  0.00  0.00    +0.000 A 
ATOM      6  N   UNL     1       3.469   7.024  18.093  0.00  0.00    +0.000 NA
ENDROOT
BRANCH   5   7
ATOM      7  C   UNL     1       5.124   5.306  17.650  0.00  0.00    +0.000 A 
ATOM      8  C   UNL     1       6.405   5.123  18.201  0.00  0.00    +0.000 A 
ATOM      9  C   UNL     1       7.465   4.622  17.436  0.00  0.00    +0.000 A 
ATOM     10  C   UNL     1       7.269   4.293  16.097  0.00  0.00    +0.000 A 
ATOM     11  C   UNL     1       6.011   4.465  15.531  0.00  0.00    +0.000 A 
ATOM     12 CL   UNL     1       5.757   4.067  13.876  0.00  0.00    +0.000 Cl
ATOM     13  C   UNL     1       4.952   4.964  16.294  0.00  0.00    +0.000 A 
ENDBRANCH   5   7
BRANCH   1  15
ATOM     14  O   UNL     1       2.069   9.328  17.389  0.00  0.00    +0.000 OA
ATOM     15  C   UNL     1       1.824   8.818  18.479  0.00  0.00    +0.000 C 
ATOM     16  N   UNL     1       0.994   9.419  19.408  0.00  0.00    +0.000 N 
ATOM     17  H   UNL     1       0.789   8.892  20.255  0.00  0.00    +0.000 HD
BRANCH  16  18
ATOM     18  C   UNL     1       0.344  10.691  19.116  0.00  0.00    +0.000 C 
ATOM     19  C   UNL     1       0.477  11.672  20.282  0.00  0.00    +0.000 C 
ATOM     20  C   UNL     1      -0.274  12.969  19.984  0.00  0.00    +0.000 C 
ATOM     21  C   UNL     1      -1.709  12.682  19.563  0.00  0.00    +0.000 C 
ATOM     22  O   UNL     1      -1.742  11.803  18.442  0.00  0.00    +0.000 OA
ATOM     23  C   UNL     1      -1.134  10.535  18.720  0.00  0.00    +0.000 C 
ENDBRANCH  16  18
ENDBRANCH   1  15
TORSDOF 3
ENDMDL
MODEL 5
REMARK VINA RESULT:      -7.3      2.558      4.196
REMARK  Name = 
REMARK  3 active torsions:
REMARK  status: ('A' for Active; 'I' for Inactive)
REMARK    1  A    between atoms: C_2  and  C_10
REMARK    2  A    between atoms: N_3  and  C_4
REMARK    3  A    between atoms: C_14  and  C_15
REMARK                            x       y       z     vdW  Elec       q    Type
REMARK                         _______ _______ _______ _____ _____    ______ ____
ROOT
ATOM      1  C   UNL     1       2.160   6.411  20.123  0.00  0.00    +0.000 A 
ATOM      2  C   UNL     1       1.432   5.322  20.591  0.00  0.00    +0.000 A 
ATOM      3  C   UNL     1       1.895   4.048  20.317  0.00  0.00    +0.000 A 
ATOM      4  C   UNL     1       3.068   3.904  19.586  0.00  0.00    +0.000 A 
ATOM      5  C   UNL     1       3.749   5.039  19.128  0.00  0.00    +0.000 A 
ATOM      6  N   UNL     1       3.308   6.303  19.395  0.00  0.00    +0.000 NA
ENDROOT
BRANCH   5   7
ATOM      7  C   UNL     1       4.993   4.919  18.333  0.00  0.00    +0.000 A 
ATOM      8  C   UNL     1       6.245   5.233  18.892  0.00  0.00    +0.000 A 
ATOM      9  C   UNL     1       7.428   5.113  18.152  0.00  0.00    +0.000 A 
ATOM     10  C   UNL     1       7.386   4.677  16.830  0.00  0.00    +0.000 A 
ATOM     11  C   UNL     1       6.160   4.360  16.256  0.00  0.00    +0.000 A 
ATOM     12 CL   UNL     1       6.095   3.824  14.622  0.00  0.00    +0.000 Cl
ATOM     13  C   UNL     1       4.979   4.478  16.994  0.00  0.00    +0.000 A 
ENDBRANCH   5   7
BRANCH   1  15
ATOM     14  O   UNL     1       1.325   8.554  19.557  0.00  0.00    +0.000 OA
ATOM     15  C   UNL     1       1.645   7.781  20.455  0.00  0.00    +0.000 C 
ATOM     16  N   UNL     1       1.558   8.124  21.792  0.00  0.00    +0.000 N 
ATOM     17  H   UNL     1       1.775   7.397  22.472  0.00  0.00    +0.000 HD
BRANCH  16  18
ATOM     18  C   UNL     1       1.048   9.429  22.196  0.00  0.00    +0.000 C 
ATOM     19  C   UNL     1      -0.404   9.344  22.671  0.00  0.00    +0.000 C 
ATOM     20  C   UNL     1      -0.940  10.731  23.018  0.00  0.00    +0.000 C 
ATOM     21  C   UNL     1      -0.709  11.707  21.872  0.00  0.00    +0.000 C 
ATOM     22  O   UNL     1       0.673  11.764  21.527  0.00  0.00    +0.000 OA
ATOM     23  C   UNL     1       1.185  10.497  21.097  0.00  0.00    +0.000 C 
ENDBRANCH  16  18
ENDBRANCH   1  15
TORSDOF 3
ENDMDL
MODEL 6
REMARK VINA RESULT:      -7.3      4.887      6.885
REMARK  Name = 
REMARK  3 active torsions:
REMARK  status: ('A' for Active; 'I' for Inactive)
REMARK    1  A    between atoms: C_2  and  C_10
REMARK    2  A    between atoms: N_3  and  C_4
REMARK    3  A    between atoms: C_14  and  C_15
REMARK                            x       y       z     vdW  Elec       q    Type
REMARK                         _______ _______ _______ _____ _____    ______ ____
ROOT
ATOM      1  C   UNL     1       1.254   9.321  20.255  0.00  0.00    +0.000 A 
ATOM      2  C   UNL     1       1.259   9.947  19.013  0.00  0.00    +0.000 A 
ATOM      3  C   UNL     1       1.724   9.241  17.917  0.00  0.00    +0.000 A 
ATOM      4  C   UNL     1       2.167   7.938  18.098  0.00  0.00    +0.000 A 
ATOM      5  C   UNL     1       2.153   7.366  19.377  0.00  0.00    +0.000 A 
ATOM      6  N   UNL     1       1.692   8.046  20.468  0.00  0.00    +0.000 NA
ENDROOT
BRANCH   5   7
ATOM      7  C   UNL     1       2.633   5.983  19.606  0.00  0.00    +0.000 A 
ATOM      8  C   UNL     1       3.811   5.514  18.997  0.00  0.00    +0.000 A 
ATOM      9  C   UNL     1       4.280   4.213  19.214  0.00  0.00    +0.000 A 
ATOM     10  C   UNL     1       3.577   3.346  20.048  0.00  0.00    +0.000 A 
ATOM     11  C   UNL     1       2.410   3.787  20.661  0.00  0.00    +0.000 A 
ATOM     12 CL   UNL     1       1.531   2.723  21.690  0.00  0.00    +0.000 Cl
ATOM     13  C   UNL     1       1.943   5.086  20.446  0.00  0.00    +0.000 A 
ENDBRANCH   5   7
BRANCH   1  15
ATOM     14  O   UNL     1       0.894   9.693  22.567  0.00  0.00    +0.000 OA
ATOM     15  C   UNL     1       0.724  10.102  21.422  0.00  0.00    +0.000 C 
ATOM     16  N   UNL     1       0.045  11.276  21.148  0.00  0.00    +0.000 N 
ATOM     17  H   UNL     1       0.014  11.577  20.175  0.00  0.00    +0.000 HD
BRANCH  16  18
ATOM     18  C   UNL     1      -0.482  12.103  22.228  0.00  0.00    +0.000 C 
ATOM     19  C   UNL     1      -2.005  12.004  22.320  0.00  0.00    +0.000 C 
ATOM     20  C   UNL     1      -2.541  12.934  23.408  0.00  0.00    +0.000 C 
ATOM     21  C   UNL     1      -2.011  14.350  23.222  0.00  0.00    +0.000 C 
ATOM     22  O   UNL     1      -0.586  14.359  23.197  0.00  0.00    +0.000 OA
ATOM     23  C   UNL     1      -0.050  13.576  22.123  0.00  0.00    +0.000 C 
ENDBRANCH  16  18
ENDBRANCH   1  15
TORSDOF 3
ENDMDL
MODEL 7
REMARK VINA RESULT:      -7.2      4.274      8.887
REMARK  Name = 
REMARK  3 active torsions:
REMARK  status: ('A' for Active; 'I' for Inactive)
REMARK    1  A    between atoms: C_2  and  C_10
REMARK    2  A    between atoms: N_3  and  C_4
REMARK    3  A    between atoms: C_14  and  C_15
REMARK                            x       y       z     vdW  Elec       q    Type
REMARK                         _______ _______ _______ _____ _____    ______ ____
ROOT
ATOM      1  C   UNL     1       1.068   9.244  18.826  0.00  0.00    +0.000 A 
ATOM      2  C   UNL     1       1.305   9.765  20.093  0.00  0.00    +0.000 A 
ATOM      3  C   UNL     1       0.365  10.615  20.647  0.00  0.00    +0.000 A 
ATOM      4  C   UNL     1      -0.779  10.915  19.919  0.00  0.00    +0.000 A 
ATOM      5  C   UNL     1      -0.955  10.371  18.640  0.00  0.00    +0.000 A 
ATOM      6  N   UNL     1      -0.040   9.527  18.081  0.00  0.00    +0.000 NA
ENDROOT
BRANCH   5   7
ATOM      7  C   UNL     1      -2.157  10.685  17.831  0.00  0.00    +0.000 A 
ATOM      8  C   UNL     1      -3.239  11.394  18.383  0.00  0.00    +0.000 A 
ATOM      9  C   UNL     1      -4.374  11.704  17.625  0.00  0.00    +0.000 A 
ATOM     10  C   UNL     1      -4.456  11.308  16.292  0.00  0.00    +0.000 A 
ATOM     11  C   UNL     1      -3.399  10.606  15.725  0.00  0.00    +0.000 A 
ATOM     12 CL   UNL     1      -3.490  10.107  14.079  0.00  0.00    +0.000 Cl
ATOM     13  C   UNL     1      -2.264  10.298  16.480  0.00  0.00    +0.000 A 
ENDBRANCH   5   7
BRANCH   1  15
ATOM     14  O   UNL     1       2.718   8.614  17.248  0.00  0.00    +0.000 OA
ATOM     15  C   UNL     1       2.094   8.307  18.259  0.00  0.00    +0.000 C 
ATOM     16  N   UNL     1       2.294   7.106  18.915  0.00  0.00    +0.000 N 
ATOM     17  H   UNL     1       1.787   6.965  19.788  0.00  0.00    +0.000 HD
BRANCH  16  18
ATOM     18  C   UNL     1       3.289   6.152  18.440  0.00  0.00    +0.000 C 
ATOM     19  C   UNL     1       2.638   4.976  17.710  0.00  0.00    +0.000 C 
ATOM     20  C   UNL     1       3.691   3.954  17.287  0.00  0.00    +0.000 C 
ATOM     21  C   UNL     1       4.567   3.555  18.467  0.00  0.00    +0.000 C 
ATOM     22  O   UNL     1       5.175   4.701  19.057  0.00  0.00    +0.000 OA
ATOM     23  C   UNL     1       4.212   5.637  19.558  0.00  0.00    +0.000 C 
ENDBRANCH  16  18
ENDBRANCH   1  15
TORSDOF 3
ENDMDL
MODEL 8
REMARK VINA RESULT:      -7.0      3.753      8.815
REMARK  Name = 
REMARK  3 active torsions:
REMARK  status: ('A' for Active; 'I' for Inactive)
REMARK    1  A    between atoms: C_2  and  C_10
REMARK    2  A    between atoms: N_3  and  C_4
REMARK    3  A    between atoms: C_14  and  C_15
REMARK                            x       y       z     vdW  Elec       q    Type
REMARK                         _______ _______ _______ _____ _____    ______ ____
ROOT
ATOM      1  C   UNL     1       2.726   6.731  19.009  0.00  0.00    +0.000 A 
ATOM      2  C   UNL     1       2.582   5.478  19.597  0.00  0.00    +0.000 A 
ATOM      3  C   UNL     1       1.783   5.361  20.721  0.00  0.00    +0.000 A 
ATOM      4  C   UNL     1       1.155   6.496  21.218  0.00  0.00    +0.000 A 
ATOM      5  C   UNL     1       1.351   7.733  20.591  0.00  0.00    +0.000 A 
ATOM      6  N   UNL     1       2.132   7.866  19.479  0.00  0.00    +0.000 NA
ENDROOT
BRANCH   5   7
ATOM      7  C   UNL     1       0.709   8.965  21.107  0.00  0.00    +0.000 A 
ATOM      8  C   UNL     1       0.088   8.987  22.369  0.00  0.00    +0.000 A 
ATOM      9  C   UNL     1      -0.513  10.148  22.869  0.00  0.00    +0.000 A 
ATOM     10  C   UNL     1      -0.510  11.319  22.115  0.00  0.00    +0.000 A 
ATOM     11  C   UNL     1       0.098  11.322  20.866  0.00  0.00    +0.000 A 
ATOM     12 CL   UNL     1       0.106  12.763  19.923  0.00  0.00    +0.000 Cl
ATOM     13  C   UNL     1       0.700  10.165  20.366  0.00  0.00    +0.000 A 
ENDBRANCH   5   7
BRANCH   1  15
ATOM     14  O   UNL     1       3.592   7.854  17.113  0.00  0.00    +0.000 OA
ATOM     15  C   UNL     1       3.581   6.824  17.780  0.00  0.00    +0.000 C 
ATOM     16  N   UNL     1       4.334   5.715  17.440  0.00  0.00    +0.000 N 
ATOM     17  H   UNL     1       4.321   4.929  18.089  0.00  0.00    +0.000 HD
BRANCH  16  18
ATOM     18  C   UNL     1       5.206   5.733  16.272  0.00  0.00    +0.000 C 
ATOM     19  C   UNL     1       5.004   4.494  15.398  0.00  0.00    +0.000 C 
ATOM     20  C   UNL     1       5.979   4.499  14.222  0.00  0.00    +0.000 C 
ATOM     21  C   UNL     1       7.410   4.704  14.702  0.00  0.00    +0.000 C 
ATOM     22  O   UNL     1       7.521   5.903  15.464  0.00  0.00    +0.000 OA
ATOM     23  C   UNL     1       6.694   5.890  16.633  0.00  0.00    +0.000 C 
ENDBRANCH  16  18
ENDBRANCH   1  15
TORSDOF 3
ENDMDL
MODEL 9
REMARK VINA RESULT:      -7.0      5.071      9.364
REMARK  Name = 
REMARK  3 active torsions:
REMARK  status: ('A' for Active; 'I' for Inactive)
REMARK    1  A    between atoms: C_2  and  C_10
REMARK    2  A    between atoms: N_3  and  C_4
REMARK    3  A    between atoms: C_14  and  C_15
REMARK                            x       y       z     vdW  Elec       q    Type
REMARK                         _______ _______ _______ _____ _____    ______ ____
ROOT
ATOM      1  C   UNL     1       2.078   7.838  19.033  0.00  0.00    +0.000 A 
ATOM      2  C   UNL     1       2.417   8.538  17.880  0.00  0.00    +0.000 A 
ATOM      3  C   UNL     1       1.982   9.845  17.746  0.00  0.00    +0.000 A 
ATOM      4  C   UNL     1       1.226  10.407  18.767  0.00  0.00    +0.000 A 
ATOM      5  C   UNL     1       0.902   9.646  19.897  0.00  0.00    +0.000 A 
ATOM      6  N   UNL     1       1.328   8.357  20.047  0.00  0.00    +0.000 NA
ENDROOT
BRANCH   5   7
ATOM      7  C   UNL     1       0.083  10.211  20.995  0.00  0.00    +0.000 A 
ATOM      8  C   UNL     1      -0.012   9.561  22.239  0.00  0.00    +0.000 A 
ATOM      9  C   UNL     1      -0.775  10.091  23.286  0.00  0.00    +0.000 A 
ATOM     10  C   UNL     1      -1.466  11.288  23.112  0.00  0.00    +0.000 A 
ATOM     11  C   UNL     1      -1.387  11.949  21.892  0.00  0.00    +0.000 A 
ATOM     12 CL   UNL     1      -2.240  13.427  21.664  0.00  0.00    +0.000 Cl
ATOM     13  C   UNL     1      -0.624  11.421  20.847  0.00  0.00    +0.000 A 
ENDBRANCH   5   7
BRANCH   1  15
ATOM     14  O   UNL     1       2.344   5.779  20.173  0.00  0.00    +0.000 OA
ATOM     15  C   UNL     1       2.582   6.430  19.160  0.00  0.00    +0.000 C 
ATOM     16  N   UNL     1       3.316   5.916  18.106  0.00  0.00    +0.000 N 
ATOM     17  H   UNL     1       3.403   6.500  17.275  0.00  0.00    +0.000 HD
BRANCH  16  18
ATOM     18  C   UNL     1       3.822   4.549  18.145  0.00  0.00    +0.000 C 
ATOM     19  C   UNL     1       2.705   3.529  17.919  0.00  0.00    +0.000 C 
ATOM     20  C   UNL     1       3.245   2.104  18.037  0.00  0.00    +0.000 C 
ATOM     21  C   UNL     1       4.013   1.920  19.340  0.00  0.00    +0.000 C 
ATOM     22  O   UNL     1       5.064   2.875  19.447  0.00  0.00    +0.000 OA
ATOM     23  C   UNL     1       4.583   4.225  19.442  0.00  0.00    +0.000 C 
ENDBRANCH  16  18
ENDBRANCH   1  15
TORSDOF 3
ENDMDL
