MODEL 1
REMARK VINA RESULT:      -9.2      0.000      0.000
REMARK  Name = 
REMARK  6 active torsions:
REMARK  status: ('A' for Active; 'I' for Inactive)
REMARK    1  A    between atoms: C_1  and  C_2
REMARK    2  A    between atoms: C_4  and  C_5
REMARK    3  A    between atoms: C_6  and  O_7
REMARK    4  A    between atoms: O_7  and  C_8
REMARK    5  A    between atoms: N_13  and  C_14
REMARK    6  A    between atoms: C_22  and  C_23
REMARK                            x       y       z     vdW  Elec       q    Type
REMARK                         _______ _______ _______ _____ _____    ______ ____
ROOT
ATOM      1  C   UNL     1       4.858   6.056  17.695  0.00  0.00    +0.000 A 
ATOM      2  N   UNL     1       5.547   5.817  18.797  0.00  0.00    +0.000 NA
ATOM      3  C   UNL     1       6.858   5.786  18.650  0.00  0.00    +0.000 A 
ATOM      4  N   UNL     1       7.500   5.810  17.499  0.00  0.00    +0.000 NA
ATOM      5  C   UNL     1       6.707   5.842  16.432  0.00  0.00    +0.000 A 
ATOM      6  N   UNL     1       7.368   5.691  15.212  0.00  0.00    +0.000 N 
ATOM      7  N   UNL     1       5.380   5.996  16.477  0.00  0.00    +0.000 NA
ATOM      8  H   UNL     1       8.361   5.608  15.404  0.00  0.00    +0.000 HD
ENDROOT
BRANCH   6   9
ATOM      9  C   UNL     1       6.956   4.912  14.119  0.00  0.00    +0.000 A 
ATOM     10  C   UNL     1       5.801   4.132  14.258  0.00  0.00    +0.000 A 
ATOM     11  C   UNL     1       5.388   3.282  13.233  0.00  0.00    +0.000 A 
ATOM     12  C   UNL     1       6.116   3.233  12.050  0.00  0.00    +0.000 A 
ATOM     13  F   UNL     1       5.738   2.396  11.076  0.00  0.00    +0.000 F 
ATOM     14  C   UNL     1       7.234   4.035  11.867  0.00  0.00    +0.000 A 
ATOM     15  C   UNL     1       7.652   4.875  12.901  0.00  0.00    +0.000 A 
ENDBRANCH   6   9
BRANCH   1  16
ATOM     16  O   UNL     1       3.477   6.134  17.778  0.00  0.00    +0.000 OA
BRANCH  16  22
ATOM     17  C   UNL     1       1.233   2.620  21.692  0.00  0.00    +0.000 C 
ATOM     18  C   UNL     1       1.728   3.540  20.621  0.00  0.00    +0.000 A 
ATOM     19  C   UNL     1       2.225   3.090  19.402  0.00  0.00    +0.000 A 
ATOM     20  C   UNL     1       2.736   4.001  18.451  0.00  0.00    +0.000 A 
ATOM     21  C   UNL     1       3.256   3.431  17.153  0.00  0.00    +0.000 C 
ATOM     22  C   UNL     1       2.754   5.402  18.717  0.00  0.00    +0.000 A 
ATOM     23  C   UNL     1       2.210   5.852  19.934  0.00  0.00    +0.000 A 
ATOM     24  C   UNL     1       2.090   7.266  20.437  0.00  0.00    +0.000 C 
ATOM     25  C   UNL     1       1.718   4.907  20.862  0.00  0.00    +0.000 A 
ENDBRANCH  16  22
ENDBRANCH   1  16
TORSDOF 3
ENDMDL
MODEL 2
REMARK VINA RESULT:      -8.9      1.060      2.210
REMARK  Name = 
REMARK  6 active torsions:
REMARK  status: ('A' for Active; 'I' for Inactive)
REMARK    1  A    between atoms: C_1  and  C_2
REMARK    2  A    between atoms: C_4  and  C_5
REMARK    3  A    between atoms: C_6  and  O_7
REMARK    4  A    between atoms: O_7  and  C_8
REMARK    5  A    between atoms: N_13  and  C_14
REMARK    6  A    between atoms: C_22  and  C_23
REMARK                            x       y       z     vdW  Elec       q    Type
REMARK                         _______ _______ _______ _____ _____    ______ ____
ROOT
ATOM      1  C   UNL     1       5.089   5.206  18.256  0.00  0.00    +0.000 A 
ATOM      2  N   UNL     1       5.960   5.052  19.237  0.00  0.00    +0.000 NA
ATOM      3  C   UNL     1       7.205   5.377  18.946  0.00  0.00    +0.000 A 
ATOM      4  N   UNL     1       7.657   5.676  17.745  0.00  0.00    +0.000 NA
ATOM      5  C   UNL     1       6.742   5.601  16.782  0.00  0.00    +0.000 A 
ATOM      6  N   UNL     1       7.246   5.744  15.489  0.00  0.00    +0.000 N 
ATOM      7  N   UNL     1       5.438   5.400  16.990  0.00  0.00    +0.000 NA
ATOM      8  H   UNL     1       8.246   5.904  15.559  0.00  0.00    +0.000 HD
ENDROOT
BRANCH   6   9
ATOM      9  C   UNL     1       6.893   4.991  14.357  0.00  0.00    +0.000 A 
ATOM     10  C   UNL     1       5.728   4.215  14.414  0.00  0.00    +0.000 A 
ATOM     11  C   UNL     1       5.371   3.389  13.348  0.00  0.00    +0.000 A 
ATOM     12  C   UNL     1       6.163   3.363  12.208  0.00  0.00    +0.000 A 
ATOM     13  F   UNL     1       5.837   2.549  11.196  0.00  0.00    +0.000 F 
ATOM     14  C   UNL     1       7.293   4.163  12.106  0.00  0.00    +0.000 A 
ATOM     15  C   UNL     1       7.657   4.977  13.180  0.00  0.00    +0.000 A 
ENDBRANCH   6   9
BRANCH   1  16
ATOM     16  O   UNL     1       3.756   4.914  18.497  0.00  0.00    +0.000 OA
BRANCH  16  22
ATOM     17  C   UNL     1       0.663   8.597  21.590  0.00  0.00    +0.000 C 
ATOM     18  C   UNL     1       1.385   7.602  20.736  0.00  0.00    +0.000 A 
ATOM     19  C   UNL     1       1.544   6.267  21.093  0.00  0.00    +0.000 A 
ATOM     20  C   UNL     1       2.288   5.386  20.278  0.00  0.00    +0.000 A 
ATOM     21  C   UNL     1       2.413   3.953  20.736  0.00  0.00    +0.000 C 
ATOM     22  C   UNL     1       2.890   5.844  19.068  0.00  0.00    +0.000 A 
ATOM     23  C   UNL     1       2.688   7.184  18.693  0.00  0.00    +0.000 A 
ATOM     24  C   UNL     1       3.193   7.897  17.466  0.00  0.00    +0.000 C 
ATOM     25  C   UNL     1       1.946   8.035  19.542  0.00  0.00    +0.000 A 
ENDBRANCH  16  22
ENDBRANCH   1  16
TORSDOF 3
ENDMDL
MODEL 3
REMARK VINA RESULT:      -8.8      2.973      5.370
REMARK  Name = 
REMARK  6 active torsions:
REMARK  status: ('A' for Active; 'I' for Inactive)
REMARK    1  A    between atoms: C_1  and  C_2
REMARK    2  A    between atoms: C_4  and  C_5
REMARK    3  A    between atoms: C_6  and  O_7
REMARK    4  A    between atoms: O_7  and  C_8
REMARK    5  A    between atoms: N_13  and  C_14
REMARK    6  A    between atoms: C_22  and  C_23
REMARK                            x       y       z     vdW  Elec       q    Type
REMARK                         _______ _______ _______ _____ _____    ______ ____
ROOT
ATOM      1  C   UNL     1       2.210   6.049  20.423  0.00  0.00    +0.000 A 
ATOM      2  N   UNL     1       1.057   5.407  20.493  0.00  0.00    +0.000 NA
ATOM      3  C   UNL     1       1.117   4.108  20.269  0.00  0.00    +0.000 A 
ATOM      4  N   UNL     1       2.176   3.455  19.834  0.00  0.00    +0.000 NA
ATOM      5  C   UNL     1       3.233   4.226  19.594  0.00  0.00    +0.000 A 
ATOM      6  N   UNL     1       4.298   3.574  18.970  0.00  0.00    +0.000 N 
ATOM      7  N   UNL     1       3.310   5.524  19.900  0.00  0.00    +0.000 NA
ATOM      8  H   UNL     1       4.038   2.601  18.845  0.00  0.00    +0.000 HD
ENDROOT
BRANCH   6   9
ATOM      9  C   UNL     1       5.090   4.065  17.920  0.00  0.00    +0.000 A 
ATOM     10  C   UNL     1       4.549   4.071  16.628  0.00  0.00    +0.000 A 
ATOM     11  C   UNL     1       5.317   4.476  15.536  0.00  0.00    +0.000 A 
ATOM     12  C   UNL     1       6.622   4.907  15.741  0.00  0.00    +0.000 A 
ATOM     13  F   UNL     1       7.370   5.268  14.690  0.00  0.00    +0.000 F 
ATOM     14  C   UNL     1       7.164   4.961  17.017  0.00  0.00    +0.000 A 
ATOM     15  C   UNL     1       6.397   4.541  18.106  0.00  0.00    +0.000 A 
ENDBRANCH   6   9
BRANCH   1  16
ATOM     16  O   UNL     1       2.229   7.411  20.677  0.00  0.00    +0.000 OA
BRANCH  16  22
ATOM     17  C   UNL     1      -0.730  11.680  18.285  0.00  0.00    +0.000 C 
ATOM     18  C   UNL     1      -0.032  10.499  18.884  0.00  0.00    +0.000 A 
ATOM     19  C   UNL     1      -0.268  10.055  20.181  0.00  0.00    +0.000 A 
ATOM     20  C   UNL     1       0.465   8.972  20.716  0.00  0.00    +0.000 A 
ATOM     21  C   UNL     1       0.149   8.551  22.131  0.00  0.00    +0.000 C 
ATOM     22  C   UNL     1       1.460   8.308  19.939  0.00  0.00    +0.000 A 
ATOM     23  C   UNL     1       1.661   8.736  18.615  0.00  0.00    +0.000 A 
ATOM     24  C   UNL     1       2.624   8.192  17.592  0.00  0.00    +0.000 C 
ATOM     25  C   UNL     1       0.914   9.830  18.120  0.00  0.00    +0.000 A 
ENDBRANCH  16  22
ENDBRANCH   1  16
TORSDOF 3
ENDMDL
MODEL 4
REMARK VINA RESULT:      -8.8      1.112      2.505
REMARK  Name = 
REMARK  6 active torsions:
REMARK  status: ('A' for Active; 'I' for Inactive)
REMARK    1  A    between atoms: C_1  and  C_2
REMARK    2  A    between atoms: C_4  and  C_5
REMARK    3  A    between atoms: C_6  and  O_7
REMARK    4  A    between atoms: O_7  and  C_8
REMARK    5  A    between atoms: N_13  and  C_14
REMARK    6  A    between atoms: C_22  and  C_23
REMARK                            x       y       z     vdW  Elec       q    Type
REMARK                         _______ _______ _______ _____ _____    ______ ____
ROOT
ATOM      1  C   UNL     1       4.883   5.440  18.298  0.00  0.00    +0.000 A 
ATOM      2  N   UNL     1       5.676   5.311  19.348  0.00  0.00    +0.000 NA
ATOM      3  C   UNL     1       6.950   5.577  19.133  0.00  0.00    +0.000 A 
ATOM      4  N   UNL     1       7.498   5.793  17.953  0.00  0.00    +0.000 NA
ATOM      5  C   UNL     1       6.652   5.696  16.931  0.00  0.00    +0.000 A 
ATOM      6  N   UNL     1       7.253   5.748  15.673  0.00  0.00    +0.000 N 
ATOM      7  N   UNL     1       5.329   5.551  17.053  0.00  0.00    +0.000 NA
ATOM      8  H   UNL     1       8.250   5.878  15.808  0.00  0.00    +0.000 HD
ENDROOT
BRANCH   6   9
ATOM      9  C   UNL     1       6.953   4.946  14.560  0.00  0.00    +0.000 A 
ATOM     10  C   UNL     1       7.694   5.138  13.386  0.00  0.00    +0.000 A 
ATOM     11  C   UNL     1       7.389   4.423  12.228  0.00  0.00    +0.000 A 
ATOM     12  C   UNL     1       6.360   3.490  12.251  0.00  0.00    +0.000 A 
ATOM     13  F   UNL     1       6.047   2.825  11.132  0.00  0.00    +0.000 F 
ATOM     14  C   UNL     1       5.647   3.243  13.416  0.00  0.00    +0.000 A 
ATOM     15  C   UNL     1       5.944   3.971  14.569  0.00  0.00    +0.000 A 
ENDBRANCH   6   9
BRANCH   1  16
ATOM     16  O   UNL     1       3.527   5.208  18.456  0.00  0.00    +0.000 OA
BRANCH  16  22
ATOM     17  C   UNL     1       0.580   8.828  21.759  0.00  0.00    +0.000 C 
ATOM     18  C   UNL     1       1.262   7.852  20.852  0.00  0.00    +0.000 A 
ATOM     19  C   UNL     1       1.424   6.507  21.168  0.00  0.00    +0.000 A 
ATOM     20  C   UNL     1       2.129   5.643  20.302  0.00  0.00    +0.000 A 
ATOM     21  C   UNL     1       2.260   4.197  20.717  0.00  0.00    +0.000 C 
ATOM     22  C   UNL     1       2.690   6.128  19.084  0.00  0.00    +0.000 A 
ATOM     23  C   UNL     1       2.485   7.479  18.752  0.00  0.00    +0.000 A 
ATOM     24  C   UNL     1       2.950   8.221  17.526  0.00  0.00    +0.000 C 
ATOM     25  C   UNL     1       1.782   8.313  19.650  0.00  0.00    +0.000 A 
ENDBRANCH  16  22
ENDBRANCH   1  16
TORSDOF 3
ENDMDL
MODEL 5
REMARK VINA RESULT:      -8.7      0.629      1.846
REMARK  Name = 
REMARK  6 active torsions:
REMARK  status: ('A' for Active; 'I' for Inactive)
REMARK    1  A    between atoms: C_1  and  C_2
REMARK    2  A    between atoms: C_4  and  C_5
REMARK    3  A    between atoms: C_6  and  O_7
REMARK    4  A    between atoms: O_7  and  C_8
REMARK    5  A    between atoms: N_13  and  C_14
REMARK    6  A    between atoms: C_22  and  C_23
REMARK                            x       y       z     vdW  Elec       q    Type
REMARK                         _______ _______ _______ _____ _____    ______ ____
ROOT
ATOM      1  C   UNL     1       5.180   5.798  17.917  0.00  0.00    +0.000 A 
ATOM      2  N   UNL     1       6.046   5.660  18.906  0.00  0.00    +0.000 NA
ATOM      3  C   UNL     1       7.315   5.802  18.573  0.00  0.00    +0.000 A 
ATOM      4  N   UNL     1       7.776   5.905  17.343  0.00  0.00    +0.000 NA
ATOM      5  C   UNL     1       6.842   5.824  16.400  0.00  0.00    +0.000 A 
ATOM      6  N   UNL     1       7.336   5.754  15.097  0.00  0.00    +0.000 N 
ATOM      7  N   UNL     1       5.527   5.800  16.636  0.00  0.00    +0.000 NA
ATOM      8  H   UNL     1       8.349   5.805  15.144  0.00  0.00    +0.000 HD
ENDROOT
BRANCH   6   9
ATOM      9  C   UNL     1       6.880   4.921  14.063  0.00  0.00    +0.000 A 
ATOM     10  C   UNL     1       5.676   4.229  14.253  0.00  0.00    +0.000 A 
ATOM     11  C   UNL     1       5.214   3.329  13.292  0.00  0.00    +0.000 A 
ATOM     12  C   UNL     1       5.941   3.143  12.124  0.00  0.00    +0.000 A 
ATOM     13  F   UNL     1       5.514   2.258  11.214  0.00  0.00    +0.000 F 
ATOM     14  C   UNL     1       7.108   3.856  11.888  0.00  0.00    +0.000 A 
ATOM     15  C   UNL     1       7.576   4.745  12.858  0.00  0.00    +0.000 A 
ENDBRANCH   6   9
BRANCH   1  16
ATOM     16  O   UNL     1       3.828   5.692  18.196  0.00  0.00    +0.000 OA
BRANCH  16  22
ATOM     17  C   UNL     1       1.034   2.406  21.951  0.00  0.00    +0.000 C 
ATOM     18  C   UNL     1       1.838   3.280  21.040  0.00  0.00    +0.000 A 
ATOM     19  C   UNL     1       1.728   4.667  21.025  0.00  0.00    +0.000 A 
ATOM     20  C   UNL     1       2.466   5.439  20.102  0.00  0.00    +0.000 A 
ATOM     21  C   UNL     1       2.289   6.938  20.151  0.00  0.00    +0.000 C 
ATOM     22  C   UNL     1       3.343   4.816  19.165  0.00  0.00    +0.000 A 
ATOM     23  C   UNL     1       3.481   3.418  19.216  0.00  0.00    +0.000 A 
ATOM     24  C   UNL     1       4.350   2.533  18.361  0.00  0.00    +0.000 C 
ATOM     25  C   UNL     1       2.717   2.681  20.148  0.00  0.00    +0.000 A 
ENDBRANCH  16  22
ENDBRANCH   1  16
TORSDOF 3
ENDMDL
MODEL 6
REMARK VINA RESULT:      -8.6      1.170      2.494
REMARK  Name = 
REMARK  6 active torsions:
REMARK  status: ('A' for Active; 'I' for Inactive)
REMARK    1  A    between atoms: C_1  and  C_2
REMARK    2  A    between atoms: C_4  and  C_5
REMARK    3  A    between atoms: C_6  and  O_7
REMARK    4  A    between atoms: O_7  and  C_8
REMARK    5  A    between atoms: N_13  and  C_14
REMARK    6  A    between atoms: C_22  and  C_23
REMARK                            x       y       z     vdW  Elec       q    Type
REMARK                         _______ _______ _______ _____ _____    ______ ____
ROOT
ATOM      1  C   UNL     1       4.653   5.763  18.076  0.00  0.00    +0.000 A 
ATOM      2  N   UNL     1       5.318   5.437  19.170  0.00  0.00    +0.000 NA
ATOM      3  C   UNL     1       6.633   5.428  19.054  0.00  0.00    +0.000 A 
ATOM      4  N   UNL     1       7.302   5.555  17.926  0.00  0.00    +0.000 NA
ATOM      5  C   UNL     1       6.535   5.671  16.845  0.00  0.00    +0.000 A 
ATOM      6  N   UNL     1       7.227   5.629  15.634  0.00  0.00    +0.000 N 
ATOM      7  N   UNL     1       5.206   5.811  16.870  0.00  0.00    +0.000 NA
ATOM      8  H   UNL     1       8.216   5.537  15.843  0.00  0.00    +0.000 HD
ENDROOT
BRANCH   6   9
ATOM      9  C   UNL     1       6.849   4.942  14.469  0.00  0.00    +0.000 A 
ATOM     10  C   UNL     1       5.651   4.217  14.486  0.00  0.00    +0.000 A 
ATOM     11  C   UNL     1       5.264   3.455  13.383  0.00  0.00    +0.000 A 
ATOM     12  C   UNL     1       6.064   3.442  12.247  0.00  0.00    +0.000 A 
ATOM     13  F   UNL     1       5.709   2.688  11.199  0.00  0.00    +0.000 F 
ATOM     14  C   UNL     1       7.228   4.194  12.186  0.00  0.00    +0.000 A 
ATOM     15  C   UNL     1       7.620   4.944  13.296  0.00  0.00    +0.000 A 
ENDBRANCH   6   9
BRANCH   1  16
ATOM     16  O   UNL     1       3.271   5.823  18.130  0.00  0.00    +0.000 OA
BRANCH  16  22
ATOM     17  C   UNL     1      -0.061   8.792  21.707  0.00  0.00    +0.000 C 
ATOM     18  C   UNL     1       0.893   8.054  20.820  0.00  0.00    +0.000 A 
ATOM     19  C   UNL     1       1.449   8.611  19.672  0.00  0.00    +0.000 A 
ATOM     20  C   UNL     1       2.296   7.848  18.838  0.00  0.00    +0.000 A 
ATOM     21  C   UNL     1       2.858   8.526  17.612  0.00  0.00    +0.000 C 
ATOM     22  C   UNL     1       2.602   6.491  19.154  0.00  0.00    +0.000 A 
ATOM     23  C   UNL     1       2.071   5.950  20.338  0.00  0.00    +0.000 A 
ATOM     24  C   UNL     1       2.262   4.566  20.901  0.00  0.00    +0.000 C 
ATOM     25  C   UNL     1       1.220   6.744  21.140  0.00  0.00    +0.000 A 
ENDBRANCH  16  22
ENDBRANCH   1  16
TORSDOF 3
ENDMDL
MODEL 7
REMARK VINA RESULT:      -8.5      0.695      2.122
REMARK  Name = 
REMARK  6 active torsions:
REMARK  status: ('A' for Active; 'I' for Inactive)
REMARK    1  A    between atoms: C_1  and  C_2
REMARK    2  A    between atoms: C_4  and  C_5
REMARK    3  A    between atoms: C_6  and  O_7
REMARK    4  A    between atoms: O_7  and  C_8
REMARK    5  A    between atoms: N_13  and  C_14
REMARK    6  A    between atoms: C_22  and  C_23
REMARK                            x       y       z     vdW  Elec       q    Type
REMARK                         _______ _______ _______ _____ _____    ______ ____
ROOT
ATOM      1  C   UNL     1       4.916   5.941  17.348  0.00  0.00    +0.000 A 
ATOM      2  N   UNL     1       5.820   6.028  18.308  0.00  0.00    +0.000 NA
ATOM      3  C   UNL     1       7.063   6.211  17.902  0.00  0.00    +0.000 A 
ATOM      4  N   UNL     1       7.475   6.149  16.652  0.00  0.00    +0.000 NA
ATOM      5  C   UNL     1       6.522   5.849  15.775  0.00  0.00    +0.000 A 
ATOM      6  N   UNL     1       6.979   5.609  14.478  0.00  0.00    +0.000 N 
ATOM      7  N   UNL     1       5.221   5.765  16.069  0.00  0.00    +0.000 NA
ATOM      8  H   UNL     1       7.985   5.742  14.472  0.00  0.00    +0.000 HD
ENDROOT
BRANCH   6   9
ATOM      9  C   UNL     1       6.559   4.589  13.610  0.00  0.00    +0.000 A 
ATOM     10  C   UNL     1       7.444   4.162  12.611  0.00  0.00    +0.000 A 
ATOM     11  C   UNL     1       7.052   3.206  11.674  0.00  0.00    +0.000 A 
ATOM     12  C   UNL     1       5.781   2.651  11.754  0.00  0.00    +0.000 A 
ATOM     13  F   UNL     1       5.393   1.755  10.837  0.00  0.00    +0.000 F 
ATOM     14  C   UNL     1       4.905   3.018  12.765  0.00  0.00    +0.000 A 
ATOM     15  C   UNL     1       5.294   3.986  13.693  0.00  0.00    +0.000 A 
ENDBRANCH   6   9
BRANCH   1  16
ATOM     16  O   UNL     1       3.586   5.780  17.700  0.00  0.00    +0.000 OA
BRANCH  16  22
ATOM     17  C   UNL     1       1.168   2.600  21.791  0.00  0.00    +0.000 C 
ATOM     18  C   UNL     1       1.882   3.443  20.782  0.00  0.00    +0.000 A 
ATOM     19  C   UNL     1       1.835   4.833  20.783  0.00  0.00    +0.000 A 
ATOM     20  C   UNL     1       2.479   5.577  19.769  0.00  0.00    +0.000 A 
ATOM     21  C   UNL     1       2.379   7.082  19.842  0.00  0.00    +0.000 C 
ATOM     22  C   UNL     1       3.195   4.921  18.724  0.00  0.00    +0.000 A 
ATOM     23  C   UNL     1       3.274   3.518  18.756  0.00  0.00    +0.000 A 
ATOM     24  C   UNL     1       3.980   2.600  17.793  0.00  0.00    +0.000 C 
ATOM     25  C   UNL     1       2.607   2.810  19.781  0.00  0.00    +0.000 A 
ENDBRANCH  16  22
ENDBRANCH   1  16
TORSDOF 3
ENDMDL
MODEL 8
REMARK VINA RESULT:      -8.4      2.995      5.100
REMARK  Name = 
REMARK  6 active torsions:
REMARK  status: ('A' for Active; 'I' for Inactive)
REMARK    1  A    between atoms: C_1  and  C_2
REMARK    2  A    between atoms: C_4  and  C_5
REMARK    3  A    between atoms: C_6  and  O_7
REMARK    4  A    between atoms: O_7  and  C_8
REMARK    5  A    between atoms: N_13  and  C_14
REMARK    6  A    between atoms: C_22  and  C_23
REMARK                            x       y       z     vdW  Elec       q    Type
REMARK                         _______ _______ _______ _____ _____    ______ ____
ROOT
ATOM      1  C   UNL     1       2.306   6.365  20.296  0.00  0.00    +0.000 A 
ATOM      2  N   UNL     1       1.110   5.809  20.388  0.00  0.00    +0.000 NA
ATOM      3  C   UNL     1       1.080   4.500  20.226  0.00  0.00    +0.000 A 
ATOM      4  N   UNL     1       2.092   3.754  19.830  0.00  0.00    +0.000 NA
ATOM      5  C   UNL     1       3.201   4.436  19.561  0.00  0.00    +0.000 A 
ATOM      6  N   UNL     1       4.220   3.683  18.977  0.00  0.00    +0.000 N 
ATOM      7  N   UNL     1       3.369   5.739  19.807  0.00  0.00    +0.000 NA
ATOM      8  H   UNL     1       3.893   2.725  18.897  0.00  0.00    +0.000 HD
ENDROOT
BRANCH   6   9
ATOM      9  C   UNL     1       5.049   4.066  17.910  0.00  0.00    +0.000 A 
ATOM     10  C   UNL     1       4.534   3.991  16.610  0.00  0.00    +0.000 A 
ATOM     11  C   UNL     1       5.337   4.286  15.508  0.00  0.00    +0.000 A 
ATOM     12  C   UNL     1       6.651   4.689  15.709  0.00  0.00    +0.000 A 
ATOM     13  F   UNL     1       7.432   4.945  14.651  0.00  0.00    +0.000 F 
ATOM     14  C   UNL     1       7.169   4.823  16.989  0.00  0.00    +0.000 A 
ATOM     15  C   UNL     1       6.368   4.513  18.089  0.00  0.00    +0.000 A 
ENDBRANCH   6   9
BRANCH   1  16
ATOM     16  O   UNL     1       2.420   7.732  20.485  0.00  0.00    +0.000 OA
BRANCH  16  22
ATOM     17  C   UNL     1      -1.680  10.772  17.906  0.00  0.00    +0.000 C 
ATOM     18  C   UNL     1      -0.553  10.064  18.591  0.00  0.00    +0.000 A 
ATOM     19  C   UNL     1       0.565   9.585  17.917  0.00  0.00    +0.000 A 
ATOM     20  C   UNL     1       1.570   8.870  18.605  0.00  0.00    +0.000 A 
ATOM     21  C   UNL     1       2.752   8.384  17.800  0.00  0.00    +0.000 C 
ATOM     22  C   UNL     1       1.463   8.624  20.006  0.00  0.00    +0.000 A 
ATOM     23  C   UNL     1       0.350   9.149  20.687  0.00  0.00    +0.000 A 
ATOM     24  C   UNL     1       0.020   9.050  22.154  0.00  0.00    +0.000 C 
ATOM     25  C   UNL     1      -0.638   9.851  19.961  0.00  0.00    +0.000 A 
ENDBRANCH  16  22
ENDBRANCH   1  16
TORSDOF 3
ENDMDL
MODEL 9
REMARK VINA RESULT:      -8.3      1.141      2.159
REMARK  Name = 
REMARK  6 active torsions:
REMARK  status: ('A' for Active; 'I' for Inactive)
REMARK    1  A    between atoms: C_1  and  C_2
REMARK    2  A    between atoms: C_4  and  C_5
REMARK    3  A    between atoms: C_6  and  O_7
REMARK    4  A    between atoms: O_7  and  C_8
REMARK    5  A    between atoms: N_13  and  C_14
REMARK    6  A    between atoms: C_22  and  C_23
REMARK                            x       y       z     vdW  Elec       q    Type
REMARK                         _______ _______ _______ _____ _____    ______ ____
ROOT
ATOM      1  C   UNL     1       4.834   5.208  16.743  0.00  0.00    +0.000 A 
ATOM      2  N   UNL     1       5.718   5.322  17.719  0.00  0.00    +0.000 NA
ATOM      3  C   UNL     1       6.947   5.619  17.339  0.00  0.00    +0.000 A 
ATOM      4  N   UNL     1       7.377   5.644  16.094  0.00  0.00    +0.000 NA
ATOM      5  C   UNL     1       6.460   5.309  15.191  0.00  0.00    +0.000 A 
ATOM      6  N   UNL     1       6.949   5.163  13.892  0.00  0.00    +0.000 N 
ATOM      7  N   UNL     1       5.167   5.112  15.462  0.00  0.00    +0.000 NA
ATOM      8  H   UNL     1       7.942   5.375  13.907  0.00  0.00    +0.000 HD
ENDROOT
BRANCH   6   9
ATOM      9  C   UNL     1       6.620   4.153  12.975  0.00  0.00    +0.000 A 
ATOM     10  C   UNL     1       5.271   3.810  12.822  0.00  0.00    +0.000 A 
ATOM     11  C   UNL     1       4.894   2.762  11.981  0.00  0.00    +0.000 A 
ATOM     12  C   UNL     1       5.866   2.075  11.267  0.00  0.00    +0.000 A 
ATOM     13  F   UNL     1       5.509   1.050  10.482  0.00  0.00    +0.000 F 
ATOM     14  C   UNL     1       7.205   2.430  11.360  0.00  0.00    +0.000 A 
ATOM     15  C   UNL     1       7.581   3.469  12.213  0.00  0.00    +0.000 A 
ENDBRANCH   6   9
BRANCH   1  16
ATOM     16  O   UNL     1       3.517   4.928  17.068  0.00  0.00    +0.000 OA
BRANCH  16  22
ATOM     17  C   UNL     1       1.296   2.726  21.855  0.00  0.00    +0.000 C 
ATOM     18  C   UNL     1       1.964   3.319  20.655  0.00  0.00    +0.000 A 
ATOM     19  C   UNL     1       1.986   4.686  20.394  0.00  0.00    +0.000 A 
ATOM     20  C   UNL     1       2.579   5.185  19.213  0.00  0.00    +0.000 A 
ATOM     21  C   UNL     1       2.561   6.681  19.005  0.00  0.00    +0.000 C 
ATOM     22  C   UNL     1       3.171   4.301  18.263  0.00  0.00    +0.000 A 
ATOM     23  C   UNL     1       3.183   2.926  18.555  0.00  0.00    +0.000 A 
ATOM     24  C   UNL     1       3.760   1.802  17.736  0.00  0.00    +0.000 C 
ATOM     25  C   UNL     1       2.570   2.466  19.743  0.00  0.00    +0.000 A 
ENDBRANCH  16  22
ENDBRANCH   1  16
TORSDOF 3
ENDMDL
