MODEL 1
REMARK VINA RESULT:      -7.6      0.000      0.000
REMARK  Name = 
REMARK  2 active torsions:
REMARK  status: ('A' for Active; 'I' for Inactive)
REMARK    1  A    between atoms: C_4  and  C_5
REMARK    2  A    between atoms: C_8  and  C_9
REMARK                            x       y       z     vdW  Elec       q    Type
REMARK                         _______ _______ _______ _____ _____    ______ ____
ROOT
ATOM      1  C   UNL     1       4.729   4.898  17.786  0.00  0.00    +0.000 A 
ATOM      2  C   UNL     1       4.345   3.921  16.895  0.00  0.00    +0.000 A 
ATOM      3  N   UNL     1       3.078   3.489  17.175  0.00  0.00    +0.000 NA
ATOM      4  C   UNL     1       2.712   4.226  18.205  0.00  0.00    +0.000 A 
ATOM      5  O   UNL     1       3.679   5.089  18.649  0.00  0.00    +0.000 OA
ENDROOT
BRANCH   1   9
ATOM      6  C   UNL     1       8.165   7.381  18.318  0.00  0.00    +0.000 A 
ATOM      7  C   UNL     1       7.213   7.696  17.352  0.00  0.00    +0.000 A 
ATOM      8  C   UNL     1       6.096   6.873  17.177  0.00  0.00    +0.000 A 
ATOM      9  C   UNL     1       5.915   5.726  17.964  0.00  0.00    +0.000 A 
ATOM     10  C   UNL     1       6.889   5.417  18.925  0.00  0.00    +0.000 A 
ATOM     11  C   UNL     1       8.006   6.239  19.100  0.00  0.00    +0.000 A 
ENDBRANCH   1   9
BRANCH   4  12
ATOM     12  C   UNL     1       1.394   4.257  18.918  0.00  0.00    +0.000 C 
ATOM     13  C   UNL     1       0.815   2.846  19.114  0.00  0.00    +0.000 C 
ATOM     14  C   UNL     1       1.599   2.025  20.137  0.00  0.00    +0.000 C 
ATOM     15  C   UNL     1       1.719   2.749  21.475  0.00  0.00    +0.000 C 
ATOM     16  C   UNL     1       2.268   4.164  21.325  0.00  0.00    +0.000 C 
ATOM     17  C   UNL     1       1.497   4.972  20.278  0.00  0.00    +0.000 C 
ENDBRANCH   4  12
TORSDOF 2
ENDMDL
MODEL 2
REMARK VINA RESULT:      -7.6      0.090      1.172
REMARK  Name = 
REMARK  2 active torsions:
REMARK  status: ('A' for Active; 'I' for Inactive)
REMARK    1  A    between atoms: C_4  and  C_5
REMARK    2  A    between atoms: C_8  and  C_9
REMARK                            x       y       z     vdW  Elec       q    Type
REMARK                         _______ _______ _______ _____ _____    ______ ____
ROOT
ATOM      1  C   UNL     1       4.767   4.913  17.831  0.00  0.00    +0.000 A 
ATOM      2  C   UNL     1       4.440   3.878  16.983  0.00  0.00    +0.000 A 
ATOM      3  N   UNL     1       3.178   3.422  17.248  0.00  0.00    +0.000 NA
ATOM      4  C   UNL     1       2.759   4.201  18.225  0.00  0.00    +0.000 A 
ATOM      5  O   UNL     1       3.686   5.117  18.651  0.00  0.00    +0.000 OA
ENDROOT
BRANCH   1   9
ATOM      6  C   UNL     1       8.195   7.416  18.313  0.00  0.00    +0.000 A 
ATOM      7  C   UNL     1       8.030   6.289  19.113  0.00  0.00    +0.000 A 
ATOM      8  C   UNL     1       6.901   5.480  18.957  0.00  0.00    +0.000 A 
ATOM      9  C   UNL     1       5.922   5.785  17.998  0.00  0.00    +0.000 A 
ATOM     10  C   UNL     1       6.099   6.930  17.208  0.00  0.00    +0.000 A 
ATOM     11  C   UNL     1       7.228   7.740  17.364  0.00  0.00    +0.000 A 
ENDBRANCH   1   9
BRANCH   4  12
ATOM     12  C   UNL     1       1.419   4.230  18.897  0.00  0.00    +0.000 C 
ATOM     13  C   UNL     1       0.815   2.822  19.029  0.00  0.00    +0.000 C 
ATOM     14  C   UNL     1       1.554   1.957  20.050  0.00  0.00    +0.000 C 
ATOM     15  C   UNL     1       1.641   2.636  21.413  0.00  0.00    +0.000 C 
ATOM     16  C   UNL     1       2.214   4.046  21.326  0.00  0.00    +0.000 C 
ATOM     17  C   UNL     1       1.488   4.899  20.282  0.00  0.00    +0.000 C 
ENDBRANCH   4  12
TORSDOF 2
ENDMDL
MODEL 3
REMARK VINA RESULT:      -7.3      0.972      1.717
REMARK  Name = 
REMARK  2 active torsions:
REMARK  status: ('A' for Active; 'I' for Inactive)
REMARK    1  A    between atoms: C_4  and  C_5
REMARK    2  A    between atoms: C_8  and  C_9
REMARK                            x       y       z     vdW  Elec       q    Type
REMARK                         _______ _______ _______ _____ _____    ______ ____
ROOT
ATOM      1  C   UNL     1       5.229   4.628  17.776  0.00  0.00    +0.000 A 
ATOM      2  C   UNL     1       4.454   4.212  16.717  0.00  0.00    +0.000 A 
ATOM      3  N   UNL     1       3.591   3.226  17.112  0.00  0.00    +0.000 NA
ATOM      4  C   UNL     1       3.841   3.084  18.398  0.00  0.00    +0.000 A 
ATOM      5  O   UNL     1       4.848   3.888  18.867  0.00  0.00    +0.000 OA
ENDROOT
BRANCH   1   9
ATOM      6  C   UNL     1       8.220   7.626  18.339  0.00  0.00    +0.000 A 
ATOM      7  C   UNL     1       7.260   7.769  17.340  0.00  0.00    +0.000 A 
ATOM      8  C   UNL     1       6.292   6.779  17.154  0.00  0.00    +0.000 A 
ATOM      9  C   UNL     1       6.266   5.634  17.966  0.00  0.00    +0.000 A 
ATOM     10  C   UNL     1       7.246   5.501  18.960  0.00  0.00    +0.000 A 
ATOM     11  C   UNL     1       8.216   6.491  19.145  0.00  0.00    +0.000 A 
ENDBRANCH   1   9
BRANCH   4  12
ATOM     12  C   UNL     1       3.162   2.195  19.396  0.00  0.00    +0.000 C 
ATOM     13  C   UNL     1       3.178   2.802  20.808  0.00  0.00    +0.000 C 
ATOM     14  C   UNL     1       2.260   4.017  20.937  0.00  0.00    +0.000 C 
ATOM     15  C   UNL     1       0.832   3.701  20.503  0.00  0.00    +0.000 C 
ATOM     16  C   UNL     1       0.771   3.073  19.115  0.00  0.00    +0.000 C 
ATOM     17  C   UNL     1       1.714   1.874  18.983  0.00  0.00    +0.000 C 
ENDBRANCH   4  12
TORSDOF 2
ENDMDL
MODEL 4
REMARK VINA RESULT:      -7.3      1.746      5.972
REMARK  Name = 
REMARK  2 active torsions:
REMARK  status: ('A' for Active; 'I' for Inactive)
REMARK    1  A    between atoms: C_4  and  C_5
REMARK    2  A    between atoms: C_8  and  C_9
REMARK                            x       y       z     vdW  Elec       q    Type
REMARK                         _______ _______ _______ _____ _____    ______ ____
ROOT
ATOM      1  C   UNL     1       2.869   5.818  18.345  0.00  0.00    +0.000 A 
ATOM      2  C   UNL     1       2.662   7.176  18.236  0.00  0.00    +0.000 A 
ATOM      3  N   UNL     1       3.691   7.763  17.551  0.00  0.00    +0.000 NA
ATOM      4  C   UNL     1       4.479   6.755  17.239  0.00  0.00    +0.000 A 
ATOM      5  O   UNL     1       4.055   5.541  17.714  0.00  0.00    +0.000 OA
ENDROOT
BRANCH   1   9
ATOM      6  C   UNL     1       0.740   2.506  20.002  0.00  0.00    +0.000 A 
ATOM      7  C   UNL     1       0.993   2.565  18.634  0.00  0.00    +0.000 A 
ATOM      8  C   UNL     1       1.680   3.658  18.098  0.00  0.00    +0.000 A 
ATOM      9  C   UNL     1       2.127   4.704  18.920  0.00  0.00    +0.000 A 
ATOM     10  C   UNL     1       1.855   4.632  20.294  0.00  0.00    +0.000 A 
ATOM     11  C   UNL     1       1.167   3.541  20.831  0.00  0.00    +0.000 A 
ENDBRANCH   1   9
BRANCH   4  12
ATOM     12  C   UNL     1       5.739   6.763  16.426  0.00  0.00    +0.000 C 
ATOM     13  C   UNL     1       6.969   7.114  17.279  0.00  0.00    +0.000 C 
ATOM     14  C   UNL     1       7.345   6.001  18.256  0.00  0.00    +0.000 C 
ATOM     15  C   UNL     1       7.546   4.665  17.546  0.00  0.00    +0.000 C 
ATOM     16  C   UNL     1       6.357   4.288  16.668  0.00  0.00    +0.000 C 
ATOM     17  C   UNL     1       5.967   5.418  15.711  0.00  0.00    +0.000 C 
ENDBRANCH   4  12
TORSDOF 2
ENDMDL
MODEL 5
REMARK VINA RESULT:      -7.3      1.111      1.471
REMARK  Name = 
REMARK  2 active torsions:
REMARK  status: ('A' for Active; 'I' for Inactive)
REMARK    1  A    between atoms: C_4  and  C_5
REMARK    2  A    between atoms: C_8  and  C_9
REMARK                            x       y       z     vdW  Elec       q    Type
REMARK                         _______ _______ _______ _____ _____    ______ ____
ROOT
ATOM      1  C   UNL     1       4.300   5.508  18.037  0.00  0.00    +0.000 A 
ATOM      2  C   UNL     1       3.071   6.043  17.720  0.00  0.00    +0.000 A 
ATOM      3  N   UNL     1       2.097   5.087  17.803  0.00  0.00    +0.000 NA
ATOM      4  C   UNL     1       2.745   4.007  18.191  0.00  0.00    +0.000 A 
ATOM      5  O   UNL     1       4.098   4.182  18.328  0.00  0.00    +0.000 OA
ENDROOT
BRANCH   1   9
ATOM      6  C   UNL     1       8.251   7.098  18.374  0.00  0.00    +0.000 A 
ATOM      7  C   UNL     1       7.354   7.633  17.452  0.00  0.00    +0.000 A 
ATOM      8  C   UNL     1       6.067   7.100  17.340  0.00  0.00    +0.000 A 
ATOM      9  C   UNL     1       5.656   6.029  18.148  0.00  0.00    +0.000 A 
ATOM     10  C   UNL     1       6.576   5.495  19.063  0.00  0.00    +0.000 A 
ATOM     11  C   UNL     1       7.863   6.027  19.175  0.00  0.00    +0.000 A 
ENDBRANCH   1   9
BRANCH   4  12
ATOM     12  C   UNL     1       2.199   2.650  18.520  0.00  0.00    +0.000 C 
ATOM     13  C   UNL     1       3.082   1.909  19.537  0.00  0.00    +0.000 C 
ATOM     14  C   UNL     1       3.008   2.520  20.936  0.00  0.00    +0.000 C 
ATOM     15  C   UNL     1       1.570   2.617  21.439  0.00  0.00    +0.000 C 
ATOM     16  C   UNL     1       0.653   3.325  20.448  0.00  0.00    +0.000 C 
ATOM     17  C   UNL     1       0.753   2.726  19.042  0.00  0.00    +0.000 C 
ENDBRANCH   4  12
TORSDOF 2
ENDMDL
MODEL 6
REMARK VINA RESULT:      -7.3      1.756      5.960
REMARK  Name = 
REMARK  2 active torsions:
REMARK  status: ('A' for Active; 'I' for Inactive)
REMARK    1  A    between atoms: C_4  and  C_5
REMARK    2  A    between atoms: C_8  and  C_9
REMARK                            x       y       z     vdW  Elec       q    Type
REMARK                         _______ _______ _______ _____ _____    ______ ____
ROOT
ATOM      1  C   UNL     1       2.899   5.832  18.706  0.00  0.00    +0.000 A 
ATOM      2  C   UNL     1       2.611   7.167  18.524  0.00  0.00    +0.000 A 
ATOM      3  N   UNL     1       3.511   7.738  17.667  0.00  0.00    +0.000 NA
ATOM      4  C   UNL     1       4.303   6.741  17.328  0.00  0.00    +0.000 A 
ATOM      5  O   UNL     1       4.006   5.553  17.945  0.00  0.00    +0.000 OA
ENDROOT
BRANCH   1   9
ATOM      6  C   UNL     1       1.106   2.671  20.951  0.00  0.00    +0.000 A 
ATOM      7  C   UNL     1       1.971   3.569  21.570  0.00  0.00    +0.000 A 
ATOM      8  C   UNL     1       2.563   4.594  20.827  0.00  0.00    +0.000 A 
ATOM      9  C   UNL     1       2.296   4.739  19.456  0.00  0.00    +0.000 A 
ATOM     10  C   UNL     1       1.431   3.818  18.847  0.00  0.00    +0.000 A 
ATOM     11  C   UNL     1       0.840   2.792  19.590  0.00  0.00    +0.000 A 
ENDBRANCH   1   9
BRANCH   4  12
ATOM     12  C   UNL     1       5.445   6.734  16.357  0.00  0.00    +0.000 C 
ATOM     13  C   UNL     1       6.774   7.111  17.032  0.00  0.00    +0.000 C 
ATOM     14  C   UNL     1       7.283   6.022  17.977  0.00  0.00    +0.000 C 
ATOM     15  C   UNL     1       7.397   4.670  17.277  0.00  0.00    +0.000 C 
ATOM     16  C   UNL     1       6.106   4.268  16.572  0.00  0.00    +0.000 C 
ATOM     17  C   UNL     1       5.586   5.374  15.649  0.00  0.00    +0.000 C 
ENDBRANCH   4  12
TORSDOF 2
ENDMDL
MODEL 7
REMARK VINA RESULT:      -7.3      1.123      1.888
REMARK  Name = 
REMARK  2 active torsions:
REMARK  status: ('A' for Active; 'I' for Inactive)
REMARK    1  A    between atoms: C_4  and  C_5
REMARK    2  A    between atoms: C_8  and  C_9
REMARK                            x       y       z     vdW  Elec       q    Type
REMARK                         _______ _______ _______ _____ _____    ______ ____
ROOT
ATOM      1  C   UNL     1       4.289   5.521  18.040  0.00  0.00    +0.000 A 
ATOM      2  C   UNL     1       3.055   6.038  17.713  0.00  0.00    +0.000 A 
ATOM      3  N   UNL     1       2.094   5.068  17.786  0.00  0.00    +0.000 NA
ATOM      4  C   UNL     1       2.754   3.997  18.178  0.00  0.00    +0.000 A 
ATOM      5  O   UNL     1       4.103   4.192  18.327  0.00  0.00    +0.000 OA
ENDROOT
BRANCH   1   9
ATOM      6  C   UNL     1       8.265   7.041  18.396  0.00  0.00    +0.000 A 
ATOM      7  C   UNL     1       7.840   5.990  19.204  0.00  0.00    +0.000 A 
ATOM      8  C   UNL     1       6.534   5.505  19.089  0.00  0.00    +0.000 A 
ATOM      9  C   UNL     1       5.636   6.061  18.165  0.00  0.00    +0.000 A 
ATOM     10  C   UNL     1       6.078   7.126  17.367  0.00  0.00    +0.000 A 
ATOM     11  C   UNL     1       7.384   7.612  17.481  0.00  0.00    +0.000 A 
ENDBRANCH   1   9
BRANCH   4  12
ATOM     12  C   UNL     1       2.225   2.631  18.499  0.00  0.00    +0.000 C 
ATOM     13  C   UNL     1       3.096   1.911  19.541  0.00  0.00    +0.000 C 
ATOM     14  C   UNL     1       2.975   2.526  20.935  0.00  0.00    +0.000 C 
ATOM     15  C   UNL     1       1.524   2.598  21.402  0.00  0.00    +0.000 C 
ATOM     16  C   UNL     1       0.619   3.285  20.384  0.00  0.00    +0.000 C 
ATOM     17  C   UNL     1       0.765   2.683  18.984  0.00  0.00    +0.000 C 
ENDBRANCH   4  12
TORSDOF 2
ENDMDL
MODEL 8
REMARK VINA RESULT:      -7.2      0.956      2.111
REMARK  Name = 
REMARK  2 active torsions:
REMARK  status: ('A' for Active; 'I' for Inactive)
REMARK    1  A    between atoms: C_4  and  C_5
REMARK    2  A    between atoms: C_8  and  C_9
REMARK                            x       y       z     vdW  Elec       q    Type
REMARK                         _______ _______ _______ _____ _____    ______ ____
ROOT
ATOM      1  C   UNL     1       5.292   4.483  17.890  0.00  0.00    +0.000 A 
ATOM      2  C   UNL     1       4.695   3.813  16.846  0.00  0.00    +0.000 A 
ATOM      3  N   UNL     1       3.836   2.859  17.318  0.00  0.00    +0.000 NA
ATOM      4  C   UNL     1       3.909   2.987  18.627  0.00  0.00    +0.000 A 
ATOM      5  O   UNL     1       4.799   3.941  19.050  0.00  0.00    +0.000 OA
ENDROOT
BRANCH   1   9
ATOM      6  C   UNL     1       8.124   7.665  18.214  0.00  0.00    +0.000 A 
ATOM      7  C   UNL     1       8.224   6.549  19.039  0.00  0.00    +0.000 A 
ATOM      8  C   UNL     1       7.288   5.516  18.935  0.00  0.00    +0.000 A 
ATOM      9  C   UNL     1       6.240   5.584  18.004  0.00  0.00    +0.000 A 
ATOM     10  C   UNL     1       6.148   6.721  17.188  0.00  0.00    +0.000 A 
ATOM     11  C   UNL     1       7.084   7.753  17.292  0.00  0.00    +0.000 A 
ENDBRANCH   1   9
BRANCH   4  12
ATOM     12  C   UNL     1       3.141   2.257  19.689  0.00  0.00    +0.000 C 
ATOM     13  C   UNL     1       3.054   3.068  20.992  0.00  0.00    +0.000 C 
ATOM     14  C   UNL     1       2.144   4.290  20.865  0.00  0.00    +0.000 C 
ATOM     15  C   UNL     1       0.751   3.913  20.369  0.00  0.00    +0.000 C 
ATOM     16  C   UNL     1       0.793   3.086  19.089  0.00  0.00    +0.000 C 
ATOM     17  C   UNL     1       1.727   1.879  19.213  0.00  0.00    +0.000 C 
ENDBRANCH   4  12
TORSDOF 2
ENDMDL
MODEL 9
REMARK VINA RESULT:      -7.2      3.150      4.194
REMARK  Name = 
REMARK  2 active torsions:
REMARK  status: ('A' for Active; 'I' for Inactive)
REMARK    1  A    between atoms: C_4  and  C_5
REMARK    2  A    between atoms: C_8  and  C_9
REMARK                            x       y       z     vdW  Elec       q    Type
REMARK                         _______ _______ _______ _____ _____    ______ ____
ROOT
ATOM      1  C   UNL     1       6.479   4.542  16.099  0.00  0.00    +0.000 A 
ATOM      2  C   UNL     1       7.287   4.499  17.214  0.00  0.00    +0.000 A 
ATOM      3  N   UNL     1       6.536   4.581  18.354  0.00  0.00    +0.000 NA
ATOM      4  C   UNL     1       5.296   4.646  17.912  0.00  0.00    +0.000 A 
ATOM      5  O   UNL     1       5.186   4.655  16.545  0.00  0.00    +0.000 OA
ENDROOT
BRANCH   1   9
ATOM      6  C   UNL     1       7.054   4.334  11.871  0.00  0.00    +0.000 A 
ATOM      7  C   UNL     1       6.119   3.512  12.495  0.00  0.00    +0.000 A 
ATOM      8  C   UNL     1       5.944   3.577  13.880  0.00  0.00    +0.000 A 
ATOM      9  C   UNL     1       6.698   4.467  14.661  0.00  0.00    +0.000 A 
ATOM     10  C   UNL     1       7.643   5.281  14.017  0.00  0.00    +0.000 A 
ATOM     11  C   UNL     1       7.818   5.214  12.633  0.00  0.00    +0.000 A 
ENDBRANCH   1   9
BRANCH   4  12
ATOM     12  C   UNL     1       4.018   4.684  18.696  0.00  0.00    +0.000 C 
ATOM     13  C   UNL     1       2.784   4.613  17.782  0.00  0.00    +0.000 C 
ATOM     14  C   UNL     1       2.606   3.237  17.140  0.00  0.00    +0.000 C 
ATOM     15  C   UNL     1       2.571   2.123  18.182  0.00  0.00    +0.000 C 
ATOM     16  C   UNL     1       3.768   2.171  19.126  0.00  0.00    +0.000 C 
ATOM     17  C   UNL     1       3.958   3.559  19.745  0.00  0.00    +0.000 C 
ENDBRANCH   4  12
TORSDOF 2
ENDMDL
