MODEL 1
REMARK VINA RESULT:      -8.2      0.000      0.000
REMARK  Name = 
REMARK  5 active torsions:
REMARK  status: ('A' for Active; 'I' for Inactive)
REMARK    1  A    between atoms: C_2  and  C_3
REMARK    2  A    between atoms: C_2  and  C_13
REMARK    3  A    between atoms: C_4  and  C_6
REMARK    4  A    between atoms: C_13  and  C_16
REMARK    5  A    between atoms: C_16  and  C_19
REMARK                            x       y       z     vdW  Elec       q    Type
REMARK                         _______ _______ _______ _____ _____    ______ ____
ROOT
ATOM      1  O   UNL     1       3.104   1.743  17.954  0.00  0.00    +0.000 OA
ATOM      2  C   UNL     1       2.834   2.921  18.216  0.00  0.00    +0.000 C 
ENDROOT
BRANCH   2   3
ATOM      3  C   UNL     1       3.867   4.013  18.095  0.00  0.00    +0.000 C 
ATOM      4  C   UNL     1       5.004   4.064  18.830  0.00  0.00    +0.000 C 
ATOM      5  O   UNL     1       5.397   3.315  19.762  0.00  0.00    +0.000 OA
BRANCH   4   6
ATOM      6  C   UNL     1       5.885   5.198  18.408  0.00  0.00    +0.000 A 
ATOM      7  C   UNL     1       5.430   6.172  17.505  0.00  0.00    +0.000 A 
ATOM      8  C   UNL     1       6.219   7.292  17.220  0.00  0.00    +0.000 A 
ATOM      9  C   UNL     1       7.460   7.443  17.836  0.00  0.00    +0.000 A 
ATOM     10 CL   UNL     1       8.408   8.844  17.523  0.00  0.00    +0.000 Cl
ATOM     11  C   UNL     1       7.931   6.477  18.722  0.00  0.00    +0.000 A 
ATOM     12  C   UNL     1       7.146   5.355  19.005  0.00  0.00    +0.000 A 
ENDBRANCH   4   6
ENDBRANCH   2   3
BRANCH   2  13
ATOM     13  C   UNL     1       1.427   3.364  18.593  0.00  0.00    +0.000 C 
ATOM     14  F   UNL     1       1.005   4.384  17.783  0.00  0.00    +0.000 F 
ATOM     15  F   UNL     1       0.520   2.359  18.398  0.00  0.00    +0.000 F 
BRANCH  13  16
ATOM     16  C   UNL     1       1.362   3.821  20.041  0.00  0.00    +0.000 C 
ATOM     17  F   UNL     1       2.151   4.918  20.247  0.00  0.00    +0.000 F 
ATOM     18  F   UNL     1       0.090   4.254  20.321  0.00  0.00    +0.000 F 
BRANCH  16  19
ATOM     19  C   UNL     1       1.737   2.692  20.998  0.00  0.00    +0.000 C 
ATOM     20  F   UNL     1       0.968   2.641  22.110  0.00  0.00    +0.000 F 
ATOM     21  F   UNL     1       1.646   1.473  20.403  0.00  0.00    +0.000 F 
ATOM     22  F   UNL     1       3.020   2.802  21.425  0.00  0.00    +0.000 F 
ENDBRANCH  16  19
ENDBRANCH  13  16
ENDBRANCH   2  13
TORSDOF 5
ENDMDL
MODEL 2
REMARK VINA RESULT:      -8.0      3.364      4.406
REMARK  Name = 
REMARK  5 active torsions:
REMARK  status: ('A' for Active; 'I' for Inactive)
REMARK    1  A    between atoms: C_2  and  C_3
REMARK    2  A    between atoms: C_2  and  C_13
REMARK    3  A    between atoms: C_4  and  C_6
REMARK    4  A    between atoms: C_13  and  C_16
REMARK    5  A    between atoms: C_16  and  C_19
REMARK                            x       y       z     vdW  Elec       q    Type
REMARK                         _______ _______ _______ _____ _____    ______ ____
ROOT
ATOM      1  O   UNL     1       5.804   4.005  18.773  0.00  0.00    +0.000 OA
ATOM      2  C   UNL     1       4.687   4.080  19.298  0.00  0.00    +0.000 C 
ENDROOT
BRANCH   2   3
ATOM      3  C   UNL     1       3.945   5.389  19.391  0.00  0.00    +0.000 C 
ATOM      4  C   UNL     1       3.566   6.122  18.316  0.00  0.00    +0.000 C 
ATOM      5  O   UNL     1       3.790   5.934  17.092  0.00  0.00    +0.000 OA
BRANCH   4   6
ATOM      6  C   UNL     1       2.750   7.310  18.717  0.00  0.00    +0.000 A 
ATOM      7  C   UNL     1       2.453   8.329  17.798  0.00  0.00    +0.000 A 
ATOM      8  C   UNL     1       1.584   9.367  18.153  0.00  0.00    +0.000 A 
ATOM      9  C   UNL     1       1.009   9.388  19.423  0.00  0.00    +0.000 A 
ATOM     10 CL   UNL     1      -0.097  10.638  19.843  0.00  0.00    +0.000 Cl
ATOM     11  C   UNL     1       1.307   8.393  20.351  0.00  0.00    +0.000 A 
ATOM     12  C   UNL     1       2.179   7.358  19.998  0.00  0.00    +0.000 A 
ENDBRANCH   4   6
ENDBRANCH   2   3
BRANCH   2  13
ATOM     13  C   UNL     1       3.947   2.849  19.805  0.00  0.00    +0.000 C 
ATOM     14  F   UNL     1       4.827   1.845  20.112  0.00  0.00    +0.000 F 
ATOM     15  F   UNL     1       3.288   3.110  20.975  0.00  0.00    +0.000 F 
BRANCH  13  16
ATOM     16  C   UNL     1       2.953   2.339  18.775  0.00  0.00    +0.000 C 
ATOM     17  F   UNL     1       3.154   2.936  17.561  0.00  0.00    +0.000 F 
ATOM     18  F   UNL     1       3.184   1.006  18.546  0.00  0.00    +0.000 F 
BRANCH  16  19
ATOM     19  C   UNL     1       1.515   2.533  19.246  0.00  0.00    +0.000 C 
ATOM     20  F   UNL     1       0.600   1.877  18.494  0.00  0.00    +0.000 F 
ATOM     21  F   UNL     1       1.341   2.113  20.527  0.00  0.00    +0.000 F 
ATOM     22  F   UNL     1       1.154   3.841  19.232  0.00  0.00    +0.000 F 
ENDBRANCH  16  19
ENDBRANCH  13  16
ENDBRANCH   2  13
TORSDOF 5
ENDMDL
MODEL 3
REMARK VINA RESULT:      -7.9      2.308      3.155
REMARK  Name = 
REMARK  5 active torsions:
REMARK  status: ('A' for Active; 'I' for Inactive)
REMARK    1  A    between atoms: C_2  and  C_3
REMARK    2  A    between atoms: C_2  and  C_13
REMARK    3  A    between atoms: C_4  and  C_6
REMARK    4  A    between atoms: C_13  and  C_16
REMARK    5  A    between atoms: C_16  and  C_19
REMARK                            x       y       z     vdW  Elec       q    Type
REMARK                         _______ _______ _______ _____ _____    ______ ____
ROOT
ATOM      1  O   UNL     1       2.956   1.522  18.862  0.00  0.00    +0.000 OA
ATOM      2  C   UNL     1       2.749   2.663  18.432  0.00  0.00    +0.000 C 
ENDROOT
BRANCH   2   3
ATOM      3  C   UNL     1       3.672   3.308  17.431  0.00  0.00    +0.000 C 
ATOM      4  C   UNL     1       4.912   3.765  17.729  0.00  0.00    +0.000 C 
ATOM      5  O   UNL     1       5.507   3.821  18.837  0.00  0.00    +0.000 OA
BRANCH   4   6
ATOM      6  C   UNL     1       5.631   4.248  16.509  0.00  0.00    +0.000 A 
ATOM      7  C   UNL     1       6.930   4.775  16.594  0.00  0.00    +0.000 A 
ATOM      8  C   UNL     1       7.635   5.103  15.431  0.00  0.00    +0.000 A 
ATOM      9  C   UNL     1       7.048   4.903  14.183  0.00  0.00    +0.000 A 
ATOM     10 CL   UNL     1       7.934   5.261  12.751  0.00  0.00    +0.000 Cl
ATOM     11  C   UNL     1       5.754   4.396  14.083  0.00  0.00    +0.000 A 
ATOM     12  C   UNL     1       5.047   4.072  15.245  0.00  0.00    +0.000 A 
ENDBRANCH   4   6
ENDBRANCH   2   3
BRANCH   2  13
ATOM     13  C   UNL     1       1.507   3.458  18.815  0.00  0.00    +0.000 C 
ATOM     14  F   UNL     1       1.101   4.254  17.778  0.00  0.00    +0.000 F 
ATOM     15  F   UNL     1       0.445   2.633  19.064  0.00  0.00    +0.000 F 
BRANCH  13  16
ATOM     16  C   UNL     1       1.763   4.326  20.036  0.00  0.00    +0.000 C 
ATOM     17  F   UNL     1       0.640   4.431  20.808  0.00  0.00    +0.000 F 
ATOM     18  F   UNL     1       2.681   3.705  20.846  0.00  0.00    +0.000 F 
BRANCH  16  19
ATOM     19  C   UNL     1       2.284   5.704  19.639  0.00  0.00    +0.000 C 
ATOM     20  F   UNL     1       2.127   5.989  18.325  0.00  0.00    +0.000 F 
ATOM     21  F   UNL     1       1.666   6.697  20.330  0.00  0.00    +0.000 F 
ATOM     22  F   UNL     1       3.608   5.835  19.903  0.00  0.00    +0.000 F 
ENDBRANCH  16  19
ENDBRANCH  13  16
ENDBRANCH   2  13
TORSDOF 5
ENDMDL
MODEL 4
REMARK VINA RESULT:      -7.9      3.556      4.216
REMARK  Name = 
REMARK  5 active torsions:
REMARK  status: ('A' for Active; 'I' for Inactive)
REMARK    1  A    between atoms: C_2  and  C_3
REMARK    2  A    between atoms: C_2  and  C_13
REMARK    3  A    between atoms: C_4  and  C_6
REMARK    4  A    between atoms: C_13  and  C_16
REMARK    5  A    between atoms: C_16  and  C_19
REMARK                            x       y       z     vdW  Elec       q    Type
REMARK                         _______ _______ _______ _____ _____    ______ ____
ROOT
ATOM      1  O   UNL     1       2.131   3.603  16.766  0.00  0.00    +0.000 OA
ATOM      2  C   UNL     1       2.381   3.958  17.924  0.00  0.00    +0.000 C 
ENDROOT
BRANCH   2   3
ATOM      3  C   UNL     1       2.104   5.363  18.395  0.00  0.00    +0.000 C 
ATOM      4  C   UNL     1       2.899   6.424  18.118  0.00  0.00    +0.000 C 
ATOM      5  O   UNL     1       4.001   6.471  17.513  0.00  0.00    +0.000 OA
BRANCH   4   6
ATOM      6  C   UNL     1       2.308   7.703  18.622  0.00  0.00    +0.000 A 
ATOM      7  C   UNL     1       2.110   8.798  17.765  0.00  0.00    +0.000 A 
ATOM      8  C   UNL     1       1.441   9.939  18.222  0.00  0.00    +0.000 A 
ATOM      9  C   UNL     1       0.966   9.989  19.531  0.00  0.00    +0.000 A 
ATOM     10 CL   UNL     1       0.101  11.372  20.078  0.00  0.00    +0.000 Cl
ATOM     11  C   UNL     1       1.169   8.917  20.398  0.00  0.00    +0.000 A 
ATOM     12  C   UNL     1       1.841   7.778  19.944  0.00  0.00    +0.000 A 
ENDBRANCH   4   6
ENDBRANCH   2   3
BRANCH   2  13
ATOM     13  C   UNL     1       2.900   2.984  18.973  0.00  0.00    +0.000 C 
ATOM     14  F   UNL     1       3.487   1.898  18.381  0.00  0.00    +0.000 F 
ATOM     15  F   UNL     1       3.889   3.550  19.732  0.00  0.00    +0.000 F 
BRANCH  13  16
ATOM     16  C   UNL     1       1.782   2.508  19.885  0.00  0.00    +0.000 C 
ATOM     17  F   UNL     1       0.569   2.975  19.461  0.00  0.00    +0.000 F 
ATOM     18  F   UNL     1       1.676   1.143  19.794  0.00  0.00    +0.000 F 
BRANCH  16  19
ATOM     19  C   UNL     1       2.041   2.903  21.337  0.00  0.00    +0.000 C 
ATOM     20  F   UNL     1       2.205   4.235  21.519  0.00  0.00    +0.000 F 
ATOM     21  F   UNL     1       1.026   2.519  22.155  0.00  0.00    +0.000 F 
ATOM     22  F   UNL     1       3.159   2.310  21.826  0.00  0.00    +0.000 F 
ENDBRANCH  16  19
ENDBRANCH  13  16
ENDBRANCH   2  13
TORSDOF 5
ENDMDL
MODEL 5
REMARK VINA RESULT:      -7.9      0.965      1.306
REMARK  Name = 
REMARK  5 active torsions:
REMARK  status: ('A' for Active; 'I' for Inactive)
REMARK    1  A    between atoms: C_2  and  C_3
REMARK    2  A    between atoms: C_2  and  C_13
REMARK    3  A    between atoms: C_4  and  C_6
REMARK    4  A    between atoms: C_13  and  C_16
REMARK    5  A    between atoms: C_16  and  C_19
REMARK                            x       y       z     vdW  Elec       q    Type
REMARK                         _______ _______ _______ _____ _____    ______ ____
ROOT
ATOM      1  O   UNL     1       3.330   1.953  17.991  0.00  0.00    +0.000 OA
ATOM      2  C   UNL     1       3.177   3.137  18.313  0.00  0.00    +0.000 C 
ENDROOT
BRANCH   2   3
ATOM      3  C   UNL     1       4.329   4.110  18.308  0.00  0.00    +0.000 C 
ATOM      4  C   UNL     1       5.177   4.273  17.264  0.00  0.00    +0.000 C 
ATOM      5  O   UNL     1       5.244   3.650  16.173  0.00  0.00    +0.000 OA
BRANCH   4   6
ATOM      6  C   UNL     1       6.145   5.388  17.508  0.00  0.00    +0.000 A 
ATOM      7  C   UNL     1       6.017   6.618  16.844  0.00  0.00    +0.000 A 
ATOM      8  C   UNL     1       6.852   7.690  17.177  0.00  0.00    +0.000 A 
ATOM      9  C   UNL     1       7.814   7.537  18.174  0.00  0.00    +0.000 A 
ATOM     10 CL   UNL     1       8.809   8.870  18.618  0.00  0.00    +0.000 Cl
ATOM     11  C   UNL     1       7.965   6.318  18.831  0.00  0.00    +0.000 A 
ATOM     12  C   UNL     1       7.133   5.245  18.495  0.00  0.00    +0.000 A 
ENDBRANCH   4   6
ENDBRANCH   2   3
BRANCH   2  13
ATOM     13  C   UNL     1       1.809   3.714  18.650  0.00  0.00    +0.000 C 
ATOM     14  F   UNL     1       1.594   4.884  17.972  0.00  0.00    +0.000 F 
ATOM     15  F   UNL     1       0.803   2.881  18.242  0.00  0.00    +0.000 F 
BRANCH  13  16
ATOM     16  C   UNL     1       1.671   3.971  20.141  0.00  0.00    +0.000 C 
ATOM     17  F   UNL     1       2.532   4.950  20.553  0.00  0.00    +0.000 F 
ATOM     18  F   UNL     1       0.423   4.481  20.397  0.00  0.00    +0.000 F 
BRANCH  16  19
ATOM     19  C   UNL     1       1.874   2.691  20.947  0.00  0.00    +0.000 C 
ATOM     20  F   UNL     1       3.158   2.476  21.315  0.00  0.00    +0.000 F 
ATOM     21  F   UNL     1       1.135   2.689  22.088  0.00  0.00    +0.000 F 
ATOM     22  F   UNL     1       1.486   1.593  20.251  0.00  0.00    +0.000 F 
ENDBRANCH  16  19
ENDBRANCH  13  16
ENDBRANCH   2  13
TORSDOF 5
ENDMDL
MODEL 6
REMARK VINA RESULT:      -7.8      4.418      5.304
REMARK  Name = 
REMARK  5 active torsions:
REMARK  status: ('A' for Active; 'I' for Inactive)
REMARK    1  A    between atoms: C_2  and  C_3
REMARK    2  A    between atoms: C_2  and  C_13
REMARK    3  A    between atoms: C_4  and  C_6
REMARK    4  A    between atoms: C_13  and  C_16
REMARK    5  A    between atoms: C_16  and  C_19
REMARK                            x       y       z     vdW  Elec       q    Type
REMARK                         _______ _______ _______ _____ _____    ______ ____
ROOT
ATOM      1  O   UNL     1       4.455   5.868  18.079  0.00  0.00    +0.000 OA
ATOM      2  C   UNL     1       3.310   5.710  18.521  0.00  0.00    +0.000 C 
ENDROOT
BRANCH   2   3
ATOM      3  C   UNL     1       2.628   6.775  19.341  0.00  0.00    +0.000 C 
ATOM      4  C   UNL     1       2.115   7.917  18.823  0.00  0.00    +0.000 C 
ATOM      5  O   UNL     1       2.149   8.355  17.644  0.00  0.00    +0.000 OA
BRANCH   4   6
ATOM      6  C   UNL     1       1.402   8.724  19.862  0.00  0.00    +0.000 A 
ATOM      7  C   UNL     1       0.816   9.959  19.544  0.00  0.00    +0.000 A 
ATOM      8  C   UNL     1       0.044  10.639  20.494  0.00  0.00    +0.000 A 
ATOM      9  C   UNL     1      -0.145  10.086  21.759  0.00  0.00    +0.000 A 
ATOM     10 CL   UNL     1      -1.134  10.898  22.910  0.00  0.00    +0.000 Cl
ATOM     11  C   UNL     1       0.443   8.868  22.094  0.00  0.00    +0.000 A 
ATOM     12  C   UNL     1       1.217   8.191  21.148  0.00  0.00    +0.000 A 
ENDBRANCH   4   6
ENDBRANCH   2   3
BRANCH   2  13
ATOM     13  C   UNL     1       2.481   4.475  18.196  0.00  0.00    +0.000 C 
ATOM     14  F   UNL     1       1.174   4.813  17.967  0.00  0.00    +0.000 F 
ATOM     15  F   UNL     1       2.902   3.883  17.037  0.00  0.00    +0.000 F 
BRANCH  13  16
ATOM     16  C   UNL     1       2.540   3.459  19.326  0.00  0.00    +0.000 C 
ATOM     17  F   UNL     1       3.061   2.272  18.893  0.00  0.00    +0.000 F 
ATOM     18  F   UNL     1       3.425   3.896  20.279  0.00  0.00    +0.000 F 
BRANCH  16  19
ATOM     19  C   UNL     1       1.167   3.253  19.960  0.00  0.00    +0.000 C 
ATOM     20  F   UNL     1       0.265   2.673  19.134  0.00  0.00    +0.000 F 
ATOM     21  F   UNL     1       1.235   2.475  21.072  0.00  0.00    +0.000 F 
ATOM     22  F   UNL     1       0.618   4.428  20.361  0.00  0.00    +0.000 F 
ENDBRANCH  16  19
ENDBRANCH  13  16
ENDBRANCH   2  13
TORSDOF 5
ENDMDL
MODEL 7
REMARK VINA RESULT:      -7.8      2.623      3.376
REMARK  Name = 
REMARK  5 active torsions:
REMARK  status: ('A' for Active; 'I' for Inactive)
REMARK    1  A    between atoms: C_2  and  C_3
REMARK    2  A    between atoms: C_2  and  C_13
REMARK    3  A    between atoms: C_4  and  C_6
REMARK    4  A    between atoms: C_13  and  C_16
REMARK    5  A    between atoms: C_16  and  C_19
REMARK                            x       y       z     vdW  Elec       q    Type
REMARK                         _______ _______ _______ _____ _____    ______ ____
ROOT
ATOM      1  O   UNL     1       2.972   6.744  19.603  0.00  0.00    +0.000 OA
ATOM      2  C   UNL     1       3.161   5.603  19.165  0.00  0.00    +0.000 C 
ENDROOT
BRANCH   2   3
ATOM      3  C   UNL     1       3.972   5.361  17.918  0.00  0.00    +0.000 C 
ATOM      4  C   UNL     1       5.306   5.125  17.916  0.00  0.00    +0.000 C 
ATOM      5  O   UNL     1       6.127   5.126  18.870  0.00  0.00    +0.000 OA
BRANCH   4   6
ATOM      6  C   UNL     1       5.810   4.809  16.543  0.00  0.00    +0.000 A 
ATOM      7  C   UNL     1       5.023   4.092  15.629  0.00  0.00    +0.000 A 
ATOM      8  C   UNL     1       5.456   3.916  14.310  0.00  0.00    +0.000 A 
ATOM      9  C   UNL     1       6.674   4.457  13.902  0.00  0.00    +0.000 A 
ATOM     10 CL   UNL     1       7.185   4.282  12.268  0.00  0.00    +0.000 Cl
ATOM     11  C   UNL     1       7.474   5.158  14.802  0.00  0.00    +0.000 A 
ATOM     12  C   UNL     1       7.043   5.330  16.121  0.00  0.00    +0.000 A 
ENDBRANCH   4   6
ENDBRANCH   2   3
BRANCH   2  13
ATOM     13  C   UNL     1       2.666   4.363  19.899  0.00  0.00    +0.000 C 
ATOM     14  F   UNL     1       3.586   3.352  19.821  0.00  0.00    +0.000 F 
ATOM     15  F   UNL     1       2.516   4.602  21.237  0.00  0.00    +0.000 F 
BRANCH  13  16
ATOM     16  C   UNL     1       1.344   3.876  19.328  0.00  0.00    +0.000 C 
ATOM     17  F   UNL     1       0.320   4.090  20.207  0.00  0.00    +0.000 F 
ATOM     18  F   UNL     1       1.020   4.635  18.231  0.00  0.00    +0.000 F 
BRANCH  16  19
ATOM     19  C   UNL     1       1.420   2.406  18.926  0.00  0.00    +0.000 C 
ATOM     20  F   UNL     1       1.869   1.593  19.911  0.00  0.00    +0.000 F 
ATOM     21  F   UNL     1       0.209   1.923  18.542  0.00  0.00    +0.000 F 
ATOM     22  F   UNL     1       2.248   2.217  17.868  0.00  0.00    +0.000 F 
ENDBRANCH  16  19
ENDBRANCH  13  16
ENDBRANCH   2  13
TORSDOF 5
ENDMDL
MODEL 8
REMARK VINA RESULT:      -7.8      4.322      5.194
REMARK  Name = 
REMARK  5 active torsions:
REMARK  status: ('A' for Active; 'I' for Inactive)
REMARK    1  A    between atoms: C_2  and  C_3
REMARK    2  A    between atoms: C_2  and  C_13
REMARK    3  A    between atoms: C_4  and  C_6
REMARK    4  A    between atoms: C_13  and  C_16
REMARK    5  A    between atoms: C_16  and  C_19
REMARK                            x       y       z     vdW  Elec       q    Type
REMARK                         _______ _______ _______ _____ _____    ______ ____
ROOT
ATOM      1  O   UNL     1       4.252   5.824  17.404  0.00  0.00    +0.000 OA
ATOM      2  C   UNL     1       3.184   5.577  17.976  0.00  0.00    +0.000 C 
ENDROOT
BRANCH   2   3
ATOM      3  C   UNL     1       2.502   6.600  18.848  0.00  0.00    +0.000 C 
ATOM      4  C   UNL     1       2.240   7.872  18.460  0.00  0.00    +0.000 C 
ATOM      5  O   UNL     1       2.544   8.469  17.395  0.00  0.00    +0.000 OA
BRANCH   4   6
ATOM      6  C   UNL     1       1.454   8.615  19.495  0.00  0.00    +0.000 A 
ATOM      7  C   UNL     1       1.369   8.146  20.815  0.00  0.00    +0.000 A 
ATOM      8  C   UNL     1       0.739   8.917  21.798  0.00  0.00    +0.000 A 
ATOM      9  C   UNL     1       0.195  10.157  21.466  0.00  0.00    +0.000 A 
ATOM     10 CL   UNL     1      -0.537  11.127  22.684  0.00  0.00    +0.000 Cl
ATOM     11  C   UNL     1       0.258  10.628  20.156  0.00  0.00    +0.000 A 
ATOM     12  C   UNL     1       0.884   9.856  19.173  0.00  0.00    +0.000 A 
ENDBRANCH   4   6
ENDBRANCH   2   3
BRANCH   2  13
ATOM     13  C   UNL     1       2.442   4.263  17.772  0.00  0.00    +0.000 C 
ATOM     14  F   UNL     1       1.115   4.488  17.519  0.00  0.00    +0.000 F 
ATOM     15  F   UNL     1       2.904   3.597  16.670  0.00  0.00    +0.000 F 
BRANCH  13  16
ATOM     16  C   UNL     1       2.569   3.363  18.990  0.00  0.00    +0.000 C 
ATOM     17  F   UNL     1       3.178   2.183  18.667  0.00  0.00    +0.000 F 
ATOM     18  F   UNL     1       3.415   3.950  19.897  0.00  0.00    +0.000 F 
BRANCH  16  19
ATOM     19  C   UNL     1       1.213   3.117  19.644  0.00  0.00    +0.000 C 
ATOM     20  F   UNL     1       0.572   4.250  20.016  0.00  0.00    +0.000 F 
ATOM     21  F   UNL     1       0.368   2.444  18.819  0.00  0.00    +0.000 F 
ATOM     22  F   UNL     1       1.325   2.356  20.762  0.00  0.00    +0.000 F 
ENDBRANCH  16  19
ENDBRANCH  13  16
ENDBRANCH   2  13
TORSDOF 5
ENDMDL
MODEL 9
REMARK VINA RESULT:      -7.7      4.577      6.124
REMARK  Name = 
REMARK  5 active torsions:
REMARK  status: ('A' for Active; 'I' for Inactive)
REMARK    1  A    between atoms: C_2  and  C_3
REMARK    2  A    between atoms: C_2  and  C_13
REMARK    3  A    between atoms: C_4  and  C_6
REMARK    4  A    between atoms: C_13  and  C_16
REMARK    5  A    between atoms: C_16  and  C_19
REMARK                            x       y       z     vdW  Elec       q    Type
REMARK                         _______ _______ _______ _____ _____    ______ ____
ROOT
ATOM      1  O   UNL     1       5.462   3.890  19.268  0.00  0.00    +0.000 OA
ATOM      2  C   UNL     1       5.376   4.776  18.410  0.00  0.00    +0.000 C 
ENDROOT
BRANCH   2   3
ATOM      3  C   UNL     1       4.448   5.952  18.581  0.00  0.00    +0.000 C 
ATOM      4  C   UNL     1       3.103   5.844  18.705  0.00  0.00    +0.000 C 
ATOM      5  O   UNL     1       2.366   4.826  18.639  0.00  0.00    +0.000 OA
BRANCH   4   6
ATOM      6  C   UNL     1       2.465   7.170  18.975  0.00  0.00    +0.000 A 
ATOM      7  C   UNL     1       2.285   8.111  17.949  0.00  0.00    +0.000 A 
ATOM      8  C   UNL     1       1.573   9.290  18.190  0.00  0.00    +0.000 A 
ATOM      9  C   UNL     1       1.037   9.532  19.455  0.00  0.00    +0.000 A 
ATOM     10 CL   UNL     1       0.120  10.961  19.739  0.00  0.00    +0.000 Cl
ATOM     11  C   UNL     1       1.222   8.616  20.488  0.00  0.00    +0.000 A 
ATOM     12  C   UNL     1       1.936   7.439  20.248  0.00  0.00    +0.000 A 
ENDBRANCH   4   6
ENDBRANCH   2   3
BRANCH   2  13
ATOM     13  C   UNL     1       6.258   4.788  17.169  0.00  0.00    +0.000 C 
ATOM     14  F   UNL     1       6.590   6.070  16.820  0.00  0.00    +0.000 F 
ATOM     15  F   UNL     1       7.453   4.165  17.401  0.00  0.00    +0.000 F 
BRANCH  13  16
ATOM     16  C   UNL     1       5.565   4.118  15.994  0.00  0.00    +0.000 C 
ATOM     17  F   UNL     1       6.007   2.835  15.828  0.00  0.00    +0.000 F 
ATOM     18  F   UNL     1       4.227   3.988  16.273  0.00  0.00    +0.000 F 
BRANCH  16  19
ATOM     19  C   UNL     1       5.741   4.925  14.710  0.00  0.00    +0.000 C 
ATOM     20  F   UNL     1       5.211   4.332  13.615  0.00  0.00    +0.000 F 
ATOM     21  F   UNL     1       5.169   6.154  14.803  0.00  0.00    +0.000 F 
ATOM     22  F   UNL     1       7.050   5.144  14.431  0.00  0.00    +0.000 F 
ENDBRANCH  16  19
ENDBRANCH  13  16
ENDBRANCH   2  13
TORSDOF 5
ENDMDL
