MODEL 1
REMARK VINA RESULT:      -6.8      0.000      0.000
REMARK  Name = 
REMARK  3 active torsions:
REMARK  status: ('A' for Active; 'I' for Inactive)
REMARK    1  A    between atoms: N_3  and  C_4
REMARK    2  A    between atoms: N_11  and  N_12
REMARK    3  A    between atoms: C_13  and  C_14
REMARK                            x       y       z     vdW  Elec       q    Type
REMARK                         _______ _______ _______ _____ _____    ______ ____
ROOT
ATOM      1  N   UNL     1      -3.575  11.933  18.657  0.00  0.00    +0.000 N 
ATOM      2  C   UNL     1      -3.250  12.372  19.959  0.00  0.00    +0.000 A 
ATOM      3  N   UNL     1      -2.094  12.127  20.511  0.00  0.00    +0.000 NA
ATOM      4  C   UNL     1      -1.164  11.333  19.815  0.00  0.00    +0.000 A 
ATOM      5  C   UNL     1       0.044  10.989  20.420  0.00  0.00    +0.000 A 
ATOM      6  C   UNL     1       0.957  10.150  19.769  0.00  0.00    +0.000 A 
ATOM      7  C   UNL     1       0.676   9.650  18.500  0.00  0.00    +0.000 A 
ATOM      8  C   UNL     1      -0.509  10.017  17.869  0.00  0.00    +0.000 A 
ATOM      9  C   UNL     1      -1.411  10.857  18.531  0.00  0.00    +0.000 A 
ATOM     10  C   UNL     1      -2.620  11.318  17.848  0.00  0.00    +0.000 A 
ATOM     11  O   UNL     1      -2.664  11.218  16.618  0.00  0.00    +0.000 OA
ENDROOT
BRANCH   1  15
ATOM     12  O   UNL     1      -6.010  10.514  18.215  0.00  0.00    +0.000 OA
ATOM     13  C   UNL     1      -5.883  11.689  17.875  0.00  0.00    +0.000 C 
ATOM     14  N   UNL     1      -7.018  12.339  17.450  0.00  0.00    +0.000 N 
ATOM     15  N   UNL     1      -4.729  12.435  17.975  0.00  0.00    +0.000 N 
ATOM     16  H   UNL     1      -7.821  11.749  17.647  0.00  0.00    +0.000 HD
ATOM     17  H   UNL     1      -4.773  13.434  17.856  0.00  0.00    +0.000 HD
BRANCH  14  18
ATOM     18  C   UNL     1      -7.238  13.721  17.405  0.00  0.00    +0.000 A 
ATOM     19  C   UNL     1      -7.310  14.411  16.195  0.00  0.00    +0.000 A 
ATOM     20  C   UNL     1      -7.531  15.791  16.196  0.00  0.00    +0.000 A 
ATOM     21  C   UNL     1      -7.673  16.470  17.406  0.00  0.00    +0.000 A 
ATOM     22 CL   UNL     1      -7.916  18.172  17.405  0.00  0.00    +0.000 Cl
ATOM     23  C   UNL     1      -7.615  15.781  18.615  0.00  0.00    +0.000 A 
ATOM     24  C   UNL     1      -7.420  14.398  18.615  0.00  0.00    +0.000 A 
ENDBRANCH  14  18
ENDBRANCH   1  15
BRANCH   2  25
ATOM     25  C   UNL     1      -4.222  13.205  20.743  0.00  0.00    +0.000 A 
ATOM     26  C   UNL     1      -4.105  14.599  20.842  0.00  0.00    +0.000 A 
ATOM     27  C   UNL     1      -4.883  15.323  21.745  0.00  0.00    +0.000 A 
ATOM     28  C   UNL     1      -5.865  14.672  22.492  0.00  0.00    +0.000 A 
ATOM     29  C   UNL     1      -6.091  13.311  22.297  0.00  0.00    +0.000 A 
ATOM     30  C   UNL     1      -5.276  12.581  21.436  0.00  0.00    +0.000 A 
ENDBRANCH   2  25
TORSDOF 3
ENDMDL
MODEL 2
REMARK VINA RESULT:      -6.8      6.714      8.305
REMARK  Name = 
REMARK  3 active torsions:
REMARK  status: ('A' for Active; 'I' for Inactive)
REMARK    1  A    between atoms: N_3  and  C_4
REMARK    2  A    between atoms: N_11  and  N_12
REMARK    3  A    between atoms: C_13  and  C_14
REMARK                            x       y       z     vdW  Elec       q    Type
REMARK                         _______ _______ _______ _____ _____    ______ ____
ROOT
ATOM      1  N   UNL     1       2.197   7.804  18.923  0.00  0.00    +0.000 N 
ATOM      2  C   UNL     1       1.855   7.303  20.198  0.00  0.00    +0.000 A 
ATOM      3  N   UNL     1       2.171   6.097  20.582  0.00  0.00    +0.000 NA
ATOM      4  C   UNL     1       2.811   5.239  19.669  0.00  0.00    +0.000 A 
ATOM      5  C   UNL     1       3.083   3.920  20.031  0.00  0.00    +0.000 A 
ATOM      6  C   UNL     1       3.663   3.032  19.117  0.00  0.00    +0.000 A 
ATOM      7  C   UNL     1       3.986   3.456  17.829  0.00  0.00    +0.000 A 
ATOM      8  C   UNL     1       3.755   4.779  17.468  0.00  0.00    +0.000 A 
ATOM      9  C   UNL     1       3.176   5.655  18.393  0.00  0.00    +0.000 A 
ATOM     10  C   UNL     1       3.004   7.068  18.056  0.00  0.00    +0.000 A 
ATOM     11  O   UNL     1       3.650   7.520  17.104  0.00  0.00    +0.000 OA
ENDROOT
BRANCH   1  15
ATOM     12  O   UNL     1       0.019   9.049  17.564  0.00  0.00    +0.000 OA
ATOM     13  C   UNL     1       0.951   9.710  18.021  0.00  0.00    +0.000 C 
ATOM     14  N   UNL     1       0.805  11.077  18.014  0.00  0.00    +0.000 N 
ATOM     15  N   UNL     1       2.080   9.199  18.623  0.00  0.00    +0.000 N 
ATOM     16  H   UNL     1      -0.154  11.299  17.762  0.00  0.00    +0.000 HD
ATOM     17  H   UNL     1       2.690   9.814  19.135  0.00  0.00    +0.000 HD
BRANCH  14  18
ATOM     18  C   UNL     1       1.487  12.007  18.809  0.00  0.00    +0.000 A 
ATOM     19  C   UNL     1       1.239  12.120  20.177  0.00  0.00    +0.000 A 
ATOM     20  C   UNL     1       1.943  13.060  20.933  0.00  0.00    +0.000 A 
ATOM     21  C   UNL     1       2.884  13.884  20.316  0.00  0.00    +0.000 A 
ATOM     22 CL   UNL     1       3.728  15.060  21.243  0.00  0.00    +0.000 Cl
ATOM     23  C   UNL     1       3.143  13.763  18.952  0.00  0.00    +0.000 A 
ATOM     24  C   UNL     1       2.459  12.806  18.200  0.00  0.00    +0.000 A 
ENDBRANCH  14  18
ENDBRANCH   1  15
BRANCH   2  25
ATOM     25  C   UNL     1       1.155   8.180  21.194  0.00  0.00    +0.000 A 
ATOM     26  C   UNL     1       1.853   8.955  22.132  0.00  0.00    +0.000 A 
ATOM     27  C   UNL     1       1.187   9.587  23.181  0.00  0.00    +0.000 A 
ATOM     28  C   UNL     1      -0.206   9.537  23.248  0.00  0.00    +0.000 A 
ATOM     29  C   UNL     1      -0.922   8.892  22.242  0.00  0.00    +0.000 A 
ATOM     30  C   UNL     1      -0.252   8.215  21.227  0.00  0.00    +0.000 A 
ENDBRANCH   2  25
TORSDOF 3
ENDMDL
MODEL 3
REMARK VINA RESULT:      -6.6      6.378      8.128
REMARK  Name = 
REMARK  3 active torsions:
REMARK  status: ('A' for Active; 'I' for Inactive)
REMARK    1  A    between atoms: N_3  and  C_4
REMARK    2  A    between atoms: N_11  and  N_12
REMARK    3  A    between atoms: C_13  and  C_14
REMARK                            x       y       z     vdW  Elec       q    Type
REMARK                         _______ _______ _______ _____ _____    ______ ____
ROOT
ATOM      1  N   UNL     1       2.163   7.876  18.913  0.00  0.00    +0.000 N 
ATOM      2  C   UNL     1       1.853   7.290  20.160  0.00  0.00    +0.000 A 
ATOM      3  N   UNL     1       2.237   6.085  20.481  0.00  0.00    +0.000 NA
ATOM      4  C   UNL     1       2.920   5.313  19.523  0.00  0.00    +0.000 A 
ATOM      5  C   UNL     1       3.266   3.994  19.815  0.00  0.00    +0.000 A 
ATOM      6  C   UNL     1       3.891   3.189  18.855  0.00  0.00    +0.000 A 
ATOM      7  C   UNL     1       4.186   3.697  17.592  0.00  0.00    +0.000 A 
ATOM      8  C   UNL     1       3.881   5.022  17.300  0.00  0.00    +0.000 A 
ATOM      9  C   UNL     1       3.257   5.815  18.271  0.00  0.00    +0.000 A 
ATOM     10  C   UNL     1       3.007   7.232  18.008  0.00  0.00    +0.000 A 
ATOM     11  O   UNL     1       3.623   7.768  17.082  0.00  0.00    +0.000 OA
ENDROOT
BRANCH   1  15
ATOM     12  O   UNL     1      -0.001   9.056  17.477  0.00  0.00    +0.000 OA
ATOM     13  C   UNL     1       0.849   9.747  18.037  0.00  0.00    +0.000 C 
ATOM     14  N   UNL     1       0.607  11.099  18.099  0.00  0.00    +0.000 N 
ATOM     15  N   UNL     1       1.968   9.276  18.687  0.00  0.00    +0.000 N 
ATOM     16  H   UNL     1      -0.346  11.272  17.792  0.00  0.00    +0.000 HD
ATOM     17  H   UNL     1       2.497   9.897  19.276  0.00  0.00    +0.000 HD
BRANCH  14  18
ATOM     18  C   UNL     1       1.167  12.021  18.993  0.00  0.00    +0.000 A 
ATOM     19  C   UNL     1       2.267  12.804  18.642  0.00  0.00    +0.000 A 
ATOM     20  C   UNL     1       2.792  13.712  19.565  0.00  0.00    +0.000 A 
ATOM     21  C   UNL     1       2.220  13.825  20.832  0.00  0.00    +0.000 A 
ATOM     22 CL   UNL     1       2.888  14.921  21.975  0.00  0.00    +0.000 Cl
ATOM     23  C   UNL     1       1.113  13.053  21.179  0.00  0.00    +0.000 A 
ATOM     24  C   UNL     1       0.570  12.164  20.249  0.00  0.00    +0.000 A 
ENDBRANCH  14  18
ENDBRANCH   1  15
BRANCH   2  25
ATOM     25  C   UNL     1       1.109   8.073  21.201  0.00  0.00    +0.000 A 
ATOM     26  C   UNL     1      -0.293   8.128  21.239  0.00  0.00    +0.000 A 
ATOM     27  C   UNL     1      -0.955   9.029  22.073  0.00  0.00    +0.000 A 
ATOM     28  C   UNL     1      -0.223   9.819  22.959  0.00  0.00    +0.000 A 
ATOM     29  C   UNL     1       1.160   9.671  23.035  0.00  0.00    +0.000 A 
ATOM     30  C   UNL     1       1.823   8.812  22.164  0.00  0.00    +0.000 A 
ENDBRANCH   2  25
TORSDOF 3
ENDMDL
MODEL 4
REMARK VINA RESULT:      -6.5      5.097      6.649
REMARK  Name = 
REMARK  3 active torsions:
REMARK  status: ('A' for Active; 'I' for Inactive)
REMARK    1  A    between atoms: N_3  and  C_4
REMARK    2  A    between atoms: N_11  and  N_12
REMARK    3  A    between atoms: C_13  and  C_14
REMARK                            x       y       z     vdW  Elec       q    Type
REMARK                         _______ _______ _______ _____ _____    ______ ____
ROOT
ATOM      1  N   UNL     1       1.226   9.231  19.050  0.00  0.00    +0.000 N 
ATOM      2  C   UNL     1       1.087   8.903  20.416  0.00  0.00    +0.000 A 
ATOM      3  N   UNL     1       1.557   7.795  20.920  0.00  0.00    +0.000 NA
ATOM      4  C   UNL     1       2.159   6.860  20.059  0.00  0.00    +0.000 A 
ATOM      5  C   UNL     1       2.594   5.634  20.563  0.00  0.00    +0.000 A 
ATOM      6  C   UNL     1       3.140   4.664  19.713  0.00  0.00    +0.000 A 
ATOM      7  C   UNL     1       3.266   4.913  18.348  0.00  0.00    +0.000 A 
ATOM      8  C   UNL     1       2.872   6.145  17.838  0.00  0.00    +0.000 A 
ATOM      9  C   UNL     1       2.329   7.105  18.700  0.00  0.00    +0.000 A 
ATOM     10  C   UNL     1       1.988   8.435  18.195  0.00  0.00    +0.000 A 
ATOM     11  O   UNL     1       2.470   8.785  17.113  0.00  0.00    +0.000 OA
ENDROOT
BRANCH   1  15
ATOM     12  O   UNL     1      -1.175  10.074  17.759  0.00  0.00    +0.000 OA
ATOM     13  C   UNL     1      -0.277  10.871  18.026  0.00  0.00    +0.000 C 
ATOM     14  N   UNL     1      -0.559  12.206  17.848  0.00  0.00    +0.000 N 
ATOM     15  N   UNL     1       0.945  10.552  18.576  0.00  0.00    +0.000 N 
ATOM     16  H   UNL     1      -1.553  12.305  17.666  0.00  0.00    +0.000 HD
ATOM     17  H   UNL     1       1.533  11.285  18.936  0.00  0.00    +0.000 HD
BRANCH  14  18
ATOM     18  C   UNL     1       0.094  13.296  18.437  0.00  0.00    +0.000 A 
ATOM     19  C   UNL     1       1.470  13.483  18.302  0.00  0.00    +0.000 A 
ATOM     20  C   UNL     1       2.081  14.586  18.905  0.00  0.00    +0.000 A 
ATOM     21  C   UNL     1       1.314  15.488  19.642  0.00  0.00    +0.000 A 
ATOM     22 CL   UNL     1       2.073  16.827  20.407  0.00  0.00    +0.000 Cl
ATOM     23  C   UNL     1      -0.063  15.310  19.766  0.00  0.00    +0.000 A 
ATOM     24  C   UNL     1      -0.678  14.223  19.142  0.00  0.00    +0.000 A 
ENDBRANCH  14  18
ENDBRANCH   1  15
BRANCH   2  25
ATOM     25  C   UNL     1       0.433   9.865  21.364  0.00  0.00    +0.000 A 
ATOM     26  C   UNL     1      -0.404   9.439  22.406  0.00  0.00    +0.000 A 
ATOM     27  C   UNL     1      -1.169  10.351  23.133  0.00  0.00    +0.000 A 
ATOM     28  C   UNL     1      -1.029  11.718  22.893  0.00  0.00    +0.000 A 
ATOM     29  C   UNL     1      -0.094  12.164  21.961  0.00  0.00    +0.000 A 
ATOM     30  C   UNL     1       0.627  11.250  21.199  0.00  0.00    +0.000 A 
ENDBRANCH   2  25
TORSDOF 3
ENDMDL
MODEL 5
REMARK VINA RESULT:      -6.3      3.957      5.802
REMARK  Name = 
REMARK  3 active torsions:
REMARK  status: ('A' for Active; 'I' for Inactive)
REMARK    1  A    between atoms: N_3  and  C_4
REMARK    2  A    between atoms: N_11  and  N_12
REMARK    3  A    between atoms: C_13  and  C_14
REMARK                            x       y       z     vdW  Elec       q    Type
REMARK                         _______ _______ _______ _____ _____    ______ ____
ROOT
ATOM      1  N   UNL     1       1.285  13.018  19.834  0.00  0.00    +0.000 N 
ATOM      2  C   UNL     1       0.875  13.401  21.128  0.00  0.00    +0.000 A 
ATOM      3  N   UNL     1       1.559  14.238  21.860  0.00  0.00    +0.000 NA
ATOM      4  C   UNL     1       2.788  14.717  21.371  0.00  0.00    +0.000 A 
ATOM      5  C   UNL     1       3.575  15.546  22.170  0.00  0.00    +0.000 A 
ATOM      6  C   UNL     1       4.829  15.985  21.729  0.00  0.00    +0.000 A 
ATOM      7  C   UNL     1       5.309  15.606  20.477  0.00  0.00    +0.000 A 
ATOM      8  C   UNL     1       4.517  14.812  19.654  0.00  0.00    +0.000 A 
ATOM      9  C   UNL     1       3.265  14.382  20.109  0.00  0.00    +0.000 A 
ATOM     10  C   UNL     1       2.388  13.616  19.223  0.00  0.00    +0.000 A 
ATOM     11  O   UNL     1       2.627  13.636  18.012  0.00  0.00    +0.000 OA
ENDROOT
BRANCH   1  15
ATOM     12  O   UNL     1       1.449  10.257  19.130  0.00  0.00    +0.000 OA
ATOM     13  C   UNL     1       0.525  10.966  18.734  0.00  0.00    +0.000 C 
ATOM     14  N   UNL     1      -0.517  10.330  18.100  0.00  0.00    +0.000 N 
ATOM     15  N   UNL     1       0.397  12.320  18.954  0.00  0.00    +0.000 N 
ATOM     16  H   UNL     1      -0.401   9.327  18.214  0.00  0.00    +0.000 HD
ATOM     17  H   UNL     1      -0.481  12.773  18.761  0.00  0.00    +0.000 HD
BRANCH  14  18
ATOM     18  C   UNL     1      -1.823  10.806  17.928  0.00  0.00    +0.000 A 
ATOM     19  C   UNL     1      -2.535  11.381  18.981  0.00  0.00    +0.000 A 
ATOM     20  C   UNL     1      -3.836  11.845  18.765  0.00  0.00    +0.000 A 
ATOM     21  C   UNL     1      -4.415  11.725  17.502  0.00  0.00    +0.000 A 
ATOM     22 CL   UNL     1      -6.025  12.269  17.247  0.00  0.00    +0.000 Cl
ATOM     23  C   UNL     1      -3.700  11.163  16.446  0.00  0.00    +0.000 A 
ATOM     24  C   UNL     1      -2.391  10.723  16.654  0.00  0.00    +0.000 A 
ENDBRANCH  14  18
ENDBRANCH   1  15
BRANCH   2  25
ATOM     25  C   UNL     1      -0.421  12.896  21.694  0.00  0.00    +0.000 A 
ATOM     26  C   UNL     1      -1.602  13.651  21.651  0.00  0.00    +0.000 A 
ATOM     27  C   UNL     1      -2.732  13.260  22.369  0.00  0.00    +0.000 A 
ATOM     28  C   UNL     1      -2.728  12.048  23.061  0.00  0.00    +0.000 A 
ATOM     29  C   UNL     1      -1.611  11.219  22.993  0.00  0.00    +0.000 A 
ATOM     30  C   UNL     1      -0.465  11.637  22.322  0.00  0.00    +0.000 A 
ENDBRANCH   2  25
TORSDOF 3
ENDMDL
MODEL 6
REMARK VINA RESULT:      -6.3      4.474      6.357
REMARK  Name = 
REMARK  3 active torsions:
REMARK  status: ('A' for Active; 'I' for Inactive)
REMARK    1  A    between atoms: N_3  and  C_4
REMARK    2  A    between atoms: N_11  and  N_12
REMARK    3  A    between atoms: C_13  and  C_14
REMARK                            x       y       z     vdW  Elec       q    Type
REMARK                         _______ _______ _______ _____ _____    ______ ____
ROOT
ATOM      1  N   UNL     1       0.628   9.550  20.554  0.00  0.00    +0.000 N 
ATOM      2  C   UNL     1       1.105  10.278  19.442  0.00  0.00    +0.000 A 
ATOM      3  N   UNL     1       1.844   9.733  18.515  0.00  0.00    +0.000 NA
ATOM      4  C   UNL     1       2.242   8.392  18.665  0.00  0.00    +0.000 A 
ATOM      5  C   UNL     1       3.099   7.815  17.729  0.00  0.00    +0.000 A 
ATOM      6  C   UNL     1       3.556   6.501  17.892  0.00  0.00    +0.000 A 
ATOM      7  C   UNL     1       3.154   5.745  18.991  0.00  0.00    +0.000 A 
ATOM      8  C   UNL     1       2.268   6.295  19.911  0.00  0.00    +0.000 A 
ATOM      9  C   UNL     1       1.819   7.609  19.735  0.00  0.00    +0.000 A 
ATOM     10  C   UNL     1       0.824   8.172  20.647  0.00  0.00    +0.000 A 
ATOM     11  O   UNL     1       0.175   7.391  21.350  0.00  0.00    +0.000 OA
ENDROOT
BRANCH   1  15
ATOM     12  O   UNL     1       0.778   9.796  23.392  0.00  0.00    +0.000 OA
ATOM     13  C   UNL     1      -0.187  10.225  22.762  0.00  0.00    +0.000 C 
ATOM     14  N   UNL     1      -1.093  10.989  23.460  0.00  0.00    +0.000 N 
ATOM     15  N   UNL     1      -0.389  10.087  21.407  0.00  0.00    +0.000 N 
ATOM     16  H   UNL     1      -0.704  11.198  24.374  0.00  0.00    +0.000 HD
ATOM     17  H   UNL     1      -1.102  10.634  20.954  0.00  0.00    +0.000 HD
BRANCH  14  18
ATOM     18  C   UNL     1      -2.013  11.904  22.933  0.00  0.00    +0.000 A 
ATOM     19  C   UNL     1      -1.725  12.658  21.795  0.00  0.00    +0.000 A 
ATOM     20  C   UNL     1      -2.673  13.559  21.303  0.00  0.00    +0.000 A 
ATOM     21  C   UNL     1      -3.898  13.704  21.955  0.00  0.00    +0.000 A 
ATOM     22 CL   UNL     1      -5.050  14.834  21.364  0.00  0.00    +0.000 Cl
ATOM     23  C   UNL     1      -4.193  12.942  23.084  0.00  0.00    +0.000 A 
ATOM     24  C   UNL     1      -3.257  12.022  23.561  0.00  0.00    +0.000 A 
ENDBRANCH  14  18
ENDBRANCH   1  15
BRANCH   2  25
ATOM     25  C   UNL     1       0.720  11.716  19.256  0.00  0.00    +0.000 A 
ATOM     26  C   UNL     1      -0.382  12.102  18.477  0.00  0.00    +0.000 A 
ATOM     27  C   UNL     1      -0.591  13.440  18.141  0.00  0.00    +0.000 A 
ATOM     28  C   UNL     1       0.245  14.425  18.666  0.00  0.00    +0.000 A 
ATOM     29  C   UNL     1       1.255  14.070  19.557  0.00  0.00    +0.000 A 
ATOM     30  C   UNL     1       1.496  12.730  19.847  0.00  0.00    +0.000 A 
ENDBRANCH   2  25
TORSDOF 3
ENDMDL
MODEL 7
REMARK VINA RESULT:      -6.3      4.122      6.028
REMARK  Name = 
REMARK  3 active torsions:
REMARK  status: ('A' for Active; 'I' for Inactive)
REMARK    1  A    between atoms: N_3  and  C_4
REMARK    2  A    between atoms: N_11  and  N_12
REMARK    3  A    between atoms: C_13  and  C_14
REMARK                            x       y       z     vdW  Elec       q    Type
REMARK                         _______ _______ _______ _____ _____    ______ ____
ROOT
ATOM      1  N   UNL     1       0.263   9.842  20.792  0.00  0.00    +0.000 N 
ATOM      2  C   UNL     1       0.948  10.377  19.680  0.00  0.00    +0.000 A 
ATOM      3  N   UNL     1       1.700   9.646  18.903  0.00  0.00    +0.000 NA
ATOM      4  C   UNL     1       1.895   8.291  19.228  0.00  0.00    +0.000 A 
ATOM      5  C   UNL     1       2.760   7.512  18.460  0.00  0.00    +0.000 A 
ATOM      6  C   UNL     1       3.015   6.178  18.801  0.00  0.00    +0.000 A 
ATOM      7  C   UNL     1       2.401   5.604  19.912  0.00  0.00    +0.000 A 
ATOM      8  C   UNL     1       1.507   6.358  20.664  0.00  0.00    +0.000 A 
ATOM      9  C   UNL     1       1.260   7.690  20.309  0.00  0.00    +0.000 A 
ATOM     10  C   UNL     1       0.260   8.469  21.040  0.00  0.00    +0.000 A 
ATOM     11  O   UNL     1      -0.559   7.857  21.733  0.00  0.00    +0.000 OA
ENDROOT
BRANCH   1  15
ATOM     12  O   UNL     1       0.087  10.286  23.604  0.00  0.00    +0.000 OA
ATOM     13  C   UNL     1      -0.710  10.804  22.823  0.00  0.00    +0.000 C 
ATOM     14  N   UNL     1      -1.564  11.748  23.342  0.00  0.00    +0.000 N 
ATOM     15  N   UNL     1      -0.756  10.592  21.463  0.00  0.00    +0.000 N 
ATOM     16  H   UNL     1      -1.266  11.968  24.288  0.00  0.00    +0.000 HD
ATOM     17  H   UNL     1      -1.309  11.202  20.884  0.00  0.00    +0.000 HD
BRANCH  14  18
ATOM     18  C   UNL     1      -2.251  12.747  22.641  0.00  0.00    +0.000 A 
ATOM     19  C   UNL     1      -1.593  13.866  22.129  0.00  0.00    +0.000 A 
ATOM     20  C   UNL     1      -2.317  14.838  21.434  0.00  0.00    +0.000 A 
ATOM     21  C   UNL     1      -3.693  14.687  21.262  0.00  0.00    +0.000 A 
ATOM     22 CL   UNL     1      -4.586  15.899  20.432  0.00  0.00    +0.000 Cl
ATOM     23  C   UNL     1      -4.350  13.564  21.760  0.00  0.00    +0.000 A 
ATOM     24  C   UNL     1      -3.623  12.579  22.432  0.00  0.00    +0.000 A 
ENDBRANCH  14  18
ENDBRANCH   1  15
BRANCH   2  25
ATOM     25  C   UNL     1       0.783  11.823  19.312  0.00  0.00    +0.000 A 
ATOM     26  C   UNL     1       1.704  12.806  19.702  0.00  0.00    +0.000 A 
ATOM     27  C   UNL     1       1.422  14.162  19.538  0.00  0.00    +0.000 A 
ATOM     28  C   UNL     1       0.252  14.552  18.886  0.00  0.00    +0.000 A 
ATOM     29  C   UNL     1      -0.603  13.584  18.365  0.00  0.00    +0.000 A 
ATOM     30  C   UNL     1      -0.347  12.232  18.578  0.00  0.00    +0.000 A 
ENDBRANCH   2  25
TORSDOF 3
ENDMDL
MODEL 8
REMARK VINA RESULT:      -6.2      3.062      4.458
REMARK  Name = 
REMARK  3 active torsions:
REMARK  status: ('A' for Active; 'I' for Inactive)
REMARK    1  A    between atoms: N_3  and  C_4
REMARK    2  A    between atoms: N_11  and  N_12
REMARK    3  A    between atoms: C_13  and  C_14
REMARK                            x       y       z     vdW  Elec       q    Type
REMARK                         _______ _______ _______ _____ _____    ______ ____
ROOT
ATOM      1  N   UNL     1      -4.767  12.580  19.830  0.00  0.00    +0.000 N 
ATOM      2  C   UNL     1      -3.381  12.584  20.098  0.00  0.00    +0.000 A 
ATOM      3  N   UNL     1      -2.500  12.173  19.229  0.00  0.00    +0.000 NA
ATOM      4  C   UNL     1      -2.950  11.637  18.008  0.00  0.00    +0.000 A 
ATOM      5  C   UNL     1      -2.029  11.116  17.099  0.00  0.00    +0.000 A 
ATOM      6  C   UNL     1      -2.459  10.522  15.906  0.00  0.00    +0.000 A 
ATOM      7  C   UNL     1      -3.817  10.451  15.603  0.00  0.00    +0.000 A 
ATOM      8  C   UNL     1      -4.743  11.002  16.483  0.00  0.00    +0.000 A 
ATOM      9  C   UNL     1      -4.298  11.593  17.671  0.00  0.00    +0.000 A 
ATOM     10  C   UNL     1      -5.252  12.249  18.564  0.00  0.00    +0.000 A 
ATOM     11  O   UNL     1      -6.363  12.544  18.111  0.00  0.00    +0.000 OA
ENDROOT
BRANCH   1  15
ATOM     12  O   UNL     1      -6.757  11.380  21.485  0.00  0.00    +0.000 OA
ATOM     13  C   UNL     1      -6.564  12.595  21.493  0.00  0.00    +0.000 C 
ATOM     14  N   UNL     1      -7.214  13.320  22.465  0.00  0.00    +0.000 N 
ATOM     15  N   UNL     1      -5.686  13.276  20.680  0.00  0.00    +0.000 N 
ATOM     16  H   UNL     1      -7.634  12.673  23.125  0.00  0.00    +0.000 HD
ATOM     17  H   UNL     1      -5.456  14.233  20.890  0.00  0.00    +0.000 HD
BRANCH  14  18
ATOM     18  C   UNL     1      -6.872  14.590  22.945  0.00  0.00    +0.000 A 
ATOM     19  C   UNL     1      -7.683  15.702  22.714  0.00  0.00    +0.000 A 
ATOM     20  C   UNL     1      -7.304  16.951  23.214  0.00  0.00    +0.000 A 
ATOM     21  C   UNL     1      -6.117  17.080  23.934  0.00  0.00    +0.000 A 
ATOM     22 CL   UNL     1      -5.639  18.623  24.521  0.00  0.00    +0.000 Cl
ATOM     23  C   UNL     1      -5.313  15.968  24.177  0.00  0.00    +0.000 A 
ATOM     24  C   UNL     1      -5.703  14.715  23.702  0.00  0.00    +0.000 A 
ENDBRANCH  14  18
ENDBRANCH   1  15
BRANCH   2  25
ATOM     25  C   UNL     1      -2.862  13.129  21.397  0.00  0.00    +0.000 A 
ATOM     26  C   UNL     1      -2.477  14.469  21.546  0.00  0.00    +0.000 A 
ATOM     27  C   UNL     1      -1.798  14.899  22.687  0.00  0.00    +0.000 A 
ATOM     28  C   UNL     1      -1.586  14.012  23.742  0.00  0.00    +0.000 A 
ATOM     29  C   UNL     1      -2.091  12.717  23.667  0.00  0.00    +0.000 A 
ATOM     30  C   UNL     1      -2.719  12.274  22.506  0.00  0.00    +0.000 A 
ENDBRANCH   2  25
TORSDOF 3
ENDMDL
MODEL 9
REMARK VINA RESULT:      -6.2      4.948      6.046
REMARK  Name = 
REMARK  3 active torsions:
REMARK  status: ('A' for Active; 'I' for Inactive)
REMARK    1  A    between atoms: N_3  and  C_4
REMARK    2  A    between atoms: N_11  and  N_12
REMARK    3  A    between atoms: C_13  and  C_14
REMARK                            x       y       z     vdW  Elec       q    Type
REMARK                         _______ _______ _______ _____ _____    ______ ____
ROOT
ATOM      1  N   UNL     1       0.785  10.657  19.328  0.00  0.00    +0.000 N 
ATOM      2  C   UNL     1       0.545  10.277  20.667  0.00  0.00    +0.000 A 
ATOM      3  N   UNL     1       0.911   9.118  21.141  0.00  0.00    +0.000 NA
ATOM      4  C   UNL     1       1.500   8.184  20.270  0.00  0.00    +0.000 A 
ATOM      5  C   UNL     1       1.823   6.910  20.736  0.00  0.00    +0.000 A 
ATOM      6  C   UNL     1       2.353   5.944  19.871  0.00  0.00    +0.000 A 
ATOM      7  C   UNL     1       2.574   6.245  18.529  0.00  0.00    +0.000 A 
ATOM      8  C   UNL     1       2.293   7.524  18.060  0.00  0.00    +0.000 A 
ATOM      9  C   UNL     1       1.765   8.479  18.936  0.00  0.00    +0.000 A 
ATOM     10  C   UNL     1       1.542   9.850  18.479  0.00  0.00    +0.000 A 
ATOM     11  O   UNL     1       2.110  10.215  17.444  0.00  0.00    +0.000 OA
ENDROOT
BRANCH   1  15
ATOM     12  O   UNL     1      -1.439  11.703  17.880  0.00  0.00    +0.000 OA
ATOM     13  C   UNL     1      -0.527  12.432  18.268  0.00  0.00    +0.000 C 
ATOM     14  N   UNL     1      -0.719  13.788  18.140  0.00  0.00    +0.000 N 
ATOM     15  N   UNL     1       0.621  12.014  18.905  0.00  0.00    +0.000 N 
ATOM     16  H   UNL     1      -1.686  13.954  17.877  0.00  0.00    +0.000 HD
ATOM     17  H   UNL     1       1.212  12.693  19.356  0.00  0.00    +0.000 HD
BRANCH  14  18
ATOM     18  C   UNL     1      -0.065  14.807  18.843  0.00  0.00    +0.000 A 
ATOM     19  C   UNL     1       1.314  14.995  18.744  0.00  0.00    +0.000 A 
ATOM     20  C   UNL     1       1.926  16.025  19.463  0.00  0.00    +0.000 A 
ATOM     21  C   UNL     1       1.157  16.854  20.279  0.00  0.00    +0.000 A 
ATOM     22 CL   UNL     1       1.917  18.102  21.184  0.00  0.00    +0.000 Cl
ATOM     23  C   UNL     1      -0.222  16.677  20.368  0.00  0.00    +0.000 A 
ATOM     24  C   UNL     1      -0.839  15.665  19.630  0.00  0.00    +0.000 A 
ENDBRANCH  14  18
ENDBRANCH   1  15
BRANCH   2  25
ATOM     25  C   UNL     1      -0.099  11.238  21.623  0.00  0.00    +0.000 A 
ATOM     26  C   UNL     1      -1.120  10.849  22.503  0.00  0.00    +0.000 A 
ATOM     27  C   UNL     1      -1.848  11.796  23.223  0.00  0.00    +0.000 A 
ATOM     28  C   UNL     1      -1.496  13.144  23.148  0.00  0.00    +0.000 A 
ATOM     29  C   UNL     1      -0.392  13.528  22.391  0.00  0.00    +0.000 A 
ATOM     30  C   UNL     1       0.299  12.588  21.631  0.00  0.00    +0.000 A 
ENDBRANCH   2  25
TORSDOF 3
ENDMDL
