MODEL 1
REMARK VINA RESULT:      -8.9      0.000      0.000
REMARK  Name = 
REMARK  10 active torsions:
REMARK  status: ('A' for Active; 'I' for Inactive)
REMARK    1  A    between atoms: C_2  and  O_3
REMARK    2  A    between atoms: C_2  and  C_4
REMARK    3  A    between atoms: C_4  and  C_5
REMARK    4  A    between atoms: C_5  and  C_6
REMARK    5  A    between atoms: C_5  and  C_28
REMARK    6  A    between atoms: C_6  and  C_7
REMARK    7  A    between atoms: C_7  and  C_8
REMARK    8  A    between atoms: C_12  and  C_14
REMARK    9  A    between atoms: C_14  and  C_15
REMARK   10  A    between atoms: C_15  and  C_16
REMARK                            x       y       z     vdW  Elec       q    Type
REMARK                         _______ _______ _______ _____ _____    ______ ____
ROOT
ATOM      1  C   UNL     1       2.690   7.401  18.401  0.00  0.00    +0.000 C 
ATOM      2  C   UNL     1       2.514   7.484  19.933  0.00  0.00    +0.000 C 
ATOM      3  C   UNL     1       1.174   8.113  20.332  0.00  0.00    +0.000 C 
ATOM      4  N   UNL     1       0.965   9.381  19.638  0.00  0.00    +0.000 N 
ATOM      5  C   UNL     1       0.896  10.557  20.377  0.00  0.00    +0.000 C 
ATOM      6  O   UNL     1       0.956  10.566  21.607  0.00  0.00    +0.000 OA
ATOM      7  C   UNL     1       1.062   9.323  18.178  0.00  0.00    +0.000 C 
ATOM      8  C   UNL     1       2.440   8.794  17.792  0.00  0.00    +0.000 C 
ENDROOT
BRANCH   1   9
ATOM      9  C   UNL     1       1.766   6.302  17.842  0.00  0.00    +0.000 C 
BRANCH   9  10
ATOM     10  C   UNL     1       1.976   4.925  18.468  0.00  0.00    +0.000 C 
BRANCH  10  11
ATOM     11  C   UNL     1       2.650   3.909  17.528  0.00  0.00    +0.000 C 
BRANCH  11  12
ATOM     12  C   UNL     1       4.167   4.064  17.524  0.00  0.00    +0.000 A 
ATOM     13  C   UNL     1       4.930   4.078  16.328  0.00  0.00    +0.000 A 
ATOM     14  C   UNL     1       6.262   4.500  16.327  0.00  0.00    +0.000 A 
ATOM     15  C   UNL     1       6.794   4.901  17.530  0.00  0.00    +0.000 A 
ATOM     16  C   UNL     1       6.096   4.781  18.710  0.00  0.00    +0.000 A 
ATOM     17  C   UNL     1       4.801   4.324  18.749  0.00  0.00    +0.000 A 
ATOM     18  O   UNL     1       6.787   5.280  19.771  0.00  0.00    +0.000 OA
ATOM     19  C   UNL     1       7.804   6.011  19.058  0.00  0.00    +0.000 C 
ATOM     20  O   UNL     1       7.991   5.525  17.712  0.00  0.00    +0.000 OA
ENDBRANCH  11  12
BRANCH  11  21
ATOM     21  C   UNL     1       2.237   2.429  17.736  0.00  0.00    +0.000 C 
BRANCH  21  23
ATOM     22  O   UNL     1       0.101   2.098  18.855  0.00  0.00    +0.000 OA
ATOM     23  C   UNL     1       1.319   2.203  18.906  0.00  0.00    +0.000 C 
BRANCH  23  24
ATOM     24  O   UNL     1       2.001   2.120  20.077  0.00  0.00    +0.000 OA
ATOM     25  H   UNL     1       2.592   1.351  20.139  0.00  0.00    +0.000 HD
ENDBRANCH  23  24
ENDBRANCH  21  23
ENDBRANCH  11  21
ENDBRANCH  10  11
ENDBRANCH   9  10
ENDBRANCH   1   9
BRANCH   5  26
ATOM     26  C   UNL     1       0.723  11.837  19.585  0.00  0.00    +0.000 C 
BRANCH  26  27
ATOM     27  C   UNL     1      -0.484  12.637  20.060  0.00  0.00    +0.000 C 
BRANCH  27  28
ATOM     28  C   UNL     1      -1.765  12.278  19.347  0.00  0.00    +0.000 A 
ATOM     29  C   UNL     1      -1.691  11.759  18.057  0.00  0.00    +0.000 A 
ATOM     30  C   UNL     1      -2.865  11.421  17.405  0.00  0.00    +0.000 A 
ATOM     31  C   UNL     1      -4.087  11.595  18.057  0.00  0.00    +0.000 A 
ATOM     32  C   UNL     1      -4.082  12.130  19.346  0.00  0.00    +0.000 A 
ATOM     33  N   UNL     1      -2.946  12.470  19.984  0.00  0.00    +0.000 NA
ATOM     34  N   UNL     1      -5.260  12.287  20.062  0.00  0.00    +0.000 N 
ATOM     35  C   UNL     1      -6.476  12.424  19.291  0.00  0.00    +0.000 C 
ATOM     36  C   UNL     1      -6.570  11.265  18.305  0.00  0.00    +0.000 C 
ATOM     37  C   UNL     1      -5.380  11.297  17.349  0.00  0.00    +0.000 C 
ATOM     38  H   UNL     1      -5.107  12.895  20.859  0.00  0.00    +0.000 HD
ENDBRANCH  27  28
ENDBRANCH  26  27
ENDBRANCH   5  26
TORSDOF 10
ENDMDL
MODEL 2
REMARK VINA RESULT:      -8.4      0.908      1.495
REMARK  Name = 
REMARK  10 active torsions:
REMARK  status: ('A' for Active; 'I' for Inactive)
REMARK    1  A    between atoms: C_2  and  O_3
REMARK    2  A    between atoms: C_2  and  C_4
REMARK    3  A    between atoms: C_4  and  C_5
REMARK    4  A    between atoms: C_5  and  C_6
REMARK    5  A    between atoms: C_5  and  C_28
REMARK    6  A    between atoms: C_6  and  C_7
REMARK    7  A    between atoms: C_7  and  C_8
REMARK    8  A    between atoms: C_12  and  C_14
REMARK    9  A    between atoms: C_14  and  C_15
REMARK   10  A    between atoms: C_15  and  C_16
REMARK                            x       y       z     vdW  Elec       q    Type
REMARK                         _______ _______ _______ _____ _____    ______ ____
ROOT
ATOM      1  C   UNL     1       2.678   7.680  18.391  0.00  0.00    +0.000 C 
ATOM      2  C   UNL     1       2.588   7.640  19.933  0.00  0.00    +0.000 C 
ATOM      3  C   UNL     1       1.226   8.118  20.449  0.00  0.00    +0.000 C 
ATOM      4  N   UNL     1       0.869   9.408  19.864  0.00  0.00    +0.000 N 
ATOM      5  C   UNL     1       0.746  10.519  20.692  0.00  0.00    +0.000 C 
ATOM      6  O   UNL     1       0.878  10.447  21.913  0.00  0.00    +0.000 OA
ATOM      7  C   UNL     1       0.883   9.462  18.401  0.00  0.00    +0.000 C 
ATOM      8  C   UNL     1       2.275   9.085  17.903  0.00  0.00    +0.000 C 
ENDROOT
BRANCH   1   9
ATOM      9  C   UNL     1       1.818   6.545  17.802  0.00  0.00    +0.000 C 
BRANCH   9  10
ATOM     10  C   UNL     1       1.838   5.253  18.615  0.00  0.00    +0.000 C 
BRANCH  10  11
ATOM     11  C   UNL     1       2.411   4.046  17.853  0.00  0.00    +0.000 C 
BRANCH  11  12
ATOM     12  C   UNL     1       3.931   4.110  17.752  0.00  0.00    +0.000 A 
ATOM     13  C   UNL     1       4.621   3.995  16.518  0.00  0.00    +0.000 A 
ATOM     14  C   UNL     1       5.972   4.336  16.411  0.00  0.00    +0.000 A 
ATOM     15  C   UNL     1       6.596   4.788  17.550  0.00  0.00    +0.000 A 
ATOM     16  C   UNL     1       5.964   4.793  18.773  0.00  0.00    +0.000 A 
ATOM     17  C   UNL     1       4.651   4.417  18.917  0.00  0.00    +0.000 A 
ATOM     18  O   UNL     1       6.745   5.323  19.754  0.00  0.00    +0.000 OA
ATOM     19  C   UNL     1       7.755   5.941  18.934  0.00  0.00    +0.000 C 
ATOM     20  O   UNL     1       7.834   5.352  17.619  0.00  0.00    +0.000 OA
ENDBRANCH  11  12
BRANCH  11  21
ATOM     21  C   UNL     1       1.939   2.655  18.351  0.00  0.00    +0.000 C 
BRANCH  21  23
ATOM     22  O   UNL     1       2.304   2.456  20.749  0.00  0.00    +0.000 OA
ATOM     23  C   UNL     1       1.547   2.620  19.802  0.00  0.00    +0.000 C 
BRANCH  23  24
ATOM     24  O   UNL     1       0.211   2.796  19.970  0.00  0.00    +0.000 OA
ATOM     25  H   UNL     1      -0.144   2.395  20.781  0.00  0.00    +0.000 HD
ENDBRANCH  23  24
ENDBRANCH  21  23
ENDBRANCH  11  21
ENDBRANCH  10  11
ENDBRANCH   9  10
ENDBRANCH   1   9
BRANCH   5  26
ATOM     26  C   UNL     1       0.418  11.831  20.008  0.00  0.00    +0.000 C 
BRANCH  26  27
ATOM     27  C   UNL     1      -0.425  12.737  20.898  0.00  0.00    +0.000 C 
BRANCH  27  28
ATOM     28  C   UNL     1      -1.908  12.615  20.649  0.00  0.00    +0.000 A 
ATOM     29  C   UNL     1      -2.787  12.838  21.706  0.00  0.00    +0.000 A 
ATOM     30  C   UNL     1      -4.148  12.733  21.476  0.00  0.00    +0.000 A 
ATOM     31  C   UNL     1      -4.606  12.421  20.195  0.00  0.00    +0.000 A 
ATOM     32  C   UNL     1      -3.665  12.201  19.188  0.00  0.00    +0.000 A 
ATOM     33  N   UNL     1      -2.339  12.292  19.405  0.00  0.00    +0.000 NA
ATOM     34  N   UNL     1      -4.058  11.931  17.886  0.00  0.00    +0.000 N 
ATOM     35  C   UNL     1      -5.368  11.340  17.711  0.00  0.00    +0.000 C 
ATOM     36  C   UNL     1      -6.397  12.196  18.441  0.00  0.00    +0.000 C 
ATOM     37  C   UNL     1      -6.076  12.238  19.933  0.00  0.00    +0.000 C 
ATOM     38  H   UNL     1      -3.277  11.568  17.352  0.00  0.00    +0.000 HD
ENDBRANCH  27  28
ENDBRANCH  26  27
ENDBRANCH   5  26
TORSDOF 10
ENDMDL
MODEL 3
REMARK VINA RESULT:      -8.4      2.778      4.696
REMARK  Name = 
REMARK  10 active torsions:
REMARK  status: ('A' for Active; 'I' for Inactive)
REMARK    1  A    between atoms: C_2  and  O_3
REMARK    2  A    between atoms: C_2  and  C_4
REMARK    3  A    between atoms: C_4  and  C_5
REMARK    4  A    between atoms: C_5  and  C_6
REMARK    5  A    between atoms: C_5  and  C_28
REMARK    6  A    between atoms: C_6  and  C_7
REMARK    7  A    between atoms: C_7  and  C_8
REMARK    8  A    between atoms: C_12  and  C_14
REMARK    9  A    between atoms: C_14  and  C_15
REMARK   10  A    between atoms: C_15  and  C_16
REMARK                            x       y       z     vdW  Elec       q    Type
REMARK                         _______ _______ _______ _____ _____    ______ ____
ROOT
ATOM      1  C   UNL     1       2.244   6.829  18.413  0.00  0.00    +0.000 C 
ATOM      2  C   UNL     1       1.539   8.014  17.715  0.00  0.00    +0.000 C 
ATOM      3  C   UNL     1       1.587   9.297  18.554  0.00  0.00    +0.000 C 
ATOM      4  N   UNL     1       1.126   9.047  19.917  0.00  0.00    +0.000 N 
ATOM      5  C   UNL     1      -0.031   9.673  20.369  0.00  0.00    +0.000 C 
ATOM      6  O   UNL     1      -0.658  10.475  19.676  0.00  0.00    +0.000 OA
ATOM      7  C   UNL     1       1.818   7.971  20.629  0.00  0.00    +0.000 C 
ATOM      8  C   UNL     1       1.673   6.675  19.835  0.00  0.00    +0.000 C 
ENDROOT
BRANCH   1   9
ATOM      9  C   UNL     1       3.768   7.051  18.374  0.00  0.00    +0.000 C 
BRANCH   9  10
ATOM     10  C   UNL     1       4.423   6.686  17.043  0.00  0.00    +0.000 C 
BRANCH  10  11
ATOM     11  C   UNL     1       5.213   5.367  17.078  0.00  0.00    +0.000 C 
BRANCH  11  12
ATOM     12  C   UNL     1       4.462   4.278  17.836  0.00  0.00    +0.000 A 
ATOM     13  C   UNL     1       4.856   3.832  19.124  0.00  0.00    +0.000 A 
ATOM     14  C   UNL     1       4.004   3.050  19.909  0.00  0.00    +0.000 A 
ATOM     15  C   UNL     1       2.774   2.738  19.379  0.00  0.00    +0.000 A 
ATOM     16  C   UNL     1       2.432   3.070  18.088  0.00  0.00    +0.000 A 
ATOM     17  C   UNL     1       3.269   3.796  17.275  0.00  0.00    +0.000 A 
ATOM     18  O   UNL     1       1.155   2.709  17.784  0.00  0.00    +0.000 OA
ATOM     19  C   UNL     1       0.668   2.448  19.114  0.00  0.00    +0.000 C 
ATOM     20  O   UNL     1       1.734   2.165  20.046  0.00  0.00    +0.000 OA
ENDBRANCH  11  12
BRANCH  11  21
ATOM     21  C   UNL     1       5.715   4.851  15.704  0.00  0.00    +0.000 C 
BRANCH  21  23
ATOM     22  O   UNL     1       8.008   4.355  16.353  0.00  0.00    +0.000 OA
ATOM     23  C   UNL     1       7.213   4.838  15.560  0.00  0.00    +0.000 C 
BRANCH  23  24
ATOM     24  O   UNL     1       7.616   5.440  14.412  0.00  0.00    +0.000 OA
ATOM     25  H   UNL     1       8.084   6.281  14.547  0.00  0.00    +0.000 HD
ENDBRANCH  23  24
ENDBRANCH  21  23
ENDBRANCH  11  21
ENDBRANCH  10  11
ENDBRANCH   9  10
ENDBRANCH   1   9
BRANCH   5  26
ATOM     26  C   UNL     1      -0.472   9.331  21.777  0.00  0.00    +0.000 C 
BRANCH  26  27
ATOM     27  C   UNL     1      -0.096  10.425  22.770  0.00  0.00    +0.000 C 
BRANCH  27  28
ATOM     28  C   UNL     1      -1.082  11.568  22.808  0.00  0.00    +0.000 A 
ATOM     29  C   UNL     1      -0.703  12.799  22.280  0.00  0.00    +0.000 A 
ATOM     30  C   UNL     1      -1.610  13.845  22.307  0.00  0.00    +0.000 A 
ATOM     31  C   UNL     1      -2.880  13.639  22.848  0.00  0.00    +0.000 A 
ATOM     32  C   UNL     1      -3.184  12.379  23.368  0.00  0.00    +0.000 A 
ATOM     33  N   UNL     1      -2.305  11.359  23.353  0.00  0.00    +0.000 NA
ATOM     34  N   UNL     1      -4.443  12.099  23.879  0.00  0.00    +0.000 N 
ATOM     35  C   UNL     1      -5.209  13.223  24.372  0.00  0.00    +0.000 C 
ATOM     36  C   UNL     1      -5.270  14.293  23.287  0.00  0.00    +0.000 C 
ATOM     37  C   UNL     1      -3.861  14.774  22.949  0.00  0.00    +0.000 C 
ATOM     38  H   UNL     1      -4.419  11.242  24.420  0.00  0.00    +0.000 HD
ENDBRANCH  27  28
ENDBRANCH  26  27
ENDBRANCH   5  26
TORSDOF 10
ENDMDL
MODEL 4
REMARK VINA RESULT:      -8.2      1.558      2.128
REMARK  Name = 
REMARK  10 active torsions:
REMARK  status: ('A' for Active; 'I' for Inactive)
REMARK    1  A    between atoms: C_2  and  O_3
REMARK    2  A    between atoms: C_2  and  C_4
REMARK    3  A    between atoms: C_4  and  C_5
REMARK    4  A    between atoms: C_5  and  C_6
REMARK    5  A    between atoms: C_5  and  C_28
REMARK    6  A    between atoms: C_6  and  C_7
REMARK    7  A    between atoms: C_7  and  C_8
REMARK    8  A    between atoms: C_12  and  C_14
REMARK    9  A    between atoms: C_14  and  C_15
REMARK   10  A    between atoms: C_15  and  C_16
REMARK                            x       y       z     vdW  Elec       q    Type
REMARK                         _______ _______ _______ _____ _____    ______ ____
ROOT
ATOM      1  C   UNL     1       3.149   6.689  18.540  0.00  0.00    +0.000 C 
ATOM      2  C   UNL     1       2.911   6.545  20.060  0.00  0.00    +0.000 C 
ATOM      3  C   UNL     1       1.541   7.084  20.490  0.00  0.00    +0.000 C 
ATOM      4  N   UNL     1       1.329   8.436  19.978  0.00  0.00    +0.000 N 
ATOM      5  C   UNL     1       1.203   9.491  20.876  0.00  0.00    +0.000 C 
ATOM      6  O   UNL     1       1.215   9.321  22.096  0.00  0.00    +0.000 OA
ATOM      7  C   UNL     1       1.484   8.593  18.531  0.00  0.00    +0.000 C 
ATOM      8  C   UNL     1       2.889   8.151  18.130  0.00  0.00    +0.000 C 
ENDROOT
BRANCH   1   9
ATOM      9  C   UNL     1       2.273   5.667  17.790  0.00  0.00    +0.000 C 
BRANCH   9  10
ATOM     10  C   UNL     1       2.327   4.252  18.362  0.00  0.00    +0.000 C 
BRANCH  10  11
ATOM     11  C   UNL     1       3.274   3.308  17.602  0.00  0.00    +0.000 C 
BRANCH  11  12
ATOM     12  C   UNL     1       4.569   4.007  17.202  0.00  0.00    +0.000 A 
ATOM     13  C   UNL     1       4.822   4.449  15.878  0.00  0.00    +0.000 A 
ATOM     14  C   UNL     1       5.873   5.326  15.598  0.00  0.00    +0.000 A 
ATOM     15  C   UNL     1       6.643   5.741  16.659  0.00  0.00    +0.000 A 
ATOM     16  C   UNL     1       6.475   5.227  17.925  0.00  0.00    +0.000 A 
ATOM     17  C   UNL     1       5.481   4.326  18.220  0.00  0.00    +0.000 A 
ATOM     18  O   UNL     1       7.307   5.808  18.832  0.00  0.00    +0.000 OA
ATOM     19  C   UNL     1       7.735   6.944  18.055  0.00  0.00    +0.000 C 
ATOM     20  O   UNL     1       7.576   6.732  16.636  0.00  0.00    +0.000 OA
ENDBRANCH  11  12
BRANCH  11  21
ATOM     21  C   UNL     1       3.560   1.948  18.291  0.00  0.00    +0.000 C 
BRANCH  21  23
ATOM     22  O   UNL     1       4.932   1.814  20.297  0.00  0.00    +0.000 OA
ATOM     23  C   UNL     1       3.858   2.053  19.762  0.00  0.00    +0.000 C 
BRANCH  23  24
ATOM     24  O   UNL     1       2.774   2.459  20.471  0.00  0.00    +0.000 OA
ATOM     25  H   UNL     1       1.971   1.939  20.302  0.00  0.00    +0.000 HD
ENDBRANCH  23  24
ENDBRANCH  21  23
ENDBRANCH  11  21
ENDBRANCH  10  11
ENDBRANCH   9  10
ENDBRANCH   1   9
BRANCH   5  26
ATOM     26  C   UNL     1       1.030  10.869  20.271  0.00  0.00    +0.000 C 
BRANCH  26  27
ATOM     27  C   UNL     1      -0.244  11.546  20.762  0.00  0.00    +0.000 C 
BRANCH  27  28
ATOM     28  C   UNL     1      -1.368  11.515  19.755  0.00  0.00    +0.000 A 
ATOM     29  C   UNL     1      -2.581  12.115  20.084  0.00  0.00    +0.000 A 
ATOM     30  C   UNL     1      -3.609  12.094  19.157  0.00  0.00    +0.000 A 
ATOM     31  C   UNL     1      -3.404  11.488  17.917  0.00  0.00    +0.000 A 
ATOM     32  C   UNL     1      -2.164  10.899  17.663  0.00  0.00    +0.000 A 
ATOM     33  N   UNL     1      -1.162  10.907  18.561  0.00  0.00    +0.000 NA
ATOM     34  N   UNL     1      -1.884  10.320  16.433  0.00  0.00    +0.000 N 
ATOM     35  C   UNL     1      -3.015   9.845  15.665  0.00  0.00    +0.000 C 
ATOM     36  C   UNL     1      -4.032  10.973  15.535  0.00  0.00    +0.000 C 
ATOM     37  C   UNL     1      -4.524  11.395  16.917  0.00  0.00    +0.000 C 
ATOM     38  H   UNL     1      -1.053   9.743  16.499  0.00  0.00    +0.000 HD
ENDBRANCH  27  28
ENDBRANCH  26  27
ENDBRANCH   5  26
TORSDOF 10
ENDMDL
MODEL 5
REMARK VINA RESULT:      -8.1      3.141     10.153
REMARK  Name = 
REMARK  10 active torsions:
REMARK  status: ('A' for Active; 'I' for Inactive)
REMARK    1  A    between atoms: C_2  and  O_3
REMARK    2  A    between atoms: C_2  and  C_4
REMARK    3  A    between atoms: C_4  and  C_5
REMARK    4  A    between atoms: C_5  and  C_6
REMARK    5  A    between atoms: C_5  and  C_28
REMARK    6  A    between atoms: C_6  and  C_7
REMARK    7  A    between atoms: C_7  and  C_8
REMARK    8  A    between atoms: C_12  and  C_14
REMARK    9  A    between atoms: C_14  and  C_15
REMARK   10  A    between atoms: C_15  and  C_16
REMARK                            x       y       z     vdW  Elec       q    Type
REMARK                         _______ _______ _______ _____ _____    ______ ____
ROOT
ATOM      1  C   UNL     1       2.793   7.291  19.135  0.00  0.00    +0.000 C 
ATOM      2  C   UNL     1       2.321   6.767  17.761  0.00  0.00    +0.000 C 
ATOM      3  C   UNL     1       1.248   5.680  17.888  0.00  0.00    +0.000 C 
ATOM      4  N   UNL     1       1.674   4.632  18.812  0.00  0.00    +0.000 N 
ATOM      5  C   UNL     1       1.874   3.342  18.332  0.00  0.00    +0.000 C 
ATOM      6  O   UNL     1       1.656   3.036  17.159  0.00  0.00    +0.000 OA
ATOM      7  C   UNL     1       2.067   5.090  20.146  0.00  0.00    +0.000 C 
ATOM      8  C   UNL     1       3.208   6.094  20.011  0.00  0.00    +0.000 C 
ENDROOT
BRANCH   1   9
ATOM      9  C   UNL     1       1.683   8.162  19.756  0.00  0.00    +0.000 C 
BRANCH   9  10
ATOM     10  C   UNL     1       1.246   9.338  18.886  0.00  0.00    +0.000 C 
BRANCH  10  11
ATOM     11  C   UNL     1       0.241  10.281  19.571  0.00  0.00    +0.000 C 
BRANCH  11  12
ATOM     12  C   UNL     1      -0.953  10.584  18.672  0.00  0.00    +0.000 A 
ATOM     13  C   UNL     1      -1.203   9.877  17.468  0.00  0.00    +0.000 A 
ATOM     14  C   UNL     1      -2.435   9.974  16.816  0.00  0.00    +0.000 A 
ATOM     15  C   UNL     1      -3.388  10.779  17.394  0.00  0.00    +0.000 A 
ATOM     16  C   UNL     1      -3.113  11.556  18.496  0.00  0.00    +0.000 A 
ATOM     17  C   UNL     1      -1.895  11.518  19.130  0.00  0.00    +0.000 A 
ATOM     18  O   UNL     1      -4.208  12.237  18.932  0.00  0.00    +0.000 OA
ATOM     19  C   UNL     1      -5.226  11.528  18.199  0.00  0.00    +0.000 C 
ATOM     20  O   UNL     1      -4.700  10.856  17.035  0.00  0.00    +0.000 OA
ENDBRANCH  11  12
BRANCH  11  21
ATOM     21  C   UNL     1      -0.219   9.853  20.989  0.00  0.00    +0.000 C 
BRANCH  21  23
ATOM     22  O   UNL     1       0.346  12.054  21.861  0.00  0.00    +0.000 OA
ATOM     23  C   UNL     1       0.005  10.894  22.051  0.00  0.00    +0.000 C 
BRANCH  23  24
ATOM     24  O   UNL     1      -0.220  10.404  23.296  0.00  0.00    +0.000 OA
ATOM     25  H   UNL     1       0.355   9.659  23.540  0.00  0.00    +0.000 HD
ENDBRANCH  23  24
ENDBRANCH  21  23
ENDBRANCH  11  21
ENDBRANCH  10  11
ENDBRANCH   9  10
ENDBRANCH   1   9
BRANCH   5  26
ATOM     26  C   UNL     1       2.359   2.320  19.339  0.00  0.00    +0.000 C 
BRANCH  26  27
ATOM     27  C   UNL     1       3.799   1.898  19.067  0.00  0.00    +0.000 C 
BRANCH  27  28
ATOM     28  C   UNL     1       4.645   2.996  18.471  0.00  0.00    +0.000 A 
ATOM     29  C   UNL     1       4.570   3.233  17.101  0.00  0.00    +0.000 A 
ATOM     30  C   UNL     1       5.341   4.246  16.555  0.00  0.00    +0.000 A 
ATOM     31  C   UNL     1       6.160   5.009  17.387  0.00  0.00    +0.000 A 
ATOM     32  C   UNL     1       6.191   4.706  18.750  0.00  0.00    +0.000 A 
ATOM     33  N   UNL     1       5.452   3.718  19.288  0.00  0.00    +0.000 NA
ATOM     34  N   UNL     1       6.952   5.457  19.634  0.00  0.00    +0.000 N 
ATOM     35  C   UNL     1       8.096   6.150  19.083  0.00  0.00    +0.000 C 
ATOM     36  C   UNL     1       7.641   6.982  17.889  0.00  0.00    +0.000 C 
ATOM     37  C   UNL     1       7.056   6.072  16.812  0.00  0.00    +0.000 C 
ATOM     38  H   UNL     1       7.048   4.967  20.517  0.00  0.00    +0.000 HD
ENDBRANCH  27  28
ENDBRANCH  26  27
ENDBRANCH   5  26
TORSDOF 10
ENDMDL
MODEL 6
REMARK VINA RESULT:      -8.0      1.040      1.182
REMARK  Name = 
REMARK  10 active torsions:
REMARK  status: ('A' for Active; 'I' for Inactive)
REMARK    1  A    between atoms: C_2  and  O_3
REMARK    2  A    between atoms: C_2  and  C_4
REMARK    3  A    between atoms: C_4  and  C_5
REMARK    4  A    between atoms: C_5  and  C_6
REMARK    5  A    between atoms: C_5  and  C_28
REMARK    6  A    between atoms: C_6  and  C_7
REMARK    7  A    between atoms: C_7  and  C_8
REMARK    8  A    between atoms: C_12  and  C_14
REMARK    9  A    between atoms: C_14  and  C_15
REMARK   10  A    between atoms: C_15  and  C_16
REMARK                            x       y       z     vdW  Elec       q    Type
REMARK                         _______ _______ _______ _____ _____    ______ ____
ROOT
ATOM      1  C   UNL     1       2.474   7.175  18.635  0.00  0.00    +0.000 C 
ATOM      2  C   UNL     1       2.496   7.594  20.122  0.00  0.00    +0.000 C 
ATOM      3  C   UNL     1       1.229   8.354  20.532  0.00  0.00    +0.000 C 
ATOM      4  N   UNL     1       0.956   9.451  19.607  0.00  0.00    +0.000 N 
ATOM      5  C   UNL     1       1.003  10.761  20.073  0.00  0.00    +0.000 C 
ATOM      6  O   UNL     1       1.219  11.031  21.254  0.00  0.00    +0.000 OA
ATOM      7  C   UNL     1       0.866   9.076  18.195  0.00  0.00    +0.000 C 
ATOM      8  C   UNL     1       2.174   8.414  17.771  0.00  0.00    +0.000 C 
ENDROOT
BRANCH   1   9
ATOM      9  C   UNL     1       1.467   6.024  18.446  0.00  0.00    +0.000 C 
BRANCH   9  10
ATOM     10  C   UNL     1       2.017   4.827  17.674  0.00  0.00    +0.000 C 
BRANCH  10  11
ATOM     11  C   UNL     1       3.233   4.161  18.341  0.00  0.00    +0.000 C 
BRANCH  11  12
ATOM     12  C   UNL     1       4.547   4.702  17.787  0.00  0.00    +0.000 A 
ATOM     13  C   UNL     1       4.710   5.068  16.426  0.00  0.00    +0.000 A 
ATOM     14  C   UNL     1       5.814   5.816  16.007  0.00  0.00    +0.000 A 
ATOM     15  C   UNL     1       6.725   6.181  16.969  0.00  0.00    +0.000 A 
ATOM     16  C   UNL     1       6.632   5.733  18.267  0.00  0.00    +0.000 A 
ATOM     17  C   UNL     1       5.585   4.955  18.697  0.00  0.00    +0.000 A 
ATOM     18  O   UNL     1       7.608   6.252  19.062  0.00  0.00    +0.000 OA
ATOM     19  C   UNL     1       8.071   7.307  18.198  0.00  0.00    +0.000 C 
ATOM     20  O   UNL     1       7.750   7.065  16.812  0.00  0.00    +0.000 OA
ENDBRANCH  11  12
BRANCH  11  21
ATOM     21  C   UNL     1       3.233   4.166  19.891  0.00  0.00    +0.000 C 
BRANCH  21  23
ATOM     22  O   UNL     1       2.137   2.348  21.083  0.00  0.00    +0.000 OA
ATOM     23  C   UNL     1       3.121   2.800  20.512  0.00  0.00    +0.000 C 
BRANCH  23  24
ATOM     24  O   UNL     1       4.265   2.084  20.371  0.00  0.00    +0.000 OA
ATOM     25  H   UNL     1       4.870   2.430  19.694  0.00  0.00    +0.000 HD
ENDBRANCH  23  24
ENDBRANCH  21  23
ENDBRANCH  11  21
ENDBRANCH  10  11
ENDBRANCH   9  10
ENDBRANCH   1   9
BRANCH   5  26
ATOM     26  C   UNL     1       0.754  11.846  19.046  0.00  0.00    +0.000 C 
BRANCH  26  27
ATOM     27  C   UNL     1      -0.367  12.785  19.478  0.00  0.00    +0.000 C 
BRANCH  27  28
ATOM     28  C   UNL     1      -1.733  12.350  19.006  0.00  0.00    +0.000 A 
ATOM     29  C   UNL     1      -1.849  11.735  17.762  0.00  0.00    +0.000 A 
ATOM     30  C   UNL     1      -3.101  11.328  17.333  0.00  0.00    +0.000 A 
ATOM     31  C   UNL     1      -4.209  11.530  18.157  0.00  0.00    +0.000 A 
ATOM     32  C   UNL     1      -4.016  12.163  19.387  0.00  0.00    +0.000 A 
ATOM     33  N   UNL     1      -2.804  12.570  19.808  0.00  0.00    +0.000 NA
ATOM     34  N   UNL     1      -5.070  12.353  20.268  0.00  0.00    +0.000 N 
ATOM     35  C   UNL     1      -6.397  12.410  19.694  0.00  0.00    +0.000 C 
ATOM     36  C   UNL     1      -6.610  11.178  18.822  0.00  0.00    +0.000 C 
ATOM     37  C   UNL     1      -5.589  11.157  17.688  0.00  0.00    +0.000 C 
ATOM     38  H   UNL     1      -4.812  13.023  20.984  0.00  0.00    +0.000 HD
ENDBRANCH  27  28
ENDBRANCH  26  27
ENDBRANCH   5  26
TORSDOF 10
ENDMDL
MODEL 7
REMARK VINA RESULT:      -8.0      2.671      4.874
REMARK  Name = 
REMARK  10 active torsions:
REMARK  status: ('A' for Active; 'I' for Inactive)
REMARK    1  A    between atoms: C_2  and  O_3
REMARK    2  A    between atoms: C_2  and  C_4
REMARK    3  A    between atoms: C_4  and  C_5
REMARK    4  A    between atoms: C_5  and  C_6
REMARK    5  A    between atoms: C_5  and  C_28
REMARK    6  A    between atoms: C_6  and  C_7
REMARK    7  A    between atoms: C_7  and  C_8
REMARK    8  A    between atoms: C_12  and  C_14
REMARK    9  A    between atoms: C_14  and  C_15
REMARK   10  A    between atoms: C_15  and  C_16
REMARK                            x       y       z     vdW  Elec       q    Type
REMARK                         _______ _______ _______ _____ _____    ______ ____
ROOT
ATOM      1  C   UNL     1       1.854   7.901  20.546  0.00  0.00    +0.000 C 
ATOM      2  C   UNL     1       1.214   8.713  21.695  0.00  0.00    +0.000 C 
ATOM      3  C   UNL     1      -0.182   9.233  21.333  0.00  0.00    +0.000 C 
ATOM      4  N   UNL     1      -0.163   9.929  20.049  0.00  0.00    +0.000 N 
ATOM      5  C   UNL     1      -0.453  11.289  20.008  0.00  0.00    +0.000 C 
ATOM      6  O   UNL     1      -0.775  11.923  21.013  0.00  0.00    +0.000 OA
ATOM      7  C   UNL     1       0.380   9.164  18.925  0.00  0.00    +0.000 C 
ATOM      8  C   UNL     1       1.808   8.740  19.255  0.00  0.00    +0.000 C 
ENDROOT
BRANCH   1   9
ATOM      9  C   UNL     1       1.144   6.539  20.429  0.00  0.00    +0.000 C 
BRANCH   9  10
ATOM     10  C   UNL     1       2.071   5.373  20.095  0.00  0.00    +0.000 C 
BRANCH  10  11
ATOM     11  C   UNL     1       2.318   5.185  18.588  0.00  0.00    +0.000 C 
BRANCH  11  12
ATOM     12  C   UNL     1       3.794   4.961  18.280  0.00  0.00    +0.000 A 
ATOM     13  C   UNL     1       4.285   4.801  16.958  0.00  0.00    +0.000 A 
ATOM     14  C   UNL     1       5.652   4.881  16.681  0.00  0.00    +0.000 A 
ATOM     15  C   UNL     1       6.493   5.124  17.741  0.00  0.00    +0.000 A 
ATOM     16  C   UNL     1       6.036   5.166  19.038  0.00  0.00    +0.000 A 
ATOM     17  C   UNL     1       4.703   5.042  19.347  0.00  0.00    +0.000 A 
ATOM     18  O   UNL     1       7.026   5.467  19.923  0.00  0.00    +0.000 OA
ATOM     19  C   UNL     1       8.027   5.932  18.998  0.00  0.00    +0.000 C 
ATOM     20  O   UNL     1       7.818   5.431  17.661  0.00  0.00    +0.000 OA
ENDBRANCH  11  12
BRANCH  11  21
ATOM     21  C   UNL     1       1.432   4.120  17.891  0.00  0.00    +0.000 C 
BRANCH  21  23
ATOM     22  O   UNL     1       2.445   2.131  18.861  0.00  0.00    +0.000 OA
ATOM     23  C   UNL     1       1.448   2.772  18.558  0.00  0.00    +0.000 C 
BRANCH  23  24
ATOM     24  O   UNL     1       0.194   2.315  18.806  0.00  0.00    +0.000 OA
ATOM     25  H   UNL     1      -0.511   2.844  18.397  0.00  0.00    +0.000 HD
ENDBRANCH  23  24
ENDBRANCH  21  23
ENDBRANCH  11  21
ENDBRANCH  10  11
ENDBRANCH   9  10
ENDBRANCH   1   9
BRANCH   5  26
ATOM     26  C   UNL     1      -0.369  11.952  18.648  0.00  0.00    +0.000 C 
BRANCH  26  27
ATOM     27  C   UNL     1      -0.409  13.472  18.757  0.00  0.00    +0.000 C 
BRANCH  27  28
ATOM     28  C   UNL     1       0.928  14.087  19.091  0.00  0.00    +0.000 A 
ATOM     29  C   UNL     1       1.020  14.938  20.189  0.00  0.00    +0.000 A 
ATOM     30  C   UNL     1       2.249  15.496  20.501  0.00  0.00    +0.000 A 
ATOM     31  C   UNL     1       3.362  15.185  19.719  0.00  0.00    +0.000 A 
ATOM     32  C   UNL     1       3.190  14.332  18.627  0.00  0.00    +0.000 A 
ATOM     33  N   UNL     1       1.998  13.792  18.312  0.00  0.00    +0.000 NA
ATOM     34  N   UNL     1       4.266  13.951  17.839  0.00  0.00    +0.000 N 
ATOM     35  C   UNL     1       5.400  14.849  17.807  0.00  0.00    +0.000 C 
ATOM     36  C   UNL     1       5.832  15.149  19.238  0.00  0.00    +0.000 C 
ATOM     37  C   UNL     1       4.694  15.827  19.996  0.00  0.00    +0.000 C 
ATOM     38  H   UNL     1       3.937  13.538  16.973  0.00  0.00    +0.000 HD
ENDBRANCH  27  28
ENDBRANCH  26  27
ENDBRANCH   5  26
TORSDOF 10
ENDMDL
MODEL 8
REMARK VINA RESULT:      -7.9      2.610      4.701
REMARK  Name = 
REMARK  10 active torsions:
REMARK  status: ('A' for Active; 'I' for Inactive)
REMARK    1  A    between atoms: C_2  and  O_3
REMARK    2  A    between atoms: C_2  and  C_4
REMARK    3  A    between atoms: C_4  and  C_5
REMARK    4  A    between atoms: C_5  and  C_6
REMARK    5  A    between atoms: C_5  and  C_28
REMARK    6  A    between atoms: C_6  and  C_7
REMARK    7  A    between atoms: C_7  and  C_8
REMARK    8  A    between atoms: C_12  and  C_14
REMARK    9  A    between atoms: C_14  and  C_15
REMARK   10  A    between atoms: C_15  and  C_16
REMARK                            x       y       z     vdW  Elec       q    Type
REMARK                         _______ _______ _______ _____ _____    ______ ____
ROOT
ATOM      1  C   UNL     1       1.711   8.880  21.107  0.00  0.00    +0.000 C 
ATOM      2  C   UNL     1       1.291   9.245  22.549  0.00  0.00    +0.000 C 
ATOM      3  C   UNL     1      -0.228   9.392  22.693  0.00  0.00    +0.000 C 
ATOM      4  N   UNL     1      -0.765  10.287  21.671  0.00  0.00    +0.000 N 
ATOM      5  C   UNL     1      -1.353  11.486  22.058  0.00  0.00    +0.000 C 
ATOM      6  O   UNL     1      -1.484  11.803  23.240  0.00  0.00    +0.000 OA
ATOM      7  C   UNL     1      -0.437   9.932  20.288  0.00  0.00    +0.000 C 
ATOM      8  C   UNL     1       1.080   9.891  20.131  0.00  0.00    +0.000 C 
ENDROOT
BRANCH   1   9
ATOM      9  C   UNL     1       1.328   7.415  20.821  0.00  0.00    +0.000 C 
BRANCH   9  10
ATOM     10  C   UNL     1       2.113   6.771  19.681  0.00  0.00    +0.000 C 
BRANCH  10  11
ATOM     11  C   UNL     1       2.155   5.234  19.743  0.00  0.00    +0.000 C 
BRANCH  11  12
ATOM     12  C   UNL     1       3.290   4.665  18.899  0.00  0.00    +0.000 A 
ATOM     13  C   UNL     1       3.109   4.251  17.554  0.00  0.00    +0.000 A 
ATOM     14  C   UNL     1       4.204   4.003  16.722  0.00  0.00    +0.000 A 
ATOM     15  C   UNL     1       5.456   4.182  17.263  0.00  0.00    +0.000 A 
ATOM     16  C   UNL     1       5.638   4.470  18.596  0.00  0.00    +0.000 A 
ATOM     17  C   UNL     1       4.580   4.671  19.450  0.00  0.00    +0.000 A 
ATOM     18  O   UNL     1       6.950   4.652  18.910  0.00  0.00    +0.000 OA
ATOM     19  C   UNL     1       7.487   4.782  17.580  0.00  0.00    +0.000 C 
ATOM     20  O   UNL     1       6.634   4.187  16.579  0.00  0.00    +0.000 OA
ENDBRANCH  11  12
BRANCH  11  21
ATOM     21  C   UNL     1       2.152   4.621  21.168  0.00  0.00    +0.000 C 
BRANCH  21  23
ATOM     22  O   UNL     1       1.809   2.367  22.018  0.00  0.00    +0.000 OA
ATOM     23  C   UNL     1       1.494   3.272  21.258  0.00  0.00    +0.000 C 
BRANCH  23  24
ATOM     24  O   UNL     1       0.468   3.149  20.377  0.00  0.00    +0.000 OA
ATOM     25  H   UNL     1       0.005   2.296  20.424  0.00  0.00    +0.000 HD
ENDBRANCH  23  24
ENDBRANCH  21  23
ENDBRANCH  11  21
ENDBRANCH  10  11
ENDBRANCH   9  10
ENDBRANCH   1   9
BRANCH   5  26
ATOM     26  C   UNL     1      -1.846  12.382  20.940  0.00  0.00    +0.000 C 
BRANCH  26  27
ATOM     27  C   UNL     1      -1.544  13.851  21.218  0.00  0.00    +0.000 C 
BRANCH  27  28
ATOM     28  C   UNL     1      -0.102  14.225  20.976  0.00  0.00    +0.000 A 
ATOM     29  C   UNL     1       0.661  14.684  22.046  0.00  0.00    +0.000 A 
ATOM     30  C   UNL     1       1.987  15.020  21.825  0.00  0.00    +0.000 A 
ATOM     31  C   UNL     1       2.527  14.878  20.547  0.00  0.00    +0.000 A 
ATOM     32  C   UNL     1       1.697  14.420  19.521  0.00  0.00    +0.000 A 
ATOM     33  N   UNL     1       0.406  14.100  19.725  0.00  0.00    +0.000 NA
ATOM     34  N   UNL     1       2.188  14.218  18.240  0.00  0.00    +0.000 N 
ATOM     35  C   UNL     1       3.351  14.989  17.858  0.00  0.00    +0.000 C 
ATOM     36  C   UNL     1       4.437  14.797  18.910  0.00  0.00    +0.000 C 
ATOM     37  C   UNL     1       3.945  15.296  20.266  0.00  0.00    +0.000 C 
ATOM     38  H   UNL     1       1.421  14.121  17.583  0.00  0.00    +0.000 HD
ENDBRANCH  27  28
ENDBRANCH  26  27
ENDBRANCH   5  26
TORSDOF 10
ENDMDL
MODEL 9
REMARK VINA RESULT:      -7.9      2.523      3.601
REMARK  Name = 
REMARK  10 active torsions:
REMARK  status: ('A' for Active; 'I' for Inactive)
REMARK    1  A    between atoms: C_2  and  O_3
REMARK    2  A    between atoms: C_2  and  C_4
REMARK    3  A    between atoms: C_4  and  C_5
REMARK    4  A    between atoms: C_5  and  C_6
REMARK    5  A    between atoms: C_5  and  C_28
REMARK    6  A    between atoms: C_6  and  C_7
REMARK    7  A    between atoms: C_7  and  C_8
REMARK    8  A    between atoms: C_12  and  C_14
REMARK    9  A    between atoms: C_14  and  C_15
REMARK   10  A    between atoms: C_15  and  C_16
REMARK                            x       y       z     vdW  Elec       q    Type
REMARK                         _______ _______ _______ _____ _____    ______ ____
ROOT
ATOM      1  C   UNL     1       0.233   8.483  20.696  0.00  0.00    +0.000 C 
ATOM      2  C   UNL     1       0.283   9.683  19.724  0.00  0.00    +0.000 C 
ATOM      3  C   UNL     1       0.870  10.939  20.379  0.00  0.00    +0.000 C 
ATOM      4  N   UNL     1       0.204  11.226  21.647  0.00  0.00    +0.000 N 
ATOM      5  C   UNL     1      -0.532  12.399  21.778  0.00  0.00    +0.000 C 
ATOM      6  O   UNL     1      -0.605  13.233  20.876  0.00  0.00    +0.000 OA
ATOM      7  C   UNL     1       0.195  10.129  22.616  0.00  0.00    +0.000 C 
ATOM      8  C   UNL     1      -0.486   8.916  21.988  0.00  0.00    +0.000 C 
ENDROOT
BRANCH   1   9
ATOM      9  C   UNL     1       1.662   7.954  20.926  0.00  0.00    +0.000 C 
BRANCH   9  10
ATOM     10  C   UNL     1       2.286   7.278  19.707  0.00  0.00    +0.000 C 
BRANCH  10  11
ATOM     11  C   UNL     1       2.142   5.746  19.703  0.00  0.00    +0.000 C 
BRANCH  11  12
ATOM     12  C   UNL     1       3.293   5.072  18.963  0.00  0.00    +0.000 A 
ATOM     13  C   UNL     1       3.158   4.551  17.650  0.00  0.00    +0.000 A 
ATOM     14  C   UNL     1       4.279   4.201  16.894  0.00  0.00    +0.000 A 
ATOM     15  C   UNL     1       5.511   4.386  17.476  0.00  0.00    +0.000 A 
ATOM     16  C   UNL     1       5.644   4.781  18.787  0.00  0.00    +0.000 A 
ATOM     17  C   UNL     1       4.558   5.086  19.572  0.00  0.00    +0.000 A 
ATOM     18  O   UNL     1       6.946   4.948  19.145  0.00  0.00    +0.000 OA
ATOM     19  C   UNL     1       7.546   4.949  17.836  0.00  0.00    +0.000 C 
ATOM     20  O   UNL     1       6.717   4.297  16.850  0.00  0.00    +0.000 OA
ENDBRANCH  11  12
BRANCH  11  21
ATOM     21  C   UNL     1       1.906   5.092  21.089  0.00  0.00    +0.000 C 
BRANCH  21  23
ATOM     22  O   UNL     1       0.811   3.090  20.242  0.00  0.00    +0.000 OA
ATOM     23  C   UNL     1       1.577   3.625  21.031  0.00  0.00    +0.000 C 
BRANCH  23  24
ATOM     24  O   UNL     1       2.244   2.919  21.980  0.00  0.00    +0.000 OA
ATOM     25  H   UNL     1       1.667   2.487  22.632  0.00  0.00    +0.000 HD
ENDBRANCH  23  24
ENDBRANCH  21  23
ENDBRANCH  11  21
ENDBRANCH  10  11
ENDBRANCH   9  10
ENDBRANCH   1   9
BRANCH   5  26
ATOM     26  C   UNL     1      -1.231  12.606  23.106  0.00  0.00    +0.000 C 
BRANCH  26  27
ATOM     27  C   UNL     1      -2.576  11.891  23.154  0.00  0.00    +0.000 C 
BRANCH  27  28
ATOM     28  C   UNL     1      -3.751  12.800  22.889  0.00  0.00    +0.000 A 
ATOM     29  C   UNL     1      -4.705  12.974  23.887  0.00  0.00    +0.000 A 
ATOM     30  C   UNL     1      -5.779  13.815  23.647  0.00  0.00    +0.000 A 
ATOM     31  C   UNL     1      -5.873  14.475  22.421  0.00  0.00    +0.000 A 
ATOM     32  C   UNL     1      -4.883  14.243  21.464  0.00  0.00    +0.000 A 
ATOM     33  N   UNL     1      -3.840  13.421  21.686  0.00  0.00    +0.000 NA
ATOM     34  N   UNL     1      -4.897  14.903  20.244  0.00  0.00    +0.000 N 
ATOM     35  C   UNL     1      -6.183  15.366  19.770  0.00  0.00    +0.000 C 
ATOM     36  C   UNL     1      -6.843  16.198  20.864  0.00  0.00    +0.000 C 
ATOM     37  C   UNL     1      -7.061  15.342  22.109  0.00  0.00    +0.000 C 
ATOM     38  H   UNL     1      -4.264  14.451  19.594  0.00  0.00    +0.000 HD
ENDBRANCH  27  28
ENDBRANCH  26  27
ENDBRANCH   5  26
TORSDOF 10
ENDMDL
