MODEL 1
REMARK VINA RESULT:      -9.3      0.000      0.000
REMARK  Name = 
REMARK  7 active torsions:
REMARK  status: ('A' for Active; 'I' for Inactive)
REMARK    1  A    between atoms: C_1  and  C_2
REMARK    2  A    between atoms: C_7  and  C_8
REMARK    3  A    between atoms: N_13  and  C_14
REMARK    4  A    between atoms: C_17  and  N_18
REMARK    5  A    between atoms: C_21  and  N_22
REMARK    6  A    between atoms: N_22  and  C_23
REMARK    7  A    between atoms: C_23  and  C_24
REMARK                            x       y       z     vdW  Elec       q    Type
REMARK                         _______ _______ _______ _____ _____    ______ ____
ROOT
ATOM      1  C   UNL     1       3.666   6.673  17.796  0.00  0.00    +0.000 A 
ATOM      2  C   UNL     1       4.621   7.219  16.933  0.00  0.00    +0.000 A 
ATOM      3  C   UNL     1       5.592   6.422  16.320  0.00  0.00    +0.000 A 
ATOM      4  C   UNL     1       5.621   5.037  16.549  0.00  0.00    +0.000 A 
ATOM      5  C   UNL     1       4.654   4.423  17.373  0.00  0.00    +0.000 A 
ATOM      6  C   UNL     1       3.715   5.279  17.993  0.00  0.00    +0.000 A 
ENDROOT
BRANCH   1  12
ATOM      7  C   UNL     1      -0.207   9.692  20.485  0.00  0.00    +0.000 C 
ATOM      8  O   UNL     1      -0.498   9.439  21.654  0.00  0.00    +0.000 OA
ATOM      9  N   UNL     1       0.952   9.192  19.892  0.00  0.00    +0.000 N 
ATOM     10  C   UNL     1       1.746   8.199  20.623  0.00  0.00    +0.000 C 
ATOM     11  C   UNL     1       2.113   7.012  19.713  0.00  0.00    +0.000 C 
ATOM     12  N   UNL     1       2.791   7.500  18.489  0.00  0.00    +0.000 N 
ATOM     13  C   UNL     1       2.013   8.514  17.738  0.00  0.00    +0.000 C 
ATOM     14  C   UNL     1       1.624   9.683  18.676  0.00  0.00    +0.000 C 
BRANCH   7  21
ATOM     15  C   UNL     1      -0.987  12.526  21.234  0.00  0.00    +0.000 C 
ATOM     16  C   UNL     1      -1.520  11.824  20.014  0.00  0.00    +0.000 A 
ATOM     17  C   UNL     1      -2.456  12.503  19.215  0.00  0.00    +0.000 A 
ATOM     18  C   UNL     1      -3.032  11.896  18.098  0.00  0.00    +0.000 A 
ATOM     19  C   UNL     1      -2.724  10.575  17.793  0.00  0.00    +0.000 A 
ATOM     20  C   UNL     1      -1.832   9.873  18.601  0.00  0.00    +0.000 A 
ATOM     21  C   UNL     1      -1.172  10.497  19.675  0.00  0.00    +0.000 A 
ENDBRANCH   7  21
ENDBRANCH   1  12
BRANCH   4  22
ATOM     22  N   UNL     1       6.682   4.264  15.880  0.00  0.00    +0.000 N 
ATOM     23  O   UNL     1       7.851   4.435  16.259  0.00  0.00    +0.000 OA
ATOM     24  O   UNL     1       6.365   3.497  14.955  0.00  0.00    +0.000 OA
ENDBRANCH   4  22
BRANCH   5  25
ATOM     25  N   UNL     1       4.669   3.059  17.700  0.00  0.00    +0.000 N 
ATOM     26  H   UNL     1       5.407   2.537  17.217  0.00  0.00    +0.000 HD
BRANCH  25  27
ATOM     27  C   UNL     1       3.429   2.289  17.800  0.00  0.00    +0.000 C 
BRANCH  27  28
ATOM     28  C   UNL     1       2.810   2.477  19.157  0.00  0.00    +0.000 A 
ATOM     29  C   UNL     1       1.457   2.795  19.307  0.00  0.00    +0.000 A 
ATOM     30  C   UNL     1       0.928   2.990  20.582  0.00  0.00    +0.000 A 
ATOM     31  C   UNL     1       1.774   2.860  21.669  0.00  0.00    +0.000 A 
ATOM     32  N   UNL     1       3.085   2.556  21.568  0.00  0.00    +0.000 NA
ATOM     33  C   UNL     1       3.571   2.370  20.315  0.00  0.00    +0.000 A 
ENDBRANCH  27  28
ENDBRANCH  25  27
ENDBRANCH   5  25
TORSDOF 6
ENDMDL
MODEL 2
REMARK VINA RESULT:      -9.0      2.378      9.321
REMARK  Name = 
REMARK  7 active torsions:
REMARK  status: ('A' for Active; 'I' for Inactive)
REMARK    1  A    between atoms: C_1  and  C_2
REMARK    2  A    between atoms: C_7  and  C_8
REMARK    3  A    between atoms: N_13  and  C_14
REMARK    4  A    between atoms: C_17  and  N_18
REMARK    5  A    between atoms: C_21  and  N_22
REMARK    6  A    between atoms: N_22  and  C_23
REMARK    7  A    between atoms: C_23  and  C_24
REMARK                            x       y       z     vdW  Elec       q    Type
REMARK                         _______ _______ _______ _____ _____    ______ ____
ROOT
ATOM      1  C   UNL     1       1.070   8.315  20.543  0.00  0.00    +0.000 A 
ATOM      2  C   UNL     1       1.122   8.529  21.923  0.00  0.00    +0.000 A 
ATOM      3  C   UNL     1       0.609   9.694  22.501  0.00  0.00    +0.000 A 
ATOM      4  C   UNL     1       0.011  10.679  21.699  0.00  0.00    +0.000 A 
ATOM      5  C   UNL     1      -0.112  10.498  20.305  0.00  0.00    +0.000 A 
ATOM      6  C   UNL     1       0.451   9.316  19.770  0.00  0.00    +0.000 A 
ENDROOT
BRANCH   1  12
ATOM      7  C   UNL     1       3.971   3.958  18.555  0.00  0.00    +0.000 C 
ATOM      8  O   UNL     1       3.965   2.879  19.147  0.00  0.00    +0.000 OA
ATOM      9  N   UNL     1       3.028   4.950  18.826  0.00  0.00    +0.000 N 
ATOM     10  C   UNL     1       2.124   4.770  19.966  0.00  0.00    +0.000 C 
ATOM     11  C   UNL     1       2.061   6.047  20.824  0.00  0.00    +0.000 C 
ATOM     12  N   UNL     1       1.696   7.209  19.980  0.00  0.00    +0.000 N 
ATOM     13  C   UNL     1       2.589   7.406  18.813  0.00  0.00    +0.000 C 
ATOM     14  C   UNL     1       2.666   6.102  17.982  0.00  0.00    +0.000 C 
BRANCH   7  21
ATOM     15  C   UNL     1       6.524   5.403  19.329  0.00  0.00    +0.000 C 
ATOM     16  C   UNL     1       6.267   4.877  17.942  0.00  0.00    +0.000 A 
ATOM     17  C   UNL     1       7.240   5.111  16.954  0.00  0.00    +0.000 A 
ATOM     18  C   UNL     1       7.047   4.698  15.635  0.00  0.00    +0.000 A 
ATOM     19  C   UNL     1       5.850   4.094  15.267  0.00  0.00    +0.000 A 
ATOM     20  C   UNL     1       4.857   3.896  16.223  0.00  0.00    +0.000 A 
ATOM     21  C   UNL     1       5.070   4.221  17.575  0.00  0.00    +0.000 A 
ENDBRANCH   7  21
ENDBRANCH   1  12
BRANCH   4  22
ATOM     22  N   UNL     1      -0.493  11.887  22.378  0.00  0.00    +0.000 N 
ATOM     23  O   UNL     1      -1.476  11.764  23.124  0.00  0.00    +0.000 OA
ATOM     24  O   UNL     1       0.070  12.972  22.156  0.00  0.00    +0.000 OA
ENDBRANCH   4  22
BRANCH   5  25
ATOM     25  N   UNL     1      -0.632  11.471  19.441  0.00  0.00    +0.000 N 
ATOM     26  H   UNL     1      -0.061  12.320  19.398  0.00  0.00    +0.000 HD
BRANCH  25  27
ATOM     27  C   UNL     1      -2.064  11.773  19.411  0.00  0.00    +0.000 C 
BRANCH  27  28
ATOM     28  C   UNL     1      -2.662  11.324  18.106  0.00  0.00    +0.000 A 
ATOM     29  C   UNL     1      -1.947  10.524  17.210  0.00  0.00    +0.000 A 
ATOM     30  C   UNL     1      -2.526  10.154  15.997  0.00  0.00    +0.000 A 
ATOM     31  C   UNL     1      -3.807  10.597  15.722  0.00  0.00    +0.000 A 
ATOM     32  N   UNL     1      -4.532  11.370  16.558  0.00  0.00    +0.000 NA
ATOM     33  C   UNL     1      -3.942  11.714  17.731  0.00  0.00    +0.000 A 
ENDBRANCH  27  28
ENDBRANCH  25  27
ENDBRANCH   5  25
TORSDOF 6
ENDMDL
MODEL 3
REMARK VINA RESULT:      -8.9      1.015      1.318
REMARK  Name = 
REMARK  7 active torsions:
REMARK  status: ('A' for Active; 'I' for Inactive)
REMARK    1  A    between atoms: C_1  and  C_2
REMARK    2  A    between atoms: C_7  and  C_8
REMARK    3  A    between atoms: N_13  and  C_14
REMARK    4  A    between atoms: C_17  and  N_18
REMARK    5  A    between atoms: C_21  and  N_22
REMARK    6  A    between atoms: N_22  and  C_23
REMARK    7  A    between atoms: C_23  and  C_24
REMARK                            x       y       z     vdW  Elec       q    Type
REMARK                         _______ _______ _______ _____ _____    ______ ____
ROOT
ATOM      1  C   UNL     1       3.677   6.793  18.076  0.00  0.00    +0.000 A 
ATOM      2  C   UNL     1       4.362   7.108  16.899  0.00  0.00    +0.000 A 
ATOM      3  C   UNL     1       5.400   6.303  16.420  0.00  0.00    +0.000 A 
ATOM      4  C   UNL     1       5.772   5.140  17.113  0.00  0.00    +0.000 A 
ATOM      5  C   UNL     1       5.086   4.746  18.282  0.00  0.00    +0.000 A 
ATOM      6  C   UNL     1       4.066   5.613  18.738  0.00  0.00    +0.000 A 
ENDROOT
BRANCH   1  12
ATOM      7  C   UNL     1      -0.440   9.981  20.136  0.00  0.00    +0.000 C 
ATOM      8  O   UNL     1      -0.721   9.943  21.334  0.00  0.00    +0.000 OA
ATOM      9  N   UNL     1       0.760   9.463  19.647  0.00  0.00    +0.000 N 
ATOM     10  C   UNL     1       1.620   8.699  20.555  0.00  0.00    +0.000 C 
ATOM     11  C   UNL     1       2.085   7.387  19.897  0.00  0.00    +0.000 C 
ATOM     12  N   UNL     1       2.735   7.673  18.597  0.00  0.00    +0.000 N 
ATOM     13  C   UNL     1       1.889   8.454  17.664  0.00  0.00    +0.000 C 
ATOM     14  C   UNL     1       1.404   9.753  18.353  0.00  0.00    +0.000 C 
BRANCH   7  21
ATOM     15  C   UNL     1      -1.749  12.685  20.554  0.00  0.00    +0.000 C 
ATOM     16  C   UNL     1      -2.051  11.801  19.374  0.00  0.00    +0.000 A 
ATOM     17  C   UNL     1      -3.019  12.236  18.451  0.00  0.00    +0.000 A 
ATOM     18  C   UNL     1      -3.387  11.446  17.361  0.00  0.00    +0.000 A 
ATOM     19  C   UNL     1      -2.834  10.179  17.206  0.00  0.00    +0.000 A 
ATOM     20  C   UNL     1      -1.908   9.715  18.136  0.00  0.00    +0.000 A 
ATOM     21  C   UNL     1      -1.456  10.533  19.188  0.00  0.00    +0.000 A 
ENDBRANCH   7  21
ENDBRANCH   1  12
BRANCH   4  22
ATOM     22  N   UNL     1       6.884   4.349  16.556  0.00  0.00    +0.000 N 
ATOM     23  O   UNL     1       6.679   3.718  15.509  0.00  0.00    +0.000 OA
ATOM     24  O   UNL     1       7.966   4.332  17.169  0.00  0.00    +0.000 OA
ENDBRANCH   4  22
BRANCH   5  25
ATOM     25  N   UNL     1       5.452   3.638  19.058  0.00  0.00    +0.000 N 
ATOM     26  H   UNL     1       6.466   3.512  19.129  0.00  0.00    +0.000 HD
BRANCH  25  27
ATOM     27  C   UNL     1       4.750   2.360  18.936  0.00  0.00    +0.000 C 
BRANCH  27  28
ATOM     28  C   UNL     1       3.283   2.546  19.212  0.00  0.00    +0.000 A 
ATOM     29  C   UNL     1       2.803   2.762  20.507  0.00  0.00    +0.000 A 
ATOM     30  C   UNL     1       1.433   2.900  20.725  0.00  0.00    +0.000 A 
ATOM     31  C   UNL     1       0.586   2.819  19.634  0.00  0.00    +0.000 A 
ATOM     32  N   UNL     1       1.007   2.612  18.368  0.00  0.00    +0.000 NA
ATOM     33  C   UNL     1       2.346   2.482  18.188  0.00  0.00    +0.000 A 
ENDBRANCH  27  28
ENDBRANCH  25  27
ENDBRANCH   5  25
TORSDOF 6
ENDMDL
MODEL 4
REMARK VINA RESULT:      -8.9      2.340      9.159
REMARK  Name = 
REMARK  7 active torsions:
REMARK  status: ('A' for Active; 'I' for Inactive)
REMARK    1  A    between atoms: C_1  and  C_2
REMARK    2  A    between atoms: C_7  and  C_8
REMARK    3  A    between atoms: N_13  and  C_14
REMARK    4  A    between atoms: C_17  and  N_18
REMARK    5  A    between atoms: C_21  and  N_22
REMARK    6  A    between atoms: N_22  and  C_23
REMARK    7  A    between atoms: C_23  and  C_24
REMARK                            x       y       z     vdW  Elec       q    Type
REMARK                         _______ _______ _______ _____ _____    ______ ____
ROOT
ATOM      1  C   UNL     1       1.006   8.170  20.590  0.00  0.00    +0.000 A 
ATOM      2  C   UNL     1       0.433   8.077  21.861  0.00  0.00    +0.000 A 
ATOM      3  C   UNL     1      -0.137   9.188  22.488  0.00  0.00    +0.000 A 
ATOM      4  C   UNL     1      -0.159  10.434  21.841  0.00  0.00    +0.000 A 
ATOM      5  C   UNL     1       0.363  10.579  20.538  0.00  0.00    +0.000 A 
ATOM      6  C   UNL     1       0.956   9.431  19.963  0.00  0.00    +0.000 A 
ENDROOT
BRANCH   1  12
ATOM      7  C   UNL     1       4.087   3.920  18.641  0.00  0.00    +0.000 C 
ATOM      8  O   UNL     1       4.156   2.860  19.264  0.00  0.00    +0.000 OA
ATOM      9  N   UNL     1       3.099   4.867  18.912  0.00  0.00    +0.000 N 
ATOM     10  C   UNL     1       2.238   4.672  20.082  0.00  0.00    +0.000 C 
ATOM     11  C   UNL     1       2.128   5.969  20.905  0.00  0.00    +0.000 C 
ATOM     12  N   UNL     1       1.677   7.084  20.040  0.00  0.00    +0.000 N 
ATOM     13  C   UNL     1       2.526   7.294  18.843  0.00  0.00    +0.000 C 
ATOM     14  C   UNL     1       2.651   5.972  18.046  0.00  0.00    +0.000 C 
BRANCH   7  21
ATOM     15  C   UNL     1       6.623   5.439  19.323  0.00  0.00    +0.000 C 
ATOM     16  C   UNL     1       6.332   4.904  17.946  0.00  0.00    +0.000 A 
ATOM     17  C   UNL     1       7.262   5.163  16.924  0.00  0.00    +0.000 A 
ATOM     18  C   UNL     1       7.034   4.743  15.613  0.00  0.00    +0.000 A 
ATOM     19  C   UNL     1       5.843   4.104  15.289  0.00  0.00    +0.000 A 
ATOM     20  C   UNL     1       4.891   3.879  16.280  0.00  0.00    +0.000 A 
ATOM     21  C   UNL     1       5.143   4.213  17.623  0.00  0.00    +0.000 A 
ENDBRANCH   7  21
ENDBRANCH   1  12
BRANCH   4  22
ATOM     22  N   UNL     1      -0.764  11.563  22.571  0.00  0.00    +0.000 N 
ATOM     23  O   UNL     1      -0.224  12.675  22.468  0.00  0.00    +0.000 OA
ATOM     24  O   UNL     1      -1.768  11.348  23.270  0.00  0.00    +0.000 OA
ENDBRANCH   4  22
BRANCH   5  25
ATOM     25  N   UNL     1       0.437  11.807  19.866  0.00  0.00    +0.000 N 
ATOM     26  H   UNL     1       0.099  12.595  20.427  0.00  0.00    +0.000 HD
BRANCH  25  27
ATOM     27  C   UNL     1       0.047  11.928  18.461  0.00  0.00    +0.000 C 
BRANCH  27  28
ATOM     28  C   UNL     1      -1.354  11.418  18.266  0.00  0.00    +0.000 A 
ATOM     29  C   UNL     1      -1.618  10.271  17.512  0.00  0.00    +0.000 A 
ATOM     30  C   UNL     1      -2.934   9.848  17.330  0.00  0.00    +0.000 A 
ATOM     31  C   UNL     1      -3.946  10.589  17.913  0.00  0.00    +0.000 A 
ATOM     32  N   UNL     1      -3.735  11.702  18.648  0.00  0.00    +0.000 NA
ATOM     33  C   UNL     1      -2.444  12.089  18.808  0.00  0.00    +0.000 A 
ENDBRANCH  27  28
ENDBRANCH  25  27
ENDBRANCH   5  25
TORSDOF 6
ENDMDL
MODEL 5
REMARK VINA RESULT:      -8.8      2.353      9.335
REMARK  Name = 
REMARK  7 active torsions:
REMARK  status: ('A' for Active; 'I' for Inactive)
REMARK    1  A    between atoms: C_1  and  C_2
REMARK    2  A    between atoms: C_7  and  C_8
REMARK    3  A    between atoms: N_13  and  C_14
REMARK    4  A    between atoms: C_17  and  N_18
REMARK    5  A    between atoms: C_21  and  N_22
REMARK    6  A    between atoms: N_22  and  C_23
REMARK    7  A    between atoms: C_23  and  C_24
REMARK                            x       y       z     vdW  Elec       q    Type
REMARK                         _______ _______ _______ _____ _____    ______ ____
ROOT
ATOM      1  C   UNL     1       1.046   8.380  20.540  0.00  0.00    +0.000 A 
ATOM      2  C   UNL     1       1.099   8.582  21.922  0.00  0.00    +0.000 A 
ATOM      3  C   UNL     1       0.591   9.744  22.511  0.00  0.00    +0.000 A 
ATOM      4  C   UNL     1      -0.003  10.738  21.717  0.00  0.00    +0.000 A 
ATOM      5  C   UNL     1      -0.127  10.569  20.321  0.00  0.00    +0.000 A 
ATOM      6  C   UNL     1       0.431   9.390  19.776  0.00  0.00    +0.000 A 
ENDROOT
BRANCH   1  12
ATOM      7  C   UNL     1       3.931   4.028  18.517  0.00  0.00    +0.000 C 
ATOM      8  O   UNL     1       3.915   2.942  19.097  0.00  0.00    +0.000 OA
ATOM      9  N   UNL     1       2.992   5.022  18.795  0.00  0.00    +0.000 N 
ATOM     10  C   UNL     1       2.082   4.835  19.929  0.00  0.00    +0.000 C 
ATOM     11  C   UNL     1       2.022   6.103  20.800  0.00  0.00    +0.000 C 
ATOM     12  N   UNL     1       1.668   7.276  19.968  0.00  0.00    +0.000 N 
ATOM     13  C   UNL     1       2.569   7.481  18.808  0.00  0.00    +0.000 C 
ATOM     14  C   UNL     1       2.642   6.186  17.962  0.00  0.00    +0.000 C 
BRANCH   7  21
ATOM     15  C   UNL     1       6.485   5.456  19.317  0.00  0.00    +0.000 C 
ATOM     16  C   UNL     1       6.233   4.943  17.924  0.00  0.00    +0.000 A 
ATOM     17  C   UNL     1       7.212   5.181  16.943  0.00  0.00    +0.000 A 
ATOM     18  C   UNL     1       7.024   4.781  15.620  0.00  0.00    +0.000 A 
ATOM     19  C   UNL     1       5.827   4.185  15.241  0.00  0.00    +0.000 A 
ATOM     20  C   UNL     1       4.828   3.983  16.190  0.00  0.00    +0.000 A 
ATOM     21  C   UNL     1       5.036   4.295  17.546  0.00  0.00    +0.000 A 
ENDBRANCH   7  21
ENDBRANCH   1  12
BRANCH   4  22
ATOM     22  N   UNL     1      -0.504  11.942  22.406  0.00  0.00    +0.000 N 
ATOM     23  O   UNL     1       0.056  13.022  22.164  0.00  0.00    +0.000 OA
ATOM     24  O   UNL     1      -1.443  11.818  23.210  0.00  0.00    +0.000 OA
ENDBRANCH   4  22
BRANCH   5  25
ATOM     25  N   UNL     1      -0.644  11.552  19.465  0.00  0.00    +0.000 N 
ATOM     26  H   UNL     1      -0.028  12.364  19.365  0.00  0.00    +0.000 HD
BRANCH  25  27
ATOM     27  C   UNL     1      -2.054  11.938  19.517  0.00  0.00    +0.000 C 
BRANCH  27  28
ATOM     28  C   UNL     1      -2.736  11.584  18.224  0.00  0.00    +0.000 A 
ATOM     29  C   UNL     1      -4.123  11.678  18.078  0.00  0.00    +0.000 A 
ATOM     30  C   UNL     1      -4.720  11.313  16.872  0.00  0.00    +0.000 A 
ATOM     31  C   UNL     1      -3.905  10.865  15.848  0.00  0.00    +0.000 A 
ATOM     32  N   UNL     1      -2.563  10.758  15.947  0.00  0.00    +0.000 NA
ATOM     33  C   UNL     1      -2.011  11.122  17.132  0.00  0.00    +0.000 A 
ENDBRANCH  27  28
ENDBRANCH  25  27
ENDBRANCH   5  25
TORSDOF 6
ENDMDL
MODEL 6
REMARK VINA RESULT:      -8.8      2.363      3.792
REMARK  Name = 
REMARK  7 active torsions:
REMARK  status: ('A' for Active; 'I' for Inactive)
REMARK    1  A    between atoms: C_1  and  C_2
REMARK    2  A    between atoms: C_7  and  C_8
REMARK    3  A    between atoms: N_13  and  C_14
REMARK    4  A    between atoms: C_17  and  N_18
REMARK    5  A    between atoms: C_21  and  N_22
REMARK    6  A    between atoms: N_22  and  C_23
REMARK    7  A    between atoms: C_23  and  C_24
REMARK                            x       y       z     vdW  Elec       q    Type
REMARK                         _______ _______ _______ _____ _____    ______ ____
ROOT
ATOM      1  C   UNL     1       1.468   9.025  18.869  0.00  0.00    +0.000 A 
ATOM      2  C   UNL     1       2.289   8.971  17.739  0.00  0.00    +0.000 A 
ATOM      3  C   UNL     1       3.206   7.933  17.551  0.00  0.00    +0.000 A 
ATOM      4  C   UNL     1       3.314   6.903  18.500  0.00  0.00    +0.000 A 
ATOM      5  C   UNL     1       2.480   6.880  19.638  0.00  0.00    +0.000 A 
ATOM      6  C   UNL     1       1.593   7.970  19.794  0.00  0.00    +0.000 A 
ENDROOT
BRANCH   1  12
ATOM      7  C   UNL     1      -1.612  13.505  20.213  0.00  0.00    +0.000 C 
ATOM      8  O   UNL     1      -1.162  14.641  20.065  0.00  0.00    +0.000 OA
ATOM      9  N   UNL     1      -1.022  12.397  19.604  0.00  0.00    +0.000 N 
ATOM     10  C   UNL     1       0.263  12.569  18.920  0.00  0.00    +0.000 C 
ATOM     11  C   UNL     1       1.255  11.464  19.329  0.00  0.00    +0.000 C 
ATOM     12  N   UNL     1       0.655  10.130  19.094  0.00  0.00    +0.000 N 
ATOM     13  C   UNL     1      -0.652   9.935  19.766  0.00  0.00    +0.000 C 
ATOM     14  C   UNL     1      -1.625  11.072  19.370  0.00  0.00    +0.000 C 
BRANCH   7  21
ATOM     15  C   UNL     1      -1.288  12.515  23.063  0.00  0.00    +0.000 C 
ATOM     16  C   UNL     1      -2.622  12.876  22.466  0.00  0.00    +0.000 A 
ATOM     17  C   UNL     1      -3.771  12.701  23.257  0.00  0.00    +0.000 A 
ATOM     18  C   UNL     1      -5.045  12.965  22.753  0.00  0.00    +0.000 A 
ATOM     19  C   UNL     1      -5.198  13.356  21.428  0.00  0.00    +0.000 A 
ATOM     20  C   UNL     1      -4.074  13.491  20.617  0.00  0.00    +0.000 A 
ATOM     21  C   UNL     1      -2.776  13.319  21.133  0.00  0.00    +0.000 A 
ENDBRANCH   7  21
ENDBRANCH   1  12
BRANCH   4  22
ATOM     22  N   UNL     1       4.314   5.851  18.242  0.00  0.00    +0.000 N 
ATOM     23  O   UNL     1       4.223   5.214  17.181  0.00  0.00    +0.000 OA
ATOM     24  O   UNL     1       5.183   5.634  19.102  0.00  0.00    +0.000 OA
ENDBRANCH   4  22
BRANCH   5  25
ATOM     25  N   UNL     1       2.586   5.922  20.656  0.00  0.00    +0.000 N 
ATOM     26  H   UNL     1       3.556   5.685  20.888  0.00  0.00    +0.000 HD
BRANCH  25  27
ATOM     27  C   UNL     1       1.713   4.748  20.688  0.00  0.00    +0.000 C 
BRANCH  27  28
ATOM     28  C   UNL     1       2.274   3.661  19.813  0.00  0.00    +0.000 A 
ATOM     29  C   UNL     1       1.689   3.332  18.587  0.00  0.00    +0.000 A 
ATOM     30  C   UNL     1       2.222   2.298  17.819  0.00  0.00    +0.000 A 
ATOM     31  C   UNL     1       3.328   1.625  18.306  0.00  0.00    +0.000 A 
ATOM     32  N   UNL     1       3.923   1.909  19.484  0.00  0.00    +0.000 NA
ATOM     33  C   UNL     1       3.383   2.922  20.209  0.00  0.00    +0.000 A 
ENDBRANCH  27  28
ENDBRANCH  25  27
ENDBRANCH   5  25
TORSDOF 6
ENDMDL
MODEL 7
REMARK VINA RESULT:      -8.7      2.403      3.915
REMARK  Name = 
REMARK  7 active torsions:
REMARK  status: ('A' for Active; 'I' for Inactive)
REMARK    1  A    between atoms: C_1  and  C_2
REMARK    2  A    between atoms: C_7  and  C_8
REMARK    3  A    between atoms: N_13  and  C_14
REMARK    4  A    between atoms: C_17  and  N_18
REMARK    5  A    between atoms: C_21  and  N_22
REMARK    6  A    between atoms: N_22  and  C_23
REMARK    7  A    between atoms: C_23  and  C_24
REMARK                            x       y       z     vdW  Elec       q    Type
REMARK                         _______ _______ _______ _____ _____    ______ ____
ROOT
ATOM      1  C   UNL     1       1.442   9.089  18.903  0.00  0.00    +0.000 A 
ATOM      2  C   UNL     1       2.249   9.024  17.763  0.00  0.00    +0.000 A 
ATOM      3  C   UNL     1       3.148   7.972  17.564  0.00  0.00    +0.000 A 
ATOM      4  C   UNL     1       3.252   6.940  18.510  0.00  0.00    +0.000 A 
ATOM      5  C   UNL     1       2.430   6.927  19.657  0.00  0.00    +0.000 A 
ATOM      6  C   UNL     1       1.561   8.030  19.824  0.00  0.00    +0.000 A 
ENDROOT
BRANCH   1  12
ATOM      7  C   UNL     1      -1.563  13.605  20.292  0.00  0.00    +0.000 C 
ATOM      8  O   UNL     1      -1.090  14.734  20.166  0.00  0.00    +0.000 OA
ATOM      9  N   UNL     1      -0.990  12.495  19.669  0.00  0.00    +0.000 N 
ATOM     10  C   UNL     1       0.305  12.654  19.000  0.00  0.00    +0.000 C 
ATOM     11  C   UNL     1       1.271  11.523  19.400  0.00  0.00    +0.000 C 
ATOM     12  N   UNL     1       0.648  10.205  19.138  0.00  0.00    +0.000 N 
ATOM     13  C   UNL     1      -0.669  10.024  19.795  0.00  0.00    +0.000 C 
ATOM     14  C   UNL     1      -1.615  11.187  19.408  0.00  0.00    +0.000 C 
BRANCH   7  21
ATOM     15  C   UNL     1      -1.319  12.346  23.041  0.00  0.00    +0.000 C 
ATOM     16  C   UNL     1      -2.621  12.858  22.486  0.00  0.00    +0.000 A 
ATOM     17  C   UNL     1      -3.782  12.700  23.264  0.00  0.00    +0.000 A 
ATOM     18  C   UNL     1      -5.031  13.103  22.793  0.00  0.00    +0.000 A 
ATOM     19  C   UNL     1      -5.152  13.620  21.508  0.00  0.00    +0.000 A 
ATOM     20  C   UNL     1      -4.020  13.741  20.706  0.00  0.00    +0.000 A 
ATOM     21  C   UNL     1      -2.740  13.427  21.198  0.00  0.00    +0.000 A 
ENDBRANCH   7  21
ENDBRANCH   1  12
BRANCH   4  22
ATOM     22  N   UNL     1       4.232   5.873  18.239  0.00  0.00    +0.000 N 
ATOM     23  O   UNL     1       5.095   5.647  19.101  0.00  0.00    +0.000 OA
ATOM     24  O   UNL     1       4.165   5.265  17.157  0.00  0.00    +0.000 OA
ENDBRANCH   4  22
BRANCH   5  25
ATOM     25  N   UNL     1       2.533   5.966  20.673  0.00  0.00    +0.000 N 
ATOM     26  H   UNL     1       3.501   5.705  20.884  0.00  0.00    +0.000 HD
BRANCH  25  27
ATOM     27  C   UNL     1       1.632   4.815  20.723  0.00  0.00    +0.000 C 
BRANCH  27  28
ATOM     28  C   UNL     1       2.107   3.743  19.780  0.00  0.00    +0.000 A 
ATOM     29  C   UNL     1       3.223   2.954  20.071  0.00  0.00    +0.000 A 
ATOM     30  C   UNL     1       3.649   1.991  19.157  0.00  0.00    +0.000 A 
ATOM     31  C   UNL     1       2.939   1.849  17.978  0.00  0.00    +0.000 A 
ATOM     32  N   UNL     1       1.857   2.590  17.658  0.00  0.00    +0.000 NA
ATOM     33  C   UNL     1       1.466   3.519  18.567  0.00  0.00    +0.000 A 
ENDBRANCH  27  28
ENDBRANCH  25  27
ENDBRANCH   5  25
TORSDOF 6
ENDMDL
MODEL 8
REMARK VINA RESULT:      -8.5      2.387      4.824
REMARK  Name = 
REMARK  7 active torsions:
REMARK  status: ('A' for Active; 'I' for Inactive)
REMARK    1  A    between atoms: C_1  and  C_2
REMARK    2  A    between atoms: C_7  and  C_8
REMARK    3  A    between atoms: N_13  and  C_14
REMARK    4  A    between atoms: C_17  and  N_18
REMARK    5  A    between atoms: C_21  and  N_22
REMARK    6  A    between atoms: N_22  and  C_23
REMARK    7  A    between atoms: C_23  and  C_24
REMARK                            x       y       z     vdW  Elec       q    Type
REMARK                         _______ _______ _______ _____ _____    ______ ____
ROOT
ATOM      1  C   UNL     1       2.203   6.957  19.597  0.00  0.00    +0.000 A 
ATOM      2  C   UNL     1       1.828   5.998  20.541  0.00  0.00    +0.000 A 
ATOM      3  C   UNL     1       2.436   4.740  20.586  0.00  0.00    +0.000 A 
ATOM      4  C   UNL     1       3.459   4.415  19.681  0.00  0.00    +0.000 A 
ATOM      5  C   UNL     1       3.912   5.359  18.735  0.00  0.00    +0.000 A 
ATOM      6  C   UNL     1       3.241   6.604  18.713  0.00  0.00    +0.000 A 
ENDROOT
BRANCH   1  12
ATOM      7  C   UNL     1      -0.204  11.996  19.183  0.00  0.00    +0.000 C 
ATOM      8  O   UNL     1      -0.332  12.541  18.086  0.00  0.00    +0.000 OA
ATOM      9  N   UNL     1       0.085  10.636  19.298  0.00  0.00    +0.000 N 
ATOM     10  C   UNL     1       0.421   9.882  18.086  0.00  0.00    +0.000 C 
ATOM     11  C   UNL     1       1.679   9.022  18.306  0.00  0.00    +0.000 C 
ATOM     12  N   UNL     1       1.500   8.152  19.491  0.00  0.00    +0.000 N 
ATOM     13  C   UNL     1       1.149   8.890  20.728  0.00  0.00    +0.000 C 
ATOM     14  C   UNL     1      -0.098   9.774  20.479  0.00  0.00    +0.000 C 
BRANCH   7  21
ATOM     15  C   UNL     1       2.185  13.504  20.289  0.00  0.00    +0.000 C 
ATOM     16  C   UNL     1       0.816  13.564  20.912  0.00  0.00    +0.000 A 
ATOM     17  C   UNL     1       0.656  14.319  22.088  0.00  0.00    +0.000 A 
ATOM     18  C   UNL     1      -0.571  14.377  22.750  0.00  0.00    +0.000 A 
ATOM     19  C   UNL     1      -1.647  13.634  22.280  0.00  0.00    +0.000 A 
ATOM     20  C   UNL     1      -1.494  12.845  21.142  0.00  0.00    +0.000 A 
ATOM     21  C   UNL     1      -0.293  12.847  20.410  0.00  0.00    +0.000 A 
ENDBRANCH   7  21
ENDBRANCH   1  12
BRANCH   4  22
ATOM     22  N   UNL     1       4.043   3.065  19.779  0.00  0.00    +0.000 N 
ATOM     23  O   UNL     1       3.267   2.098  19.789  0.00  0.00    +0.000 OA
ATOM     24  O   UNL     1       5.277   2.957  19.870  0.00  0.00    +0.000 OA
ENDBRANCH   4  22
BRANCH   5  25
ATOM     25  N   UNL     1       4.877   5.075  17.759  0.00  0.00    +0.000 N 
ATOM     26  H   UNL     1       5.445   5.888  17.504  0.00  0.00    +0.000 HD
BRANCH  25  27
ATOM     27  C   UNL     1       4.560   4.244  16.597  0.00  0.00    +0.000 C 
BRANCH  27  28
ATOM     28  C   UNL     1       5.573   4.466  15.508  0.00  0.00    +0.000 A 
ATOM     29  C   UNL     1       5.427   3.892  14.243  0.00  0.00    +0.000 A 
ATOM     30  C   UNL     1       6.403   4.097  13.270  0.00  0.00    +0.000 A 
ATOM     31  C   UNL     1       7.499   4.876  13.597  0.00  0.00    +0.000 A 
ATOM     32  N   UNL     1       7.680   5.448  14.807  0.00  0.00    +0.000 NA
ATOM     33  C   UNL     1       6.712   5.230  15.733  0.00  0.00    +0.000 A 
ENDBRANCH  27  28
ENDBRANCH  25  27
ENDBRANCH   5  25
TORSDOF 6
ENDMDL
MODEL 9
REMARK VINA RESULT:      -8.4      2.344      4.825
REMARK  Name = 
REMARK  7 active torsions:
REMARK  status: ('A' for Active; 'I' for Inactive)
REMARK    1  A    between atoms: C_1  and  C_2
REMARK    2  A    between atoms: C_7  and  C_8
REMARK    3  A    between atoms: N_13  and  C_14
REMARK    4  A    between atoms: C_17  and  N_18
REMARK    5  A    between atoms: C_21  and  N_22
REMARK    6  A    between atoms: N_22  and  C_23
REMARK    7  A    between atoms: C_23  and  C_24
REMARK                            x       y       z     vdW  Elec       q    Type
REMARK                         _______ _______ _______ _____ _____    ______ ____
ROOT
ATOM      1  C   UNL     1       2.186   7.105  19.582  0.00  0.00    +0.000 A 
ATOM      2  C   UNL     1       1.837   6.139  20.531  0.00  0.00    +0.000 A 
ATOM      3  C   UNL     1       2.459   4.888  20.563  0.00  0.00    +0.000 A 
ATOM      4  C   UNL     1       3.469   4.575  19.639  0.00  0.00    +0.000 A 
ATOM      5  C   UNL     1       3.896   5.526  18.687  0.00  0.00    +0.000 A 
ATOM      6  C   UNL     1       3.212   6.764  18.680  0.00  0.00    +0.000 A 
ENDROOT
BRANCH   1  12
ATOM      7  C   UNL     1      -0.280  12.118  19.205  0.00  0.00    +0.000 C 
ATOM      8  O   UNL     1      -0.464  12.644  18.107  0.00  0.00    +0.000 OA
ATOM      9  N   UNL     1       0.026  10.762  19.327  0.00  0.00    +0.000 N 
ATOM     10  C   UNL     1       0.310   9.991  18.113  0.00  0.00    +0.000 C 
ATOM     11  C   UNL     1       1.585   9.144  18.286  0.00  0.00    +0.000 C 
ATOM     12  N   UNL     1       1.469   8.292  19.492  0.00  0.00    +0.000 N 
ATOM     13  C   UNL     1       1.171   9.047  20.732  0.00  0.00    +0.000 C 
ATOM     14  C   UNL     1      -0.094   9.917  20.529  0.00  0.00    +0.000 C 
BRANCH   7  21
ATOM     15  C   UNL     1      -2.847  12.680  20.720  0.00  0.00    +0.000 C 
ATOM     16  C   UNL     1      -1.510  13.232  21.137  0.00  0.00    +0.000 A 
ATOM     17  C   UNL     1      -1.465  14.084  22.255  0.00  0.00    +0.000 A 
ATOM     18  C   UNL     1      -0.270  14.674  22.668  0.00  0.00    +0.000 A 
ATOM     19  C   UNL     1       0.893  14.468  21.936  0.00  0.00    +0.000 A 
ATOM     20  C   UNL     1       0.857  13.663  20.800  0.00  0.00    +0.000 A 
ATOM     21  C   UNL     1      -0.317  12.987  20.421  0.00  0.00    +0.000 A 
ENDBRANCH   7  21
ENDBRANCH   1  12
BRANCH   4  22
ATOM     22  N   UNL     1       4.069   3.231  19.724  0.00  0.00    +0.000 N 
ATOM     23  O   UNL     1       5.300   3.153  19.858  0.00  0.00    +0.000 OA
ATOM     24  O   UNL     1       3.323   2.242  19.635  0.00  0.00    +0.000 OA
ENDBRANCH   4  22
BRANCH   5  25
ATOM     25  N   UNL     1       4.847   5.254  17.694  0.00  0.00    +0.000 N 
ATOM     26  H   UNL     1       5.365   6.085  17.392  0.00  0.00    +0.000 HD
BRANCH  25  27
ATOM     27  C   UNL     1       4.541   4.363  16.574  0.00  0.00    +0.000 C 
BRANCH  27  28
ATOM     28  C   UNL     1       5.564   4.531  15.484  0.00  0.00    +0.000 A 
ATOM     29  C   UNL     1       5.408   3.925  14.234  0.00  0.00    +0.000 A 
ATOM     30  C   UNL     1       6.393   4.080  13.260  0.00  0.00    +0.000 A 
ATOM     31  C   UNL     1       7.506   4.842  13.571  0.00  0.00    +0.000 A 
ATOM     32  N   UNL     1       7.696   5.443  14.764  0.00  0.00    +0.000 NA
ATOM     33  C   UNL     1       6.720   5.274  15.691  0.00  0.00    +0.000 A 
ENDBRANCH  27  28
ENDBRANCH  25  27
ENDBRANCH   5  25
TORSDOF 6
ENDMDL
