MODEL 1
REMARK VINA RESULT:      -7.4      0.000      0.000
REMARK  Name = 
REMARK  7 active torsions:
REMARK  status: ('A' for Active; 'I' for Inactive)
REMARK    1  A    between atoms: C_2  and  C_3
REMARK    2  A    between atoms: C_3  and  O_4
REMARK    3  A    between atoms: O_4  and  C_5
REMARK    4  A    between atoms: C_5  and  C_7
REMARK    5  A    between atoms: C_9  and  S_10
REMARK    6  A    between atoms: S_10  and  N_13
REMARK    7  A    between atoms: C_21  and  N_22
REMARK                            x       y       z     vdW  Elec       q    Type
REMARK                         _______ _______ _______ _____ _____    ______ ____
ROOT
ATOM      1  C   UNL     1       1.341   8.861  20.280  0.00  0.00    +0.000 A 
ATOM      2  C   UNL     1       2.001   7.624  20.106  0.00  0.00    +0.000 A 
ATOM      3  C   UNL     1       2.484   7.253  18.852  0.00  0.00    +0.000 A 
ATOM      4  C   UNL     1       2.221   8.053  17.748  0.00  0.00    +0.000 A 
ATOM      5  C   UNL     1       1.561   9.273  17.925  0.00  0.00    +0.000 A 
ATOM      6  C   UNL     1       1.134   9.746  19.189  0.00  0.00    +0.000 A 
ENDROOT
BRANCH   6   7
ATOM      7  N   UNL     1       0.589  11.014  19.276  0.00  0.00    +0.000 N 
ATOM      8  C   UNL     1      -0.866  11.259  19.201  0.00  0.00    +0.000 C 
ATOM      9  C   UNL     1      -1.145  12.464  18.280  0.00  0.00    +0.000 C 
ATOM     10  O   UNL     1      -0.407  13.633  18.675  0.00  0.00    +0.000 OA
ATOM     11  C   UNL     1       1.006  13.352  18.655  0.00  0.00    +0.000 C 
ATOM     12  C   UNL     1       1.344  12.227  19.650  0.00  0.00    +0.000 C 
ENDBRANCH   6   7
BRANCH   3  13
ATOM     13  S   UNL     1       3.411   5.739  18.663  0.00  0.00    +0.000 S 
ATOM     14  O   UNL     1       3.628   5.553  17.245  0.00  0.00    +0.000 OA
ATOM     15  O   UNL     1       4.514   5.795  19.593  0.00  0.00    +0.000 OA
BRANCH  13  16
ATOM     16  N   UNL     1       2.312   4.528  19.194  0.00  0.00    +0.000 NA
ATOM     17  C   UNL     1       1.970   3.501  18.178  0.00  0.00    +0.000 C 
ATOM     18  C   UNL     1       0.856   2.579  18.663  0.00  0.00    +0.000 C 
ATOM     19  C   UNL     1       1.202   1.967  20.013  0.00  0.00    +0.000 C 
ATOM     20  C   UNL     1       1.442   3.080  21.022  0.00  0.00    +0.000 C 
ATOM     21  C   UNL     1       2.564   4.005  20.562  0.00  0.00    +0.000 C 
ENDBRANCH  13  16
ENDBRANCH   3  13
BRANCH   1  22
ATOM     22  C   UNL     1       1.034   9.224  21.689  0.00  0.00    +0.000 C 
ATOM     23  O   UNL     1       1.856   9.504  22.542  0.00  0.00    +0.000 OA
BRANCH  22  24
ATOM     24  O   UNL     1      -0.311   9.189  21.886  0.00  0.00    +0.000 OA
BRANCH  24  25
ATOM     25  C   UNL     1      -0.746   9.779  23.126  0.00  0.00    +0.000 C 
BRANCH  25  27
ATOM     26  N   UNL     1      -1.574  12.249  22.750  0.00  0.00    +0.000 NA
ATOM     27  C   UNL     1      -1.202  11.160  22.911  0.00  0.00    +0.000 C 
ENDBRANCH  25  27
ENDBRANCH  24  25
ENDBRANCH  22  24
ENDBRANCH   1  22
TORSDOF 7
ENDMDL
MODEL 2
REMARK VINA RESULT:      -7.2      0.410      1.039
REMARK  Name = 
REMARK  7 active torsions:
REMARK  status: ('A' for Active; 'I' for Inactive)
REMARK    1  A    between atoms: C_2  and  C_3
REMARK    2  A    between atoms: C_3  and  O_4
REMARK    3  A    between atoms: O_4  and  C_5
REMARK    4  A    between atoms: C_5  and  C_7
REMARK    5  A    between atoms: C_9  and  S_10
REMARK    6  A    between atoms: S_10  and  N_13
REMARK    7  A    between atoms: C_21  and  N_22
REMARK                            x       y       z     vdW  Elec       q    Type
REMARK                         _______ _______ _______ _____ _____    ______ ____
ROOT
ATOM      1  C   UNL     1       1.375   8.657  20.318  0.00  0.00    +0.000 A 
ATOM      2  C   UNL     1       2.142   7.486  20.124  0.00  0.00    +0.000 A 
ATOM      3  C   UNL     1       2.628   7.162  18.858  0.00  0.00    +0.000 A 
ATOM      4  C   UNL     1       2.266   7.936  17.763  0.00  0.00    +0.000 A 
ATOM      5  C   UNL     1       1.500   9.090  17.959  0.00  0.00    +0.000 A 
ATOM      6  C   UNL     1       1.061   9.520  19.234  0.00  0.00    +0.000 A 
ENDROOT
BRANCH   6   7
ATOM      7  N   UNL     1       0.404  10.732  19.339  0.00  0.00    +0.000 N 
ATOM      8  C   UNL     1      -1.054  10.862  19.146  0.00  0.00    +0.000 C 
ATOM      9  C   UNL     1      -1.357  12.094  18.268  0.00  0.00    +0.000 C 
ATOM     10  O   UNL     1      -0.758  13.293  18.787  0.00  0.00    +0.000 OA
ATOM     11  C   UNL     1       0.670  13.129  18.880  0.00  0.00    +0.000 C 
ATOM     12  C   UNL     1       1.018  11.978  19.841  0.00  0.00    +0.000 C 
ENDBRANCH   6   7
BRANCH   3  13
ATOM     13  S   UNL     1       3.685   5.741  18.642  0.00  0.00    +0.000 S 
ATOM     14  O   UNL     1       3.904   5.590  17.221  0.00  0.00    +0.000 OA
ATOM     15  O   UNL     1       4.788   5.886  19.563  0.00  0.00    +0.000 OA
BRANCH  13  16
ATOM     16  N   UNL     1       2.706   4.430  19.170  0.00  0.00    +0.000 NA
ATOM     17  C   UNL     1       2.419   4.408  20.627  0.00  0.00    +0.000 C 
ATOM     18  C   UNL     1       1.709   3.123  21.041  0.00  0.00    +0.000 C 
ATOM     19  C   UNL     1       0.460   2.894  20.200  0.00  0.00    +0.000 C 
ATOM     20  C   UNL     1       0.850   2.831  18.731  0.00  0.00    +0.000 C 
ATOM     21  C   UNL     1       1.549   4.114  18.294  0.00  0.00    +0.000 C 
ENDBRANCH  13  16
ENDBRANCH   3  13
BRANCH   1  22
ATOM     22  C   UNL     1       1.069   8.988  21.734  0.00  0.00    +0.000 C 
ATOM     23  O   UNL     1       1.889   9.281  22.585  0.00  0.00    +0.000 OA
BRANCH  22  24
ATOM     24  O   UNL     1      -0.272   8.909  21.942  0.00  0.00    +0.000 OA
BRANCH  24  25
ATOM     25  C   UNL     1      -0.727   9.553  23.147  0.00  0.00    +0.000 C 
BRANCH  25  27
ATOM     26  N   UNL     1      -1.349  12.064  22.665  0.00  0.00    +0.000 NA
ATOM     27  C   UNL     1      -1.076  10.957  22.885  0.00  0.00    +0.000 C 
ENDBRANCH  25  27
ENDBRANCH  24  25
ENDBRANCH  22  24
ENDBRANCH   1  22
TORSDOF 7
ENDMDL
MODEL 3
REMARK VINA RESULT:      -7.2      0.517      1.086
REMARK  Name = 
REMARK  7 active torsions:
REMARK  status: ('A' for Active; 'I' for Inactive)
REMARK    1  A    between atoms: C_2  and  C_3
REMARK    2  A    between atoms: C_3  and  O_4
REMARK    3  A    between atoms: O_4  and  C_5
REMARK    4  A    between atoms: C_5  and  C_7
REMARK    5  A    between atoms: C_9  and  S_10
REMARK    6  A    between atoms: S_10  and  N_13
REMARK    7  A    between atoms: C_21  and  N_22
REMARK                            x       y       z     vdW  Elec       q    Type
REMARK                         _______ _______ _______ _____ _____    ______ ____
ROOT
ATOM      1  C   UNL     1       1.334   8.931  20.247  0.00  0.00    +0.000 A 
ATOM      2  C   UNL     1       1.996   7.692  20.094  0.00  0.00    +0.000 A 
ATOM      3  C   UNL     1       2.478   7.300  18.846  0.00  0.00    +0.000 A 
ATOM      4  C   UNL     1       2.213   8.079  17.728  0.00  0.00    +0.000 A 
ATOM      5  C   UNL     1       1.551   9.302  17.884  0.00  0.00    +0.000 A 
ATOM      6  C   UNL     1       1.125   9.797  19.140  0.00  0.00    +0.000 A 
ENDROOT
BRANCH   6   7
ATOM      7  N   UNL     1       0.578  11.065  19.205  0.00  0.00    +0.000 N 
ATOM      8  C   UNL     1       1.338  12.232  19.699  0.00  0.00    +0.000 C 
ATOM      9  C   UNL     1       0.456  13.064  20.652  0.00  0.00    +0.000 C 
ATOM     10  O   UNL     1      -0.796  13.433  20.051  0.00  0.00    +0.000 OA
ATOM     11  C   UNL     1      -1.522  12.252  19.661  0.00  0.00    +0.000 C 
ATOM     12  C   UNL     1      -0.722  11.449  18.620  0.00  0.00    +0.000 C 
ENDBRANCH   6   7
BRANCH   3  13
ATOM     13  S   UNL     1       3.406   5.784  18.683  0.00  0.00    +0.000 S 
ATOM     14  O   UNL     1       3.661   5.596  17.272  0.00  0.00    +0.000 OA
ATOM     15  O   UNL     1       4.485   5.839  19.642  0.00  0.00    +0.000 OA
BRANCH  13  16
ATOM     16  N   UNL     1       2.292   4.576  19.188  0.00  0.00    +0.000 NA
ATOM     17  C   UNL     1       2.045   3.497  18.197  0.00  0.00    +0.000 C 
ATOM     18  C   UNL     1       0.914   2.575  18.641  0.00  0.00    +0.000 C 
ATOM     19  C   UNL     1       1.168   2.032  20.040  0.00  0.00    +0.000 C 
ATOM     20  C   UNL     1       1.312   3.194  21.011  0.00  0.00    +0.000 C 
ATOM     21  C   UNL     1       2.449   4.120  20.593  0.00  0.00    +0.000 C 
ENDBRANCH  13  16
ENDBRANCH   3  13
BRANCH   1  22
ATOM     22  C   UNL     1       1.027   9.319  21.649  0.00  0.00    +0.000 C 
ATOM     23  O   UNL     1       1.850   9.585  22.505  0.00  0.00    +0.000 OA
BRANCH  22  24
ATOM     24  O   UNL     1      -0.319   9.324  21.837  0.00  0.00    +0.000 OA
BRANCH  24  25
ATOM     25  C   UNL     1      -0.733   9.692  23.166  0.00  0.00    +0.000 C 
BRANCH  25  27
ATOM     26  N   UNL     1      -1.905  12.048  23.170  0.00  0.00    +0.000 NA
ATOM     27  C   UNL     1      -1.387  11.008  23.161  0.00  0.00    +0.000 C 
ENDBRANCH  25  27
ENDBRANCH  24  25
ENDBRANCH  22  24
ENDBRANCH   1  22
TORSDOF 7
ENDMDL
MODEL 4
REMARK VINA RESULT:      -7.2      2.037      2.921
REMARK  Name = 
REMARK  7 active torsions:
REMARK  status: ('A' for Active; 'I' for Inactive)
REMARK    1  A    between atoms: C_2  and  C_3
REMARK    2  A    between atoms: C_3  and  O_4
REMARK    3  A    between atoms: O_4  and  C_5
REMARK    4  A    between atoms: C_5  and  C_7
REMARK    5  A    between atoms: C_9  and  S_10
REMARK    6  A    between atoms: S_10  and  N_13
REMARK    7  A    between atoms: C_21  and  N_22
REMARK                            x       y       z     vdW  Elec       q    Type
REMARK                         _______ _______ _______ _____ _____    ______ ____
ROOT
ATOM      1  C   UNL     1       1.271   8.764  20.426  0.00  0.00    +0.000 A 
ATOM      2  C   UNL     1       1.835   7.475  20.293  0.00  0.00    +0.000 A 
ATOM      3  C   UNL     1       2.313   7.039  19.059  0.00  0.00    +0.000 A 
ATOM      4  C   UNL     1       2.136   7.831  17.932  0.00  0.00    +0.000 A 
ATOM      5  C   UNL     1       1.571   9.103  18.068  0.00  0.00    +0.000 A 
ATOM      6  C   UNL     1       1.156   9.637  19.312  0.00  0.00    +0.000 A 
ENDROOT
BRANCH   6   7
ATOM      7  N   UNL     1       0.711  10.946  19.360  0.00  0.00    +0.000 N 
ATOM      8  C   UNL     1      -0.724  11.296  19.336  0.00  0.00    +0.000 C 
ATOM      9  C   UNL     1      -0.956  12.476  18.370  0.00  0.00    +0.000 C 
ATOM     10  O   UNL     1      -0.116  13.602  18.673  0.00  0.00    +0.000 OA
ATOM     11  C   UNL     1       1.269  13.214  18.606  0.00  0.00    +0.000 C 
ATOM     12  C   UNL     1       1.570  12.114  19.639  0.00  0.00    +0.000 C 
ENDBRANCH   6   7
BRANCH   3  13
ATOM     13  S   UNL     1       3.121   5.453  18.922  0.00  0.00    +0.000 S 
ATOM     14  O   UNL     1       3.024   4.818  20.218  0.00  0.00    +0.000 OA
ATOM     15  O   UNL     1       2.612   4.816  17.731  0.00  0.00    +0.000 OA
BRANCH  13  16
ATOM     16  N   UNL     1       4.769   5.866  18.656  0.00  0.00    +0.000 NA
ATOM     17  C   UNL     1       5.748   5.088  19.458  0.00  0.00    +0.000 C 
ATOM     18  C   UNL     1       7.162   5.638  19.304  0.00  0.00    +0.000 C 
ATOM     19  C   UNL     1       7.557   5.730  17.838  0.00  0.00    +0.000 C 
ATOM     20  C   UNL     1       6.564   6.620  17.106  0.00  0.00    +0.000 C 
ATOM     21  C   UNL     1       5.144   6.079  17.235  0.00  0.00    +0.000 C 
ENDBRANCH  13  16
ENDBRANCH   3  13
BRANCH   1  22
ATOM     22  C   UNL     1       0.963   9.182  21.819  0.00  0.00    +0.000 C 
ATOM     23  O   UNL     1       1.787   9.448  22.676  0.00  0.00    +0.000 OA
BRANCH  22  24
ATOM     24  O   UNL     1      -0.383   9.216  22.000  0.00  0.00    +0.000 OA
BRANCH  24  25
ATOM     25  C   UNL     1      -0.805   9.860  23.216  0.00  0.00    +0.000 C 
BRANCH  25  27
ATOM     26  N   UNL     1      -1.654  12.300  22.718  0.00  0.00    +0.000 NA
ATOM     27  C   UNL     1      -1.276  11.225  22.944  0.00  0.00    +0.000 C 
ENDBRANCH  25  27
ENDBRANCH  24  25
ENDBRANCH  22  24
ENDBRANCH   1  22
TORSDOF 7
ENDMDL
MODEL 5
REMARK VINA RESULT:      -7.1      2.124      3.151
REMARK  Name = 
REMARK  7 active torsions:
REMARK  status: ('A' for Active; 'I' for Inactive)
REMARK    1  A    between atoms: C_2  and  C_3
REMARK    2  A    between atoms: C_3  and  O_4
REMARK    3  A    between atoms: O_4  and  C_5
REMARK    4  A    between atoms: C_5  and  C_7
REMARK    5  A    between atoms: C_9  and  S_10
REMARK    6  A    between atoms: S_10  and  N_13
REMARK    7  A    between atoms: C_21  and  N_22
REMARK                            x       y       z     vdW  Elec       q    Type
REMARK                         _______ _______ _______ _____ _____    ______ ____
ROOT
ATOM      1  C   UNL     1       1.279   8.909  20.332  0.00  0.00    +0.000 A 
ATOM      2  C   UNL     1       1.861   7.627  20.217  0.00  0.00    +0.000 A 
ATOM      3  C   UNL     1       2.335   7.175  18.987  0.00  0.00    +0.000 A 
ATOM      4  C   UNL     1       2.137   7.945  17.848  0.00  0.00    +0.000 A 
ATOM      5  C   UNL     1       1.553   9.210  17.966  0.00  0.00    +0.000 A 
ATOM      6  C   UNL     1       1.141   9.760  19.203  0.00  0.00    +0.000 A 
ENDROOT
BRANCH   6   7
ATOM      7  N   UNL     1       0.677  11.062  19.232  0.00  0.00    +0.000 N 
ATOM      8  C   UNL     1       1.501  12.188  19.718  0.00  0.00    +0.000 C 
ATOM      9  C   UNL     1       0.656  13.095  20.635  0.00  0.00    +0.000 C 
ATOM     10  O   UNL     1      -0.558  13.531  20.001  0.00  0.00    +0.000 OA
ATOM     11  C   UNL     1      -1.351  12.390  19.620  0.00  0.00    +0.000 C 
ATOM     12  C   UNL     1      -0.585  11.516  18.612  0.00  0.00    +0.000 C 
ENDBRANCH   6   7
BRANCH   3  13
ATOM     13  S   UNL     1       3.167   5.600  18.872  0.00  0.00    +0.000 S 
ATOM     14  O   UNL     1       3.042   4.963  20.165  0.00  0.00    +0.000 OA
ATOM     15  O   UNL     1       2.697   4.957  17.667  0.00  0.00    +0.000 OA
BRANCH  13  16
ATOM     16  N   UNL     1       4.815   6.033  18.650  0.00  0.00    +0.000 NA
ATOM     17  C   UNL     1       5.795   5.123  19.296  0.00  0.00    +0.000 C 
ATOM     18  C   UNL     1       7.215   5.675  19.211  0.00  0.00    +0.000 C 
ATOM     19  C   UNL     1       7.589   6.004  17.773  0.00  0.00    +0.000 C 
ATOM     20  C   UNL     1       6.598   7.013  17.215  0.00  0.00    +0.000 C 
ATOM     21  C   UNL     1       5.172   6.474  17.277  0.00  0.00    +0.000 C 
ENDBRANCH  13  16
ENDBRANCH   3  13
BRANCH   1  22
ATOM     22  C   UNL     1       0.977   9.348  21.720  0.00  0.00    +0.000 C 
ATOM     23  O   UNL     1       1.801   9.537  22.597  0.00  0.00    +0.000 OA
BRANCH  22  24
ATOM     24  O   UNL     1      -0.365   9.500  21.870  0.00  0.00    +0.000 OA
BRANCH  24  25
ATOM     25  C   UNL     1      -0.774   9.915  23.187  0.00  0.00    +0.000 C 
BRANCH  25  27
ATOM     26  N   UNL     1      -1.973  12.256  23.106  0.00  0.00    +0.000 NA
ATOM     27  C   UNL     1      -1.442  11.223  23.135  0.00  0.00    +0.000 C 
ENDBRANCH  25  27
ENDBRANCH  24  25
ENDBRANCH  22  24
ENDBRANCH   1  22
TORSDOF 7
ENDMDL
MODEL 6
REMARK VINA RESULT:      -7.1      0.707      1.507
REMARK  Name = 
REMARK  7 active torsions:
REMARK  status: ('A' for Active; 'I' for Inactive)
REMARK    1  A    between atoms: C_2  and  C_3
REMARK    2  A    between atoms: C_3  and  O_4
REMARK    3  A    between atoms: O_4  and  C_5
REMARK    4  A    between atoms: C_5  and  C_7
REMARK    5  A    between atoms: C_9  and  S_10
REMARK    6  A    between atoms: S_10  and  N_13
REMARK    7  A    between atoms: C_21  and  N_22
REMARK                            x       y       z     vdW  Elec       q    Type
REMARK                         _______ _______ _______ _____ _____    ______ ____
ROOT
ATOM      1  C   UNL     1       1.492   8.585  20.124  0.00  0.00    +0.000 A 
ATOM      2  C   UNL     1       2.255   7.400  20.023  0.00  0.00    +0.000 A 
ATOM      3  C   UNL     1       2.792   7.010  18.797  0.00  0.00    +0.000 A 
ATOM      4  C   UNL     1       2.485   7.729  17.650  0.00  0.00    +0.000 A 
ATOM      5  C   UNL     1       1.723   8.897  17.754  0.00  0.00    +0.000 A 
ATOM      6  C   UNL     1       1.233   9.395  18.986  0.00  0.00    +0.000 A 
ENDROOT
BRANCH   6   7
ATOM      7  N   UNL     1       0.584  10.616  19.001  0.00  0.00    +0.000 N 
ATOM      8  C   UNL     1       1.286  11.884  19.282  0.00  0.00    +0.000 C 
ATOM      9  C   UNL     1       0.450  12.738  20.256  0.00  0.00    +0.000 C 
ATOM     10  O   UNL     1      -0.893  12.942  19.788  0.00  0.00    +0.000 OA
ATOM     11  C   UNL     1      -1.548  11.672  19.606  0.00  0.00    +0.000 C 
ATOM     12  C   UNL     1      -0.807  10.831  18.552  0.00  0.00    +0.000 C 
ENDBRANCH   6   7
BRANCH   3  13
ATOM     13  S   UNL     1       3.844   5.571  18.699  0.00  0.00    +0.000 S 
ATOM     14  O   UNL     1       4.174   5.385  17.303  0.00  0.00    +0.000 OA
ATOM     15  O   UNL     1       4.872   5.726  19.702  0.00  0.00    +0.000 OA
BRANCH  13  16
ATOM     16  N   UNL     1       2.808   4.285  19.176  0.00  0.00    +0.000 NA
ATOM     17  C   UNL     1       2.556   4.190  20.637  0.00  0.00    +0.000 C 
ATOM     18  C   UNL     1       1.787   2.922  20.993  0.00  0.00    +0.000 C 
ATOM     19  C   UNL     1       0.508   2.810  20.176  0.00  0.00    +0.000 C 
ATOM     20  C   UNL     1       0.857   2.815  18.696  0.00  0.00    +0.000 C 
ATOM     21  C   UNL     1       1.615   4.083  18.315  0.00  0.00    +0.000 C 
ENDBRANCH  13  16
ENDBRANCH   3  13
BRANCH   1  22
ATOM     22  C   UNL     1       1.128   8.990  21.507  0.00  0.00    +0.000 C 
ATOM     23  O   UNL     1       1.915   9.279  22.390  0.00  0.00    +0.000 OA
BRANCH  22  24
ATOM     24  O   UNL     1      -0.225   8.982  21.645  0.00  0.00    +0.000 OA
BRANCH  24  25
ATOM     25  C   UNL     1      -0.689   9.273  22.976  0.00  0.00    +0.000 C 
BRANCH  25  27
ATOM     26  N   UNL     1      -1.268  11.827  23.229  0.00  0.00    +0.000 NA
ATOM     27  C   UNL     1      -1.006  10.701  23.114  0.00  0.00    +0.000 C 
ENDBRANCH  25  27
ENDBRANCH  24  25
ENDBRANCH  22  24
ENDBRANCH   1  22
TORSDOF 7
ENDMDL
MODEL 7
REMARK VINA RESULT:      -7.0      2.121      3.120
REMARK  Name = 
REMARK  7 active torsions:
REMARK  status: ('A' for Active; 'I' for Inactive)
REMARK    1  A    between atoms: C_2  and  C_3
REMARK    2  A    between atoms: C_3  and  O_4
REMARK    3  A    between atoms: O_4  and  C_5
REMARK    4  A    between atoms: C_5  and  C_7
REMARK    5  A    between atoms: C_9  and  S_10
REMARK    6  A    between atoms: S_10  and  N_13
REMARK    7  A    between atoms: C_21  and  N_22
REMARK                            x       y       z     vdW  Elec       q    Type
REMARK                         _______ _______ _______ _____ _____    ______ ____
ROOT
ATOM      1  C   UNL     1       1.415   8.686  20.203  0.00  0.00    +0.000 A 
ATOM      2  C   UNL     1       2.029   7.415  20.141  0.00  0.00    +0.000 A 
ATOM      3  C   UNL     1       2.547   6.940  18.938  0.00  0.00    +0.000 A 
ATOM      4  C   UNL     1       2.364   7.673  17.772  0.00  0.00    +0.000 A 
ATOM      5  C   UNL     1       1.750   8.927  17.838  0.00  0.00    +0.000 A 
ATOM      6  C   UNL     1       1.291   9.502  19.048  0.00  0.00    +0.000 A 
ENDROOT
BRANCH   6   7
ATOM      7  N   UNL     1       0.797  10.794  19.026  0.00  0.00    +0.000 N 
ATOM      8  C   UNL     1       1.645  11.971  19.300  0.00  0.00    +0.000 C 
ATOM      9  C   UNL     1       0.902  12.942  20.240  0.00  0.00    +0.000 C 
ATOM     10  O   UNL     1      -0.396  13.300  19.739  0.00  0.00    +0.000 OA
ATOM     11  C   UNL     1      -1.199  12.116  19.566  0.00  0.00    +0.000 C 
ATOM     12  C   UNL     1      -0.547  11.169  18.543  0.00  0.00    +0.000 C 
ENDBRANCH   6   7
BRANCH   3  13
ATOM     13  S   UNL     1       3.416   5.382  18.891  0.00  0.00    +0.000 S 
ATOM     14  O   UNL     1       4.117   5.252  20.150  0.00  0.00    +0.000 OA
ATOM     15  O   UNL     1       2.473   4.381  18.448  0.00  0.00    +0.000 OA
BRANCH  13  16
ATOM     16  N   UNL     1       4.586   5.613  17.653  0.00  0.00    +0.000 NA
ATOM     17  C   UNL     1       5.934   6.012  18.131  0.00  0.00    +0.000 C 
ATOM     18  C   UNL     1       6.856   6.377  16.971  0.00  0.00    +0.000 C 
ATOM     19  C   UNL     1       6.913   5.255  15.944  0.00  0.00    +0.000 C 
ATOM     20  C   UNL     1       5.509   4.972  15.432  0.00  0.00    +0.000 C 
ATOM     21  C   UNL     1       4.574   4.590  16.576  0.00  0.00    +0.000 C 
ENDBRANCH  13  16
ENDBRANCH   3  13
BRANCH   1  22
ATOM     22  C   UNL     1       1.065   9.156  21.570  0.00  0.00    +0.000 C 
ATOM     23  O   UNL     1       1.860   9.416  22.454  0.00  0.00    +0.000 OA
BRANCH  22  24
ATOM     24  O   UNL     1      -0.286   9.247  21.689  0.00  0.00    +0.000 OA
BRANCH  24  25
ATOM     25  C   UNL     1      -0.745   9.604  23.007  0.00  0.00    +0.000 C 
BRANCH  25  27
ATOM     26  N   UNL     1      -1.164  12.197  23.171  0.00  0.00    +0.000 NA
ATOM     27  C   UNL     1      -0.986  11.051  23.097  0.00  0.00    +0.000 C 
ENDBRANCH  25  27
ENDBRANCH  24  25
ENDBRANCH  22  24
ENDBRANCH   1  22
TORSDOF 7
ENDMDL
MODEL 8
REMARK VINA RESULT:      -6.7      2.440      8.075
REMARK  Name = 
REMARK  7 active torsions:
REMARK  status: ('A' for Active; 'I' for Inactive)
REMARK    1  A    between atoms: C_2  and  C_3
REMARK    2  A    between atoms: C_3  and  O_4
REMARK    3  A    between atoms: O_4  and  C_5
REMARK    4  A    between atoms: C_5  and  C_7
REMARK    5  A    between atoms: C_9  and  S_10
REMARK    6  A    between atoms: S_10  and  N_13
REMARK    7  A    between atoms: C_21  and  N_22
REMARK                            x       y       z     vdW  Elec       q    Type
REMARK                         _______ _______ _______ _____ _____    ______ ____
ROOT
ATOM      1  C   UNL     1       2.753   6.732  18.826  0.00  0.00    +0.000 A 
ATOM      2  C   UNL     1       2.196   7.847  19.491  0.00  0.00    +0.000 A 
ATOM      3  C   UNL     1       1.448   7.674  20.654  0.00  0.00    +0.000 A 
ATOM      4  C   UNL     1       1.158   6.392  21.102  0.00  0.00    +0.000 A 
ATOM      5  C   UNL     1       1.707   5.291  20.437  0.00  0.00    +0.000 A 
ATOM      6  C   UNL     1       2.553   5.411  19.308  0.00  0.00    +0.000 A 
ENDROOT
BRANCH   6   7
ATOM      7  N   UNL     1       3.134   4.269  18.787  0.00  0.00    +0.000 N 
ATOM      8  C   UNL     1       2.715   3.684  17.498  0.00  0.00    +0.000 C 
ATOM      9  C   UNL     1       2.587   2.153  17.637  0.00  0.00    +0.000 C 
ATOM     10  O   UNL     1       3.785   1.551  18.154  0.00  0.00    +0.000 OA
ATOM     11  C   UNL     1       4.097   2.109  19.445  0.00  0.00    +0.000 C 
ATOM     12  C   UNL     1       4.347   3.624  19.330  0.00  0.00    +0.000 C 
ENDBRANCH   6   7
BRANCH   3  13
ATOM     13  S   UNL     1       0.839   9.096  21.545  0.00  0.00    +0.000 S 
ATOM     14  O   UNL     1      -0.463   8.740  22.066  0.00  0.00    +0.000 OA
ATOM     15  O   UNL     1       1.903   9.541  22.415  0.00  0.00    +0.000 OA
BRANCH  13  16
ATOM     16  N   UNL     1       0.615  10.274  20.314  0.00  0.00    +0.000 NA
ATOM     17  C   UNL     1      -0.696  10.212  19.618  0.00  0.00    +0.000 C 
ATOM     18  C   UNL     1      -0.743  11.161  18.424  0.00  0.00    +0.000 C 
ATOM     19  C   UNL     1      -0.371  12.578  18.837  0.00  0.00    +0.000 C 
ATOM     20  C   UNL     1       1.020  12.573  19.450  0.00  0.00    +0.000 C 
ATOM     21  C   UNL     1       1.085  11.641  20.656  0.00  0.00    +0.000 C 
ENDBRANCH  13  16
ENDBRANCH   3  13
BRANCH   1  22
ATOM     22  C   UNL     1       3.676   7.055  17.706  0.00  0.00    +0.000 C 
ATOM     23  O   UNL     1       3.390   7.711  16.721  0.00  0.00    +0.000 OA
BRANCH  22  24
ATOM     24  O   UNL     1       4.894   6.500  17.943  0.00  0.00    +0.000 OA
BRANCH  24  25
ATOM     25  C   UNL     1       5.701   6.311  16.766  0.00  0.00    +0.000 C 
BRANCH  25  27
ATOM     26  N   UNL     1       7.667   4.632  17.253  0.00  0.00    +0.000 NA
ATOM     27  C   UNL     1       6.796   5.368  17.033  0.00  0.00    +0.000 C 
ENDBRANCH  25  27
ENDBRANCH  24  25
ENDBRANCH  22  24
ENDBRANCH   1  22
TORSDOF 7
ENDMDL
MODEL 9
REMARK VINA RESULT:      -6.7      2.202      7.560
REMARK  Name = 
REMARK  7 active torsions:
REMARK  status: ('A' for Active; 'I' for Inactive)
REMARK    1  A    between atoms: C_2  and  C_3
REMARK    2  A    between atoms: C_3  and  O_4
REMARK    3  A    between atoms: O_4  and  C_5
REMARK    4  A    between atoms: C_5  and  C_7
REMARK    5  A    between atoms: C_9  and  S_10
REMARK    6  A    between atoms: S_10  and  N_13
REMARK    7  A    between atoms: C_21  and  N_22
REMARK                            x       y       z     vdW  Elec       q    Type
REMARK                         _______ _______ _______ _____ _____    ______ ____
ROOT
ATOM      1  C   UNL     1       2.463   6.496  19.723  0.00  0.00    +0.000 A 
ATOM      2  C   UNL     1       1.767   7.487  20.451  0.00  0.00    +0.000 A 
ATOM      3  C   UNL     1       1.480   8.720  19.868  0.00  0.00    +0.000 A 
ATOM      4  C   UNL     1       1.974   9.016  18.604  0.00  0.00    +0.000 A 
ATOM      5  C   UNL     1       2.668   8.034  17.890  0.00  0.00    +0.000 A 
ATOM      6  C   UNL     1       2.905   6.732  18.394  0.00  0.00    +0.000 A 
ENDROOT
BRANCH   6   7
ATOM      7  N   UNL     1       3.504   5.797  17.569  0.00  0.00    +0.000 N 
ATOM      8  C   UNL     1       2.877   4.497  17.258  0.00  0.00    +0.000 C 
ATOM      9  C   UNL     1       3.929   3.374  17.356  0.00  0.00    +0.000 C 
ATOM     10  O   UNL     1       5.085   3.639  16.544  0.00  0.00    +0.000 OA
ATOM     11  C   UNL     1       5.694   4.880  16.947  0.00  0.00    +0.000 C 
ATOM     12  C   UNL     1       4.710   6.048  16.756  0.00  0.00    +0.000 C 
ENDBRANCH   6   7
BRANCH   3  13
ATOM     13  S   UNL     1       0.507   9.925  20.755  0.00  0.00    +0.000 S 
ATOM     14  O   UNL     1      -0.841   9.407  20.828  0.00  0.00    +0.000 OA
ATOM     15  O   UNL     1       1.245  10.274  21.947  0.00  0.00    +0.000 OA
BRANCH  13  16
ATOM     16  N   UNL     1       0.498  11.285  19.704  0.00  0.00    +0.000 NA
ATOM     17  C   UNL     1      -0.847  11.708  19.237  0.00  0.00    +0.000 C 
ATOM     18  C   UNL     1      -0.756  12.793  18.170  0.00  0.00    +0.000 C 
ATOM     19  C   UNL     1       0.086  13.966  18.652  0.00  0.00    +0.000 C 
ATOM     20  C   UNL     1       1.476  13.468  19.018  0.00  0.00    +0.000 C 
ATOM     21  C   UNL     1       1.408  12.391  20.096  0.00  0.00    +0.000 C 
ENDBRANCH  13  16
ENDBRANCH   3  13
BRANCH   1  22
ATOM     22  C   UNL     1       2.550   5.167  20.383  0.00  0.00    +0.000 C 
ATOM     23  O   UNL     1       3.580   4.561  20.619  0.00  0.00    +0.000 OA
BRANCH  22  24
ATOM     24  O   UNL     1       1.301   4.721  20.680  0.00  0.00    +0.000 OA
BRANCH  24  25
ATOM     25  C   UNL     1       1.194   3.291  20.806  0.00  0.00    +0.000 C 
BRANCH  25  27
ATOM     26  N   UNL     1       0.400   2.219  18.538  0.00  0.00    +0.000 NA
ATOM     27  C   UNL     1       0.743   2.691  19.542  0.00  0.00    +0.000 C 
ENDBRANCH  25  27
ENDBRANCH  24  25
ENDBRANCH  22  24
ENDBRANCH   1  22
TORSDOF 7
ENDMDL
