MODEL 1
REMARK VINA RESULT:      -8.8      0.000      0.000
REMARK  Name = 
REMARK  3 active torsions:
REMARK  status: ('A' for Active; 'I' for Inactive)
REMARK    1  A    between atoms: C_1  and  C_2
REMARK    2  A    between atoms: C_2  and  N_3
REMARK    3  A    between atoms: C_7  and  N_8
REMARK                            x       y       z     vdW  Elec       q    Type
REMARK                         _______ _______ _______ _____ _____    ______ ____
ROOT
ATOM      1  N   UNL     1       2.058   7.350  19.573  0.00  0.00    +0.000 N 
ATOM      2  C   UNL     1       1.454   6.331  20.303  0.00  0.00    +0.000 C 
ATOM      3  O   UNL     1       0.599   6.507  21.167  0.00  0.00    +0.000 OA
ATOM      4  C   UNL     1       1.868   4.953  20.000  0.00  0.00    +0.000 A 
ATOM      5  C   UNL     1       1.333   3.908  20.773  0.00  0.00    +0.000 A 
ATOM      6  C   UNL     1       1.690   2.594  20.513  0.00  0.00    +0.000 A 
ATOM      7  C   UNL     1       2.581   2.325  19.481  0.00  0.00    +0.000 A 
ATOM      8  C   UNL     1       3.125   3.363  18.703  0.00  0.00    +0.000 A 
ATOM      9  C   UNL     1       4.016   3.071  17.669  0.00  0.00    +0.000 A 
ATOM     10  C   UNL     1       4.581   4.076  16.876  0.00  0.00    +0.000 A 
ATOM     11  C   UNL     1       5.470   3.707  15.848  0.00  0.00    +0.000 A 
ATOM     12  C   UNL     1       6.066   4.660  15.029  0.00  0.00    +0.000 A 
ATOM     13  C   UNL     1       5.784   5.997  15.230  0.00  0.00    +0.000 A 
ATOM     14  C   UNL     1       4.904   6.376  16.247  0.00  0.00    +0.000 A 
ATOM     15  C   UNL     1       4.260   5.438  17.107  0.00  0.00    +0.000 A 
ATOM     16  C   UNL     1       3.335   5.736  18.170  0.00  0.00    +0.000 A 
ATOM     17  C   UNL     1       2.775   4.706  18.959  0.00  0.00    +0.000 A 
ATOM     18  C   UNL     1       2.924   7.142  18.492  0.00  0.00    +0.000 C 
ATOM     19  O   UNL     1       3.329   8.082  17.815  0.00  0.00    +0.000 OA
ENDROOT
BRANCH   1  24
ATOM     20  N   UNL     1       0.215  10.705  19.319  0.00  0.00    +0.000 NA
ATOM     21  C   UNL     1      -0.257  10.740  20.710  0.00  0.00    +0.000 C 
ATOM     22  C   UNL     1       0.867  10.340  21.664  0.00  0.00    +0.000 C 
ATOM     23  C   UNL     1       1.359   8.929  21.380  0.00  0.00    +0.000 C 
ATOM     24  C   UNL     1       1.700   8.752  19.891  0.00  0.00    +0.000 C 
ATOM     25  C   UNL     1       0.600   9.320  18.957  0.00  0.00    +0.000 C 
BRANCH  20  27
ATOM     26  C   UNL     1      -1.682  10.115  17.793  0.00  0.00    +0.000 C 
ATOM     27  C   UNL     1      -0.788  11.210  18.367  0.00  0.00    +0.000 C 
ENDBRANCH  20  27
ENDBRANCH   1  24
TORSDOF 2
ENDMDL
MODEL 2
REMARK VINA RESULT:      -8.3      2.507      6.622
REMARK  Name = 
REMARK  3 active torsions:
REMARK  status: ('A' for Active; 'I' for Inactive)
REMARK    1  A    between atoms: C_1  and  C_2
REMARK    2  A    between atoms: C_2  and  N_3
REMARK    3  A    between atoms: C_7  and  N_8
REMARK                            x       y       z     vdW  Elec       q    Type
REMARK                         _______ _______ _______ _____ _____    ______ ____
ROOT
ATOM      1  N   UNL     1       4.768   4.559  17.490  0.00  0.00    +0.000 N 
ATOM      2  C   UNL     1       4.554   3.588  18.462  0.00  0.00    +0.000 C 
ATOM      3  O   UNL     1       5.138   2.508  18.508  0.00  0.00    +0.000 OA
ATOM      4  C   UNL     1       3.569   3.893  19.511  0.00  0.00    +0.000 A 
ATOM      5  C   UNL     1       3.275   2.902  20.462  0.00  0.00    +0.000 A 
ATOM      6  C   UNL     1       2.360   3.154  21.473  0.00  0.00    +0.000 A 
ATOM      7  C   UNL     1       1.738   4.396  21.531  0.00  0.00    +0.000 A 
ATOM      8  C   UNL     1       2.023   5.394  20.581  0.00  0.00    +0.000 A 
ATOM      9  C   UNL     1       1.391   6.637  20.659  0.00  0.00    +0.000 A 
ATOM     10  C   UNL     1       1.643   7.653  19.732  0.00  0.00    +0.000 A 
ATOM     11  C   UNL     1       0.971   8.882  19.874  0.00  0.00    +0.000 A 
ATOM     12  C   UNL     1       1.178   9.928  18.983  0.00  0.00    +0.000 A 
ATOM     13  C   UNL     1       2.058   9.759  17.932  0.00  0.00    +0.000 A 
ATOM     14  C   UNL     1       2.732   8.544  17.779  0.00  0.00    +0.000 A 
ATOM     15  C   UNL     1       2.561   7.444  18.671  0.00  0.00    +0.000 A 
ATOM     16  C   UNL     1       3.218   6.164  18.597  0.00  0.00    +0.000 A 
ATOM     17  C   UNL     1       2.949   5.151  19.544  0.00  0.00    +0.000 A 
ATOM     18  C   UNL     1       4.211   5.844  17.519  0.00  0.00    +0.000 C 
ATOM     19  O   UNL     1       4.533   6.693  16.695  0.00  0.00    +0.000 OA
ENDROOT
BRANCH   1  24
ATOM     20  N   UNL     1       5.981   3.853  13.920  0.00  0.00    +0.000 NA
ATOM     21  C   UNL     1       6.949   4.957  13.852  0.00  0.00    +0.000 C 
ATOM     22  C   UNL     1       7.768   5.026  15.141  0.00  0.00    +0.000 C 
ATOM     23  C   UNL     1       6.877   5.267  16.351  0.00  0.00    +0.000 C 
ATOM     24  C   UNL     1       5.716   4.260  16.392  0.00  0.00    +0.000 C 
ATOM     25  C   UNL     1       5.016   4.102  15.017  0.00  0.00    +0.000 C 
BRANCH  20  27
ATOM     26  C   UNL     1       5.841   2.542  11.790  0.00  0.00    +0.000 C 
ATOM     27  C   UNL     1       5.258   3.657  12.653  0.00  0.00    +0.000 C 
ENDBRANCH  20  27
ENDBRANCH   1  24
TORSDOF 2
ENDMDL
MODEL 3
REMARK VINA RESULT:      -8.0      2.854      7.359
REMARK  Name = 
REMARK  3 active torsions:
REMARK  status: ('A' for Active; 'I' for Inactive)
REMARK    1  A    between atoms: C_1  and  C_2
REMARK    2  A    between atoms: C_2  and  N_3
REMARK    3  A    between atoms: C_7  and  N_8
REMARK                            x       y       z     vdW  Elec       q    Type
REMARK                         _______ _______ _______ _____ _____    ______ ____
ROOT
ATOM      1  N   UNL     1       4.929   5.107  16.513  0.00  0.00    +0.000 N 
ATOM      2  C   UNL     1       4.537   6.435  16.386  0.00  0.00    +0.000 C 
ATOM      3  O   UNL     1       4.870   7.174  15.463  0.00  0.00    +0.000 OA
ATOM      4  C   UNL     1       3.651   6.977  17.428  0.00  0.00    +0.000 A 
ATOM      5  C   UNL     1       3.300   8.336  17.368  0.00  0.00    +0.000 A 
ATOM      6  C   UNL     1       2.458   8.883  18.325  0.00  0.00    +0.000 A 
ATOM      7  C   UNL     1       1.969   8.070  19.341  0.00  0.00    +0.000 A 
ATOM      8  C   UNL     1       2.317   6.709  19.412  0.00  0.00    +0.000 A 
ATOM      9  C   UNL     1       1.812   5.909  20.439  0.00  0.00    +0.000 A 
ATOM     10  C   UNL     1       2.137   4.553  20.547  0.00  0.00    +0.000 A 
ATOM     11  C   UNL     1       1.588   3.807  21.606  0.00  0.00    +0.000 A 
ATOM     12  C   UNL     1       1.877   2.456  21.768  0.00  0.00    +0.000 A 
ATOM     13  C   UNL     1       2.724   1.833  20.872  0.00  0.00    +0.000 A 
ATOM     14  C   UNL     1       3.276   2.563  19.815  0.00  0.00    +0.000 A 
ATOM     15  C   UNL     1       3.004   3.946  19.601  0.00  0.00    +0.000 A 
ATOM     16  C   UNL     1       3.518   4.772  18.539  0.00  0.00    +0.000 A 
ATOM     17  C   UNL     1       3.176   6.140  18.448  0.00  0.00    +0.000 A 
ATOM     18  C   UNL     1       4.434   4.226  17.484  0.00  0.00    +0.000 C 
ATOM     19  O   UNL     1       4.731   3.036  17.469  0.00  0.00    +0.000 OA
ENDROOT
BRANCH   1  24
ATOM     20  N   UNL     1       6.106   3.621  13.179  0.00  0.00    +0.000 NA
ATOM     21  C   UNL     1       7.113   4.650  12.885  0.00  0.00    +0.000 C 
ATOM     22  C   UNL     1       7.937   4.959  14.134  0.00  0.00    +0.000 C 
ATOM     23  C   UNL     1       7.059   5.482  15.262  0.00  0.00    +0.000 C 
ATOM     24  C   UNL     1       5.863   4.548  15.508  0.00  0.00    +0.000 C 
ATOM     25  C   UNL     1       5.153   4.129  14.194  0.00  0.00    +0.000 C 
BRANCH  20  27
ATOM     26  C   UNL     1       5.858   1.852  11.422  0.00  0.00    +0.000 C 
ATOM     27  C   UNL     1       5.372   3.188  11.978  0.00  0.00    +0.000 C 
ENDBRANCH  20  27
ENDBRANCH   1  24
TORSDOF 2
ENDMDL
MODEL 4
REMARK VINA RESULT:      -8.0      1.481      4.257
REMARK  Name = 
REMARK  3 active torsions:
REMARK  status: ('A' for Active; 'I' for Inactive)
REMARK    1  A    between atoms: C_1  and  C_2
REMARK    2  A    between atoms: C_2  and  N_3
REMARK    3  A    between atoms: C_7  and  N_8
REMARK                            x       y       z     vdW  Elec       q    Type
REMARK                         _______ _______ _______ _____ _____    ______ ____
ROOT
ATOM      1  N   UNL     1       1.854   8.248  18.938  0.00  0.00    +0.000 N 
ATOM      2  C   UNL     1       2.699   8.437  17.849  0.00  0.00    +0.000 C 
ATOM      3  O   UNL     1       2.790   9.483  17.213  0.00  0.00    +0.000 OA
ATOM      4  C   UNL     1       3.548   7.303  17.452  0.00  0.00    +0.000 A 
ATOM      5  C   UNL     1       4.355   7.438  16.311  0.00  0.00    +0.000 A 
ATOM      6  C   UNL     1       5.177   6.396  15.909  0.00  0.00    +0.000 A 
ATOM      7  C   UNL     1       5.190   5.220  16.649  0.00  0.00    +0.000 A 
ATOM      8  C   UNL     1       4.383   5.073  17.792  0.00  0.00    +0.000 A 
ATOM      9  C   UNL     1       4.414   3.884  18.523  0.00  0.00    +0.000 A 
ATOM     10  C   UNL     1       3.623   3.697  19.662  0.00  0.00    +0.000 A 
ATOM     11  C   UNL     1       3.708   2.473  20.352  0.00  0.00    +0.000 A 
ATOM     12  C   UNL     1       2.945   2.227  21.488  0.00  0.00    +0.000 A 
ATOM     13  C   UNL     1       2.083   3.202  21.949  0.00  0.00    +0.000 A 
ATOM     14  C   UNL     1       1.989   4.422  21.273  0.00  0.00    +0.000 A 
ATOM     15  C   UNL     1       2.755   4.726  20.110  0.00  0.00    +0.000 A 
ATOM     16  C   UNL     1       2.731   5.954  19.358  0.00  0.00    +0.000 A 
ATOM     17  C   UNL     1       3.538   6.123  18.210  0.00  0.00    +0.000 A 
ATOM     18  C   UNL     1       1.855   7.107  19.750  0.00  0.00    +0.000 C 
ATOM     19  O   UNL     1       1.168   7.051  20.765  0.00  0.00    +0.000 OA
ENDROOT
BRANCH   1  24
ATOM     20  N   UNL     1       0.800  11.722  20.176  0.00  0.00    +0.000 NA
ATOM     21  C   UNL     1      -0.000  12.082  18.997  0.00  0.00    +0.000 C 
ATOM     22  C   UNL     1      -0.887  10.910  18.578  0.00  0.00    +0.000 C 
ATOM     23  C   UNL     1      -0.056   9.689  18.214  0.00  0.00    +0.000 C 
ATOM     24  C   UNL     1       0.950   9.354  19.328  0.00  0.00    +0.000 C 
ATOM     25  C   UNL     1       1.713  10.605  19.837  0.00  0.00    +0.000 C 
BRANCH  20  27
ATOM     26  C   UNL     1       2.427  13.552  19.646  0.00  0.00    +0.000 C 
ATOM     27  C   UNL     1       1.573  12.857  20.704  0.00  0.00    +0.000 C 
ENDBRANCH  20  27
ENDBRANCH   1  24
TORSDOF 2
ENDMDL
MODEL 5
REMARK VINA RESULT:      -7.8      1.096      3.911
REMARK  Name = 
REMARK  3 active torsions:
REMARK  status: ('A' for Active; 'I' for Inactive)
REMARK    1  A    between atoms: C_1  and  C_2
REMARK    2  A    between atoms: C_2  and  N_3
REMARK    3  A    between atoms: C_7  and  N_8
REMARK                            x       y       z     vdW  Elec       q    Type
REMARK                         _______ _______ _______ _____ _____    ______ ____
ROOT
ATOM      1  N   UNL     1       2.136   8.268  18.915  0.00  0.00    +0.000 N 
ATOM      2  C   UNL     1       2.964   8.384  17.803  0.00  0.00    +0.000 C 
ATOM      3  O   UNL     1       3.124   9.418  17.159  0.00  0.00    +0.000 OA
ATOM      4  C   UNL     1       3.703   7.182  17.387  0.00  0.00    +0.000 A 
ATOM      5  C   UNL     1       4.486   7.247  16.223  0.00  0.00    +0.000 A 
ATOM      6  C   UNL     1       5.207   6.138  15.803  0.00  0.00    +0.000 A 
ATOM      7  C   UNL     1       5.142   4.967  16.548  0.00  0.00    +0.000 A 
ATOM      8  C   UNL     1       4.358   4.890  17.713  0.00  0.00    +0.000 A 
ATOM      9  C   UNL     1       4.309   3.704  18.449  0.00  0.00    +0.000 A 
ATOM     10  C   UNL     1       3.538   3.586  19.610  0.00  0.00    +0.000 A 
ATOM     11  C   UNL     1       3.540   2.361  20.303  0.00  0.00    +0.000 A 
ATOM     12  C   UNL     1       2.791   2.182  21.461  0.00  0.00    +0.000 A 
ATOM     13  C   UNL     1       2.027   3.227  21.941  0.00  0.00    +0.000 A 
ATOM     14  C   UNL     1       2.016   4.449  21.262  0.00  0.00    +0.000 A 
ATOM     15  C   UNL     1       2.773   4.686  20.077  0.00  0.00    +0.000 A 
ATOM     16  C   UNL     1       2.830   5.910  19.321  0.00  0.00    +0.000 A 
ATOM     17  C   UNL     1       3.616   6.008  18.150  0.00  0.00    +0.000 A 
ATOM     18  C   UNL     1       2.065   7.133  19.732  0.00  0.00    +0.000 C 
ATOM     19  O   UNL     1       1.404   7.137  20.766  0.00  0.00    +0.000 OA
ENDROOT
BRANCH   1  24
ATOM     20  N   UNL     1      -0.687  10.863  18.844  0.00  0.00    +0.000 NA
ATOM     21  C   UNL     1      -1.168  10.622  20.212  0.00  0.00    +0.000 C 
ATOM     22  C   UNL     1       0.011  10.522  21.180  0.00  0.00    +0.000 C 
ATOM     23  C   UNL     1       0.937   9.374  20.808  0.00  0.00    +0.000 C 
ATOM     24  C   UNL     1       1.340   9.447  19.326  0.00  0.00    +0.000 C 
ATOM     25  C   UNL     1       0.130   9.712  18.392  0.00  0.00    +0.000 C 
BRANCH  20  27
ATOM     26  C   UNL     1      -2.044   9.921  16.960  0.00  0.00    +0.000 C 
ATOM     27  C   UNL     1      -1.785  11.101  17.893  0.00  0.00    +0.000 C 
ENDBRANCH  20  27
ENDBRANCH   1  24
TORSDOF 2
ENDMDL
MODEL 6
REMARK VINA RESULT:      -7.7      2.270      7.865
REMARK  Name = 
REMARK  3 active torsions:
REMARK  status: ('A' for Active; 'I' for Inactive)
REMARK    1  A    between atoms: C_1  and  C_2
REMARK    2  A    between atoms: C_2  and  N_3
REMARK    3  A    between atoms: C_7  and  N_8
REMARK                            x       y       z     vdW  Elec       q    Type
REMARK                         _______ _______ _______ _____ _____    ______ ____
ROOT
ATOM      1  N   UNL     1       0.837   9.462  19.713  0.00  0.00    +0.000 N 
ATOM      2  C   UNL     1       0.770  10.148  20.922  0.00  0.00    +0.000 C 
ATOM      3  O   UNL     1       1.629  10.098  21.798  0.00  0.00    +0.000 OA
ATOM      4  C   UNL     1      -0.408  10.999  21.146  0.00  0.00    +0.000 A 
ATOM      5  C   UNL     1      -0.541  11.644  22.387  0.00  0.00    +0.000 A 
ATOM      6  C   UNL     1      -1.632  12.464  22.635  0.00  0.00    +0.000 A 
ATOM      7  C   UNL     1      -2.589  12.637  21.642  0.00  0.00    +0.000 A 
ATOM      8  C   UNL     1      -2.466  11.993  20.397  0.00  0.00    +0.000 A 
ATOM      9  C   UNL     1      -3.437  12.184  19.412  0.00  0.00    +0.000 A 
ATOM     10  C   UNL     1      -3.354  11.558  18.163  0.00  0.00    +0.000 A 
ATOM     11  C   UNL     1      -4.368  11.799  17.216  0.00  0.00    +0.000 A 
ATOM     12  C   UNL     1      -4.342  11.204  15.960  0.00  0.00    +0.000 A 
ATOM     13  C   UNL     1      -3.302  10.355  15.634  0.00  0.00    +0.000 A 
ATOM     14  C   UNL     1      -2.290  10.108  16.565  0.00  0.00    +0.000 A 
ATOM     15  C   UNL     1      -2.265  10.700  17.862  0.00  0.00    +0.000 A 
ATOM     16  C   UNL     1      -1.262  10.511  18.877  0.00  0.00    +0.000 A 
ATOM     17  C   UNL     1      -1.364  11.153  20.132  0.00  0.00    +0.000 A 
ATOM     18  C   UNL     1      -0.067   9.631  18.657  0.00  0.00    +0.000 C 
ATOM     19  O   UNL     1       0.115   9.085  17.574  0.00  0.00    +0.000 OA
ENDROOT
BRANCH   1  24
ATOM     20  N   UNL     1       2.896   6.226  19.775  0.00  0.00    +0.000 NA
ATOM     21  C   UNL     1       3.105   6.135  18.323  0.00  0.00    +0.000 C 
ATOM     22  C   UNL     1       3.491   7.500  17.754  0.00  0.00    +0.000 C 
ATOM     23  C   UNL     1       2.400   8.531  17.999  0.00  0.00    +0.000 C 
ATOM     24  C   UNL     1       1.986   8.556  19.480  0.00  0.00    +0.000 C 
ATOM     25  C   UNL     1       1.761   7.136  20.060  0.00  0.00    +0.000 C 
BRANCH  20  27
ATOM     26  C   UNL     1       1.177   4.525  20.429  0.00  0.00    +0.000 C 
ATOM     27  C   UNL     1       2.652   4.913  20.395  0.00  0.00    +0.000 C 
ENDBRANCH  20  27
ENDBRANCH   1  24
TORSDOF 2
ENDMDL
MODEL 7
REMARK VINA RESULT:      -7.5      1.162      1.747
REMARK  Name = 
REMARK  3 active torsions:
REMARK  status: ('A' for Active; 'I' for Inactive)
REMARK    1  A    between atoms: C_1  and  C_2
REMARK    2  A    between atoms: C_2  and  N_3
REMARK    3  A    between atoms: C_7  and  N_8
REMARK                            x       y       z     vdW  Elec       q    Type
REMARK                         _______ _______ _______ _____ _____    ______ ____
ROOT
ATOM      1  N   UNL     1       1.938   7.681  19.234  0.00  0.00    +0.000 N 
ATOM      2  C   UNL     1       1.595   6.770  20.228  0.00  0.00    +0.000 C 
ATOM      3  O   UNL     1       0.754   6.974  21.099  0.00  0.00    +0.000 OA
ATOM      4  C   UNL     1       2.286   5.471  20.216  0.00  0.00    +0.000 A 
ATOM      5  C   UNL     1       2.017   4.561  21.251  0.00  0.00    +0.000 A 
ATOM      6  C   UNL     1       2.639   3.321  21.270  0.00  0.00    +0.000 A 
ATOM      7  C   UNL     1       3.530   2.995  20.255  0.00  0.00    +0.000 A 
ATOM      8  C   UNL     1       3.809   3.901  19.216  0.00  0.00    +0.000 A 
ATOM      9  C   UNL     1       4.704   3.552  18.203  0.00  0.00    +0.000 A 
ATOM     10  C   UNL     1       5.011   4.426  17.154  0.00  0.00    +0.000 A 
ATOM     11  C   UNL     1       5.921   4.005  16.166  0.00  0.00    +0.000 A 
ATOM     12  C   UNL     1       6.268   4.830  15.102  0.00  0.00    +0.000 A 
ATOM     13  C   UNL     1       5.712   6.091  15.014  0.00  0.00    +0.000 A 
ATOM     14  C   UNL     1       4.807   6.521  15.989  0.00  0.00    +0.000 A 
ATOM     15  C   UNL     1       4.412   5.710  17.093  0.00  0.00    +0.000 A 
ATOM     16  C   UNL     1       3.483   6.065  18.135  0.00  0.00    +0.000 A 
ATOM     17  C   UNL     1       3.187   5.167  19.185  0.00  0.00    +0.000 A 
ATOM     18  C   UNL     1       2.789   7.395  18.159  0.00  0.00    +0.000 C 
ATOM     19  O   UNL     1       2.958   8.204  17.252  0.00  0.00    +0.000 OA
ENDROOT
BRANCH   1  24
ATOM     20  N   UNL     1       0.250  10.807  20.681  0.00  0.00    +0.000 NA
ATOM     21  C   UNL     1       1.226  11.776  20.163  0.00  0.00    +0.000 C 
ATOM     22  C   UNL     1       1.564  11.464  18.706  0.00  0.00    +0.000 C 
ATOM     23  C   UNL     1       2.173  10.077  18.563  0.00  0.00    +0.000 C 
ATOM     24  C   UNL     1       1.297   9.017  19.251  0.00  0.00    +0.000 C 
ATOM     25  C   UNL     1       0.842   9.449  20.670  0.00  0.00    +0.000 C 
BRANCH  20  27
ATOM     26  C   UNL     1      -0.338   9.923  22.950  0.00  0.00    +0.000 C 
ATOM     27  C   UNL     1      -0.212  11.140  22.038  0.00  0.00    +0.000 C 
ENDBRANCH  20  27
ENDBRANCH   1  24
TORSDOF 2
ENDMDL
MODEL 8
REMARK VINA RESULT:      -7.4      6.355      8.791
REMARK  Name = 
REMARK  3 active torsions:
REMARK  status: ('A' for Active; 'I' for Inactive)
REMARK    1  A    between atoms: C_1  and  C_2
REMARK    2  A    between atoms: C_2  and  N_3
REMARK    3  A    between atoms: C_7  and  N_8
REMARK                            x       y       z     vdW  Elec       q    Type
REMARK                         _______ _______ _______ _____ _____    ______ ____
ROOT
ATOM      1  N   UNL     1      -3.617  13.167  21.028  0.00  0.00    +0.000 N 
ATOM      2  C   UNL     1      -2.519  12.824  21.810  0.00  0.00    +0.000 C 
ATOM      3  O   UNL     1      -2.351  13.187  22.971  0.00  0.00    +0.000 OA
ATOM      4  C   UNL     1      -1.503  11.955  21.197  0.00  0.00    +0.000 A 
ATOM      5  C   UNL     1      -0.345  11.654  21.935  0.00  0.00    +0.000 A 
ATOM      6  C   UNL     1       0.632  10.830  21.396  0.00  0.00    +0.000 A 
ATOM      7  C   UNL     1       0.451  10.309  20.121  0.00  0.00    +0.000 A 
ATOM      8  C   UNL     1      -0.703  10.606  19.373  0.00  0.00    +0.000 A 
ATOM      9  C   UNL     1      -0.867  10.069  18.094  0.00  0.00    +0.000 A 
ATOM     10  C   UNL     1      -1.997  10.344  17.317  0.00  0.00    +0.000 A 
ATOM     11  C   UNL     1      -2.096   9.765  16.038  0.00  0.00    +0.000 A 
ATOM     12  C   UNL     1      -3.193  10.004  15.217  0.00  0.00    +0.000 A 
ATOM     13  C   UNL     1      -4.206  10.830  15.664  0.00  0.00    +0.000 A 
ATOM     14  C   UNL     1      -4.119  11.411  16.933  0.00  0.00    +0.000 A 
ATOM     15  C   UNL     1      -3.020  11.191  17.814  0.00  0.00    +0.000 A 
ATOM     16  C   UNL     1      -2.852  11.738  19.136  0.00  0.00    +0.000 A 
ATOM     17  C   UNL     1      -1.703  11.447  19.905  0.00  0.00    +0.000 A 
ATOM     18  C   UNL     1      -3.879  12.637  19.758  0.00  0.00    +0.000 C 
ATOM     19  O   UNL     1      -4.926  12.890  19.170  0.00  0.00    +0.000 OA
ENDROOT
BRANCH   1  24
ATOM     20  N   UNL     1      -6.559  14.315  23.205  0.00  0.00    +0.000 NA
ATOM     21  C   UNL     1      -5.843  15.401  23.890  0.00  0.00    +0.000 C 
ATOM     22  C   UNL     1      -5.025  16.214  22.889  0.00  0.00    +0.000 C 
ATOM     23  C   UNL     1      -3.987  15.348  22.189  0.00  0.00    +0.000 C 
ATOM     24  C   UNL     1      -4.631  14.082  21.601  0.00  0.00    +0.000 C 
ATOM     25  C   UNL     1      -5.583  13.378  22.601  0.00  0.00    +0.000 C 
BRANCH  20  27
ATOM     26  C   UNL     1      -7.678  12.127  23.692  0.00  0.00    +0.000 C 
ATOM     27  C   UNL     1      -7.468  13.583  24.101  0.00  0.00    +0.000 C 
ENDBRANCH  20  27
ENDBRANCH   1  24
TORSDOF 2
ENDMDL
MODEL 9
REMARK VINA RESULT:      -7.4      3.756      6.453
REMARK  Name = 
REMARK  3 active torsions:
REMARK  status: ('A' for Active; 'I' for Inactive)
REMARK    1  A    between atoms: C_1  and  C_2
REMARK    2  A    between atoms: C_2  and  N_3
REMARK    3  A    between atoms: C_7  and  N_8
REMARK                            x       y       z     vdW  Elec       q    Type
REMARK                         _______ _______ _______ _____ _____    ______ ____
ROOT
ATOM      1  N   UNL     1       0.864  12.977  19.582  0.00  0.00    +0.000 N 
ATOM      2  C   UNL     1       0.063  12.993  20.719  0.00  0.00    +0.000 C 
ATOM      3  O   UNL     1      -0.501  13.991  21.159  0.00  0.00    +0.000 OA
ATOM      4  C   UNL     1      -0.125  11.717  21.427  0.00  0.00    +0.000 A 
ATOM      5  C   UNL     1      -0.865  11.716  22.621  0.00  0.00    +0.000 A 
ATOM      6  C   UNL     1      -1.074  10.532  23.313  0.00  0.00    +0.000 A 
ATOM      7  C   UNL     1      -0.541   9.351  22.810  0.00  0.00    +0.000 A 
ATOM      8  C   UNL     1       0.205   9.342  21.617  0.00  0.00    +0.000 A 
ATOM      9  C   UNL     1       0.729   8.143  21.128  0.00  0.00    +0.000 A 
ATOM     10  C   UNL     1       1.479   8.093  19.948  0.00  0.00    +0.000 A 
ATOM     11  C   UNL     1       1.973   6.849  19.513  0.00  0.00    +0.000 A 
ATOM     12  C   UNL     1       2.728   6.735  18.350  0.00  0.00    +0.000 A 
ATOM     13  C   UNL     1       3.002   7.867  17.608  0.00  0.00    +0.000 A 
ATOM     14  C   UNL     1       2.517   9.109  18.030  0.00  0.00    +0.000 A 
ATOM     15  C   UNL     1       1.732   9.276  19.208  0.00  0.00    +0.000 A 
ATOM     16  C   UNL     1       1.185  10.510  19.711  0.00  0.00    +0.000 A 
ATOM     17  C   UNL     1       0.429  10.539  20.905  0.00  0.00    +0.000 A 
ATOM     18  C   UNL     1       1.388  11.815  19.001  0.00  0.00    +0.000 C 
ATOM     19  O   UNL     1       1.988  11.857  17.932  0.00  0.00    +0.000 OA
ENDROOT
BRANCH   1  24
ATOM     20  N   UNL     1       0.175  16.509  18.256  0.00  0.00    +0.000 NA
ATOM     21  C   UNL     1       1.328  17.155  18.899  0.00  0.00    +0.000 C 
ATOM     22  C   UNL     1       2.582  16.300  18.726  0.00  0.00    +0.000 C 
ATOM     23  C   UNL     1       2.409  14.928  19.360  0.00  0.00    +0.000 C 
ATOM     24  C   UNL     1       1.113  14.256  18.878  0.00  0.00    +0.000 C 
ATOM     25  C   UNL     1      -0.105  15.214  18.919  0.00  0.00    +0.000 C 
BRANCH  20  27
ATOM     26  C   UNL     1      -0.929  18.576  17.369  0.00  0.00    +0.000 C 
ATOM     27  C   UNL     1      -1.031  17.353  18.277  0.00  0.00    +0.000 C 
ENDBRANCH  20  27
ENDBRANCH   1  24
TORSDOF 2
ENDMDL
