MODEL 1
REMARK VINA RESULT:      -7.8      0.000      0.000
REMARK  Name = 
REMARK  8 active torsions:
REMARK  status: ('A' for Active; 'I' for Inactive)
REMARK    1  A    between atoms: C_1  and  C_2
REMARK    2  A    between atoms: C_5  and  N_6
REMARK    3  A    between atoms: N_9  and  C_10
REMARK    4  A    between atoms: C_10  and  C_11
REMARK    5  A    between atoms: C_11  and  O_12
REMARK    6  A    between atoms: O_12  and  C_13
REMARK    7  A    between atoms: C_18  and  S_19
REMARK    8  A    between atoms: S_19  and  C_22
REMARK                            x       y       z     vdW  Elec       q    Type
REMARK                         _______ _______ _______ _____ _____    ______ ____
ROOT
ATOM      1  C   UNL     1       3.829   2.387  19.017  0.00  0.00    +0.000 A 
ATOM      2  N   UNL     1       4.706   1.718  19.771  0.00  0.00    +0.000 NA
ATOM      3  O   UNL     1       4.305   1.918  21.086  0.00  0.00    +0.000 OA
ATOM      4  N   UNL     1       3.121   2.733  21.053  0.00  0.00    +0.000 N 
ATOM      5  O   UNL     1       2.644   3.044  22.166  0.00  0.00    +0.000 OA
ATOM      6  C   UNL     1       2.846   3.001  19.792  0.00  0.00    +0.000 A 
ENDROOT
BRANCH   6   7
ATOM      7  S   UNL     1       1.466   3.843  19.365  0.00  0.00    +0.000 S 
ATOM      8  O   UNL     1       1.192   3.447  17.999  0.00  0.00    +0.000 OA
ATOM      9  O   UNL     1       0.533   3.549  20.432  0.00  0.00    +0.000 OA
BRANCH   7  10
ATOM     10  C   UNL     1       1.822   5.585  19.367  0.00  0.00    +0.000 A 
ATOM     11  C   UNL     1       2.237   6.199  18.180  0.00  0.00    +0.000 A 
ATOM     12  C   UNL     1       2.373   7.589  18.125  0.00  0.00    +0.000 A 
ATOM     13  C   UNL     1       2.093   8.365  19.246  0.00  0.00    +0.000 A 
ATOM     14  C   UNL     1       1.679   7.755  20.433  0.00  0.00    +0.000 A 
ATOM     15  C   UNL     1       1.535   6.365  20.495  0.00  0.00    +0.000 A 
ENDBRANCH   7  10
ENDBRANCH   6   7
BRANCH   1  16
ATOM     16  O   UNL     1       3.964   2.366  17.669  0.00  0.00    +0.000 OA
BRANCH  16  17
ATOM     17  C   UNL     1       4.541   3.548  17.075  0.00  0.00    +0.000 C 
BRANCH  17  18
ATOM     18  C   UNL     1       6.070   3.532  17.185  0.00  0.00    +0.000 C 
BRANCH  18  24
ATOM     19  C   UNL     1       6.960   4.949  14.567  0.00  0.00    +0.000 C 
ATOM     20  C   UNL     1       7.064   5.506  15.942  0.00  0.00    +0.000 A 
ATOM     21  N   UNL     1       7.510   6.721  16.213  0.00  0.00    +0.000 NA
ATOM     22  C   UNL     1       7.393   6.884  17.566  0.00  0.00    +0.000 A 
ATOM     23  C   UNL     1       6.892   5.740  18.123  0.00  0.00    +0.000 A 
ATOM     24  N   UNL     1       6.688   4.846  17.103  0.00  0.00    +0.000 N 
BRANCH  23  25
ATOM     25  N   UNL     1       6.594   5.493  19.482  0.00  0.00    +0.000 N 
ATOM     26  O   UNL     1       5.401   5.456  19.790  0.00  0.00    +0.000 OA
ATOM     27  O   UNL     1       7.558   5.342  20.240  0.00  0.00    +0.000 OA
ENDBRANCH  23  25
ENDBRANCH  18  24
ENDBRANCH  17  18
ENDBRANCH  16  17
ENDBRANCH   1  16
TORSDOF 7
ENDMDL
MODEL 2
REMARK VINA RESULT:      -7.6      2.206      5.228
REMARK  Name = 
REMARK  8 active torsions:
REMARK  status: ('A' for Active; 'I' for Inactive)
REMARK    1  A    between atoms: C_1  and  C_2
REMARK    2  A    between atoms: C_5  and  N_6
REMARK    3  A    between atoms: N_9  and  C_10
REMARK    4  A    between atoms: C_10  and  C_11
REMARK    5  A    between atoms: C_11  and  O_12
REMARK    6  A    between atoms: O_12  and  C_13
REMARK    7  A    between atoms: C_18  and  S_19
REMARK    8  A    between atoms: S_19  and  C_22
REMARK                            x       y       z     vdW  Elec       q    Type
REMARK                         _______ _______ _______ _____ _____    ______ ____
ROOT
ATOM      1  C   UNL     1       6.710   5.081  18.582  0.00  0.00    +0.000 A 
ATOM      2  N   UNL     1       7.818   5.450  19.230  0.00  0.00    +0.000 NA
ATOM      3  O   UNL     1       8.149   6.703  18.731  0.00  0.00    +0.000 OA
ATOM      4  N   UNL     1       7.149   7.054  17.760  0.00  0.00    +0.000 N 
ATOM      5  O   UNL     1       7.316   8.149  17.179  0.00  0.00    +0.000 OA
ATOM      6  C   UNL     1       6.284   6.063  17.688  0.00  0.00    +0.000 A 
ENDROOT
BRANCH   6   7
ATOM      7  S   UNL     1       4.916   6.170  16.733  0.00  0.00    +0.000 S 
ATOM      8  O   UNL     1       5.280   7.067  15.655  0.00  0.00    +0.000 OA
ATOM      9  O   UNL     1       4.563   4.790  16.473  0.00  0.00    +0.000 OA
BRANCH   7  10
ATOM     10  C   UNL     1       3.612   6.938  17.665  0.00  0.00    +0.000 A 
ATOM     11  C   UNL     1       3.159   6.324  18.839  0.00  0.00    +0.000 A 
ATOM     12  C   UNL     1       2.245   6.986  19.663  0.00  0.00    +0.000 A 
ATOM     13  C   UNL     1       1.786   8.255  19.323  0.00  0.00    +0.000 A 
ATOM     14  C   UNL     1       2.236   8.870  18.152  0.00  0.00    +0.000 A 
ATOM     15  C   UNL     1       3.155   8.217  17.324  0.00  0.00    +0.000 A 
ENDBRANCH   7  10
ENDBRANCH   6   7
BRANCH   1  16
ATOM     16  O   UNL     1       6.142   3.885  18.871  0.00  0.00    +0.000 OA
BRANCH  16  17
ATOM     17  C   UNL     1       4.990   3.927  19.740  0.00  0.00    +0.000 C 
BRANCH  17  18
ATOM     18  C   UNL     1       4.225   2.599  19.709  0.00  0.00    +0.000 C 
BRANCH  18  24
ATOM     19  C   UNL     1       2.939   2.115  16.923  0.00  0.00    +0.000 C 
ATOM     20  C   UNL     1       2.215   2.492  18.167  0.00  0.00    +0.000 A 
ATOM     21  N   UNL     1       0.901   2.616  18.246  0.00  0.00    +0.000 NA
ATOM     22  C   UNL     1       0.619   2.905  19.553  0.00  0.00    +0.000 A 
ATOM     23  C   UNL     1       1.782   2.982  20.267  0.00  0.00    +0.000 A 
ATOM     24  N   UNL     1       2.812   2.733  19.396  0.00  0.00    +0.000 N 
BRANCH  23  25
ATOM     25  N   UNL     1       1.938   3.234  21.649  0.00  0.00    +0.000 N 
ATOM     26  O   UNL     1       2.403   4.332  21.962  0.00  0.00    +0.000 OA
ATOM     27  O   UNL     1       1.599   2.328  22.418  0.00  0.00    +0.000 OA
ENDBRANCH  23  25
ENDBRANCH  18  24
ENDBRANCH  17  18
ENDBRANCH  16  17
ENDBRANCH   1  16
TORSDOF 7
ENDMDL
MODEL 3
REMARK VINA RESULT:      -7.6      3.459      6.071
REMARK  Name = 
REMARK  8 active torsions:
REMARK  status: ('A' for Active; 'I' for Inactive)
REMARK    1  A    between atoms: C_1  and  C_2
REMARK    2  A    between atoms: C_5  and  N_6
REMARK    3  A    between atoms: N_9  and  C_10
REMARK    4  A    between atoms: C_10  and  C_11
REMARK    5  A    between atoms: C_11  and  O_12
REMARK    6  A    between atoms: O_12  and  C_13
REMARK    7  A    between atoms: C_18  and  S_19
REMARK    8  A    between atoms: S_19  and  C_22
REMARK                            x       y       z     vdW  Elec       q    Type
REMARK                         _______ _______ _______ _____ _____    ______ ____
ROOT
ATOM      1  C   UNL     1       1.911   4.313  20.059  0.00  0.00    +0.000 A 
ATOM      2  N   UNL     1       0.763   3.641  19.939  0.00  0.00    +0.000 NA
ATOM      3  O   UNL     1       0.997   2.658  18.987  0.00  0.00    +0.000 OA
ATOM      4  N   UNL     1       2.366   2.784  18.569  0.00  0.00    +0.000 N 
ATOM      5  O   UNL     1       2.738   1.990  17.678  0.00  0.00    +0.000 OA
ATOM      6  C   UNL     1       2.905   3.787  19.233  0.00  0.00    +0.000 A 
ENDROOT
BRANCH   6   7
ATOM      7  S   UNL     1       4.527   4.159  19.081  0.00  0.00    +0.000 S 
ATOM      8  O   UNL     1       4.721   5.338  19.899  0.00  0.00    +0.000 OA
ATOM      9  O   UNL     1       5.200   2.914  19.389  0.00  0.00    +0.000 OA
BRANCH   7  10
ATOM     10  C   UNL     1       4.869   4.602  17.393  0.00  0.00    +0.000 A 
ATOM     11  C   UNL     1       4.728   5.937  16.997  0.00  0.00    +0.000 A 
ATOM     12  C   UNL     1       5.137   6.330  15.719  0.00  0.00    +0.000 A 
ATOM     13  C   UNL     1       5.687   5.400  14.842  0.00  0.00    +0.000 A 
ATOM     14  C   UNL     1       5.827   4.066  15.235  0.00  0.00    +0.000 A 
ATOM     15  C   UNL     1       5.425   3.665  16.514  0.00  0.00    +0.000 A 
ENDBRANCH   7  10
ENDBRANCH   6   7
BRANCH   1  16
ATOM     16  O   UNL     1       1.987   5.342  20.936  0.00  0.00    +0.000 OA
BRANCH  16  17
ATOM     17  C   UNL     1       1.135   6.473  20.658  0.00  0.00    +0.000 C 
BRANCH  17  18
ATOM     18  C   UNL     1       1.941   7.776  20.614  0.00  0.00    +0.000 C 
BRANCH  18  24
ATOM     19  C   UNL     1       1.934   9.018  17.766  0.00  0.00    +0.000 C 
ATOM     20  C   UNL     1       1.134   9.490  18.928  0.00  0.00    +0.000 A 
ATOM     21  N   UNL     1       0.266  10.484  18.868  0.00  0.00    +0.000 NA
ATOM     22  C   UNL     1      -0.307  10.571  20.107  0.00  0.00    +0.000 A 
ATOM     23  C   UNL     1       0.243   9.631  20.933  0.00  0.00    +0.000 A 
ATOM     24  N   UNL     1       1.173   8.940  20.200  0.00  0.00    +0.000 N 
BRANCH  23  25
ATOM     25  N   UNL     1      -0.080   9.365  22.283  0.00  0.00    +0.000 N 
ATOM     26  O   UNL     1      -0.930   8.496  22.489  0.00  0.00    +0.000 OA
ATOM     27  O   UNL     1       0.517  10.031  23.136  0.00  0.00    +0.000 OA
ENDBRANCH  23  25
ENDBRANCH  18  24
ENDBRANCH  17  18
ENDBRANCH  16  17
ENDBRANCH   1  16
TORSDOF 7
ENDMDL
MODEL 4
REMARK VINA RESULT:      -7.5      2.437      6.534
REMARK  Name = 
REMARK  8 active torsions:
REMARK  status: ('A' for Active; 'I' for Inactive)
REMARK    1  A    between atoms: C_1  and  C_2
REMARK    2  A    between atoms: C_5  and  N_6
REMARK    3  A    between atoms: N_9  and  C_10
REMARK    4  A    between atoms: C_10  and  C_11
REMARK    5  A    between atoms: C_11  and  O_12
REMARK    6  A    between atoms: O_12  and  C_13
REMARK    7  A    between atoms: C_18  and  S_19
REMARK    8  A    between atoms: S_19  and  C_22
REMARK                            x       y       z     vdW  Elec       q    Type
REMARK                         _______ _______ _______ _____ _____    ______ ____
ROOT
ATOM      1  C   UNL     1       5.079   5.149  18.185  0.00  0.00    +0.000 A 
ATOM      2  N   UNL     1       5.305   4.383  19.256  0.00  0.00    +0.000 NA
ATOM      3  O   UNL     1       6.613   3.933  19.129  0.00  0.00    +0.000 OA
ATOM      4  N   UNL     1       7.147   4.503  17.923  0.00  0.00    +0.000 N 
ATOM      5  O   UNL     1       8.316   4.167  17.634  0.00  0.00    +0.000 OA
ATOM      6  C   UNL     1       6.205   5.241  17.369  0.00  0.00    +0.000 A 
ENDROOT
BRANCH   6   7
ATOM      7  S   UNL     1       6.507   6.148  15.998  0.00  0.00    +0.000 S 
ATOM      8  O   UNL     1       5.352   7.010  15.855  0.00  0.00    +0.000 OA
ATOM      9  O   UNL     1       7.828   6.696  16.226  0.00  0.00    +0.000 OA
BRANCH   7  10
ATOM     10  C   UNL     1       6.562   5.070  14.585  0.00  0.00    +0.000 A 
ATOM     11  C   UNL     1       5.508   4.175  14.368  0.00  0.00    +0.000 A 
ATOM     12  C   UNL     1       5.459   3.430  13.187  0.00  0.00    +0.000 A 
ATOM     13  C   UNL     1       6.453   3.578  12.223  0.00  0.00    +0.000 A 
ATOM     14  C   UNL     1       7.507   4.470  12.438  0.00  0.00    +0.000 A 
ATOM     15  C   UNL     1       7.561   5.223  13.615  0.00  0.00    +0.000 A 
ENDBRANCH   7  10
ENDBRANCH   6   7
BRANCH   1  16
ATOM     16  O   UNL     1       3.869   5.741  18.039  0.00  0.00    +0.000 OA
BRANCH  16  17
ATOM     17  C   UNL     1       2.862   4.960  17.361  0.00  0.00    +0.000 C 
BRANCH  17  18
ATOM     18  C   UNL     1       1.638   4.739  18.257  0.00  0.00    +0.000 C 
BRANCH  18  24
ATOM     19  C   UNL     1       1.622   6.324  20.929  0.00  0.00    +0.000 C 
ATOM     20  C   UNL     1       1.919   4.875  20.774  0.00  0.00    +0.000 A 
ATOM     21  N   UNL     1       2.164   4.061  21.786  0.00  0.00    +0.000 NA
ATOM     22  C   UNL     1       2.322   2.813  21.249  0.00  0.00    +0.000 A 
ATOM     23  C   UNL     1       2.195   2.880  19.889  0.00  0.00    +0.000 A 
ATOM     24  N   UNL     1       1.949   4.191  19.568  0.00  0.00    +0.000 N 
BRANCH  23  25
ATOM     25  N   UNL     1       2.263   1.821  18.957  0.00  0.00    +0.000 N 
ATOM     26  O   UNL     1       1.190   1.370  18.551  0.00  0.00    +0.000 OA
ATOM     27  O   UNL     1       3.394   1.439  18.636  0.00  0.00    +0.000 OA
ENDBRANCH  23  25
ENDBRANCH  18  24
ENDBRANCH  17  18
ENDBRANCH  16  17
ENDBRANCH   1  16
TORSDOF 7
ENDMDL
MODEL 5
REMARK VINA RESULT:      -7.5      1.593      2.123
REMARK  Name = 
REMARK  8 active torsions:
REMARK  status: ('A' for Active; 'I' for Inactive)
REMARK    1  A    between atoms: C_1  and  C_2
REMARK    2  A    between atoms: C_5  and  N_6
REMARK    3  A    between atoms: N_9  and  C_10
REMARK    4  A    between atoms: C_10  and  C_11
REMARK    5  A    between atoms: C_11  and  O_12
REMARK    6  A    between atoms: O_12  and  C_13
REMARK    7  A    between atoms: C_18  and  S_19
REMARK    8  A    between atoms: S_19  and  C_22
REMARK                            x       y       z     vdW  Elec       q    Type
REMARK                         _______ _______ _______ _____ _____    ______ ____
ROOT
ATOM      1  C   UNL     1       4.081   2.620  19.371  0.00  0.00    +0.000 A 
ATOM      2  N   UNL     1       4.836   1.932  20.233  0.00  0.00    +0.000 NA
ATOM      3  O   UNL     1       4.152   1.958  21.441  0.00  0.00    +0.000 OA
ATOM      4  N   UNL     1       2.933   2.689  21.226  0.00  0.00    +0.000 N 
ATOM      5  O   UNL     1       2.206   2.842  22.232  0.00  0.00    +0.000 OA
ATOM      6  C   UNL     1       2.905   3.076  19.967  0.00  0.00    +0.000 A 
ENDROOT
BRANCH   6   7
ATOM      7  S   UNL     1       1.576   3.864  19.329  0.00  0.00    +0.000 S 
ATOM      8  O   UNL     1       1.504   3.425  17.950  0.00  0.00    +0.000 OA
ATOM      9  O   UNL     1       0.513   3.569  20.266  0.00  0.00    +0.000 OA
BRANCH   7  10
ATOM     10  C   UNL     1       1.881   5.616  19.329  0.00  0.00    +0.000 A 
ATOM     11  C   UNL     1       2.237   6.247  18.132  0.00  0.00    +0.000 A 
ATOM     12  C   UNL     1       2.331   7.640  18.080  0.00  0.00    +0.000 A 
ATOM     13  C   UNL     1       2.068   8.403  19.214  0.00  0.00    +0.000 A 
ATOM     14  C   UNL     1       1.713   7.775  20.411  0.00  0.00    +0.000 A 
ATOM     15  C   UNL     1       1.611   6.381  20.470  0.00  0.00    +0.000 A 
ENDBRANCH   7  10
ENDBRANCH   6   7
BRANCH   1  16
ATOM     16  O   UNL     1       4.498   2.758  18.090  0.00  0.00    +0.000 OA
BRANCH  16  17
ATOM     17  C   UNL     1       4.941   4.078  17.709  0.00  0.00    +0.000 C 
BRANCH  17  18
ATOM     18  C   UNL     1       6.466   4.197  17.801  0.00  0.00    +0.000 C 
BRANCH  18  24
ATOM     19  C   UNL     1       8.188   5.484  20.044  0.00  0.00    +0.000 C 
ATOM     20  C   UNL     1       7.752   6.148  18.787  0.00  0.00    +0.000 A 
ATOM     21  N   UNL     1       8.099   7.377  18.444  0.00  0.00    +0.000 NA
ATOM     22  C   UNL     1       7.561   7.599  17.207  0.00  0.00    +0.000 A 
ATOM     23  C   UNL     1       6.857   6.497  16.808  0.00  0.00    +0.000 A 
ATOM     24  N   UNL     1       6.958   5.566  17.810  0.00  0.00    +0.000 N 
BRANCH  23  25
ATOM     25  N   UNL     1       6.168   6.300  15.590  0.00  0.00    +0.000 N 
ATOM     26  O   UNL     1       5.069   6.849  15.480  0.00  0.00    +0.000 OA
ATOM     27  O   UNL     1       6.727   5.590  14.748  0.00  0.00    +0.000 OA
ENDBRANCH  23  25
ENDBRANCH  18  24
ENDBRANCH  17  18
ENDBRANCH  16  17
ENDBRANCH   1  16
TORSDOF 7
ENDMDL
MODEL 6
REMARK VINA RESULT:      -7.3      3.330      6.062
REMARK  Name = 
REMARK  8 active torsions:
REMARK  status: ('A' for Active; 'I' for Inactive)
REMARK    1  A    between atoms: C_1  and  C_2
REMARK    2  A    between atoms: C_5  and  N_6
REMARK    3  A    between atoms: N_9  and  C_10
REMARK    4  A    between atoms: C_10  and  C_11
REMARK    5  A    between atoms: C_11  and  O_12
REMARK    6  A    between atoms: O_12  and  C_13
REMARK    7  A    between atoms: C_18  and  S_19
REMARK    8  A    between atoms: S_19  and  C_22
REMARK                            x       y       z     vdW  Elec       q    Type
REMARK                         _______ _______ _______ _____ _____    ______ ____
ROOT
ATOM      1  C   UNL     1       1.986   4.435  18.842  0.00  0.00    +0.000 A 
ATOM      2  N   UNL     1       0.905   3.653  18.765  0.00  0.00    +0.000 NA
ATOM      3  O   UNL     1       1.385   2.356  18.642  0.00  0.00    +0.000 OA
ATOM      4  N   UNL     1       2.820   2.426  18.672  0.00  0.00    +0.000 N 
ATOM      5  O   UNL     1       3.420   1.337  18.534  0.00  0.00    +0.000 OA
ATOM      6  C   UNL     1       3.164   3.691  18.801  0.00  0.00    +0.000 A 
ENDROOT
BRANCH   6   7
ATOM      7  S   UNL     1       4.764   4.143  18.980  0.00  0.00    +0.000 S 
ATOM      8  O   UNL     1       4.717   5.478  19.540  0.00  0.00    +0.000 OA
ATOM      9  O   UNL     1       5.356   3.043  19.713  0.00  0.00    +0.000 OA
BRANCH   7  10
ATOM     10  C   UNL     1       5.524   4.247  17.376  0.00  0.00    +0.000 A 
ATOM     11  C   UNL     1       4.721   4.158  16.234  0.00  0.00    +0.000 A 
ATOM     12  C   UNL     1       5.277   4.390  14.972  0.00  0.00    +0.000 A 
ATOM     13  C   UNL     1       6.625   4.714  14.850  0.00  0.00    +0.000 A 
ATOM     14  C   UNL     1       7.429   4.803  15.989  0.00  0.00    +0.000 A 
ATOM     15  C   UNL     1       6.879   4.577  17.256  0.00  0.00    +0.000 A 
ENDBRANCH   7  10
ENDBRANCH   6   7
BRANCH   1  16
ATOM     16  O   UNL     1       1.825   5.773  18.978  0.00  0.00    +0.000 OA
BRANCH  16  17
ATOM     17  C   UNL     1       1.442   6.233  20.292  0.00  0.00    +0.000 C 
BRANCH  17  18
ATOM     18  C   UNL     1       2.086   7.586  20.615  0.00  0.00    +0.000 C 
BRANCH  18  24
ATOM     19  C   UNL     1       2.093   8.825  17.766  0.00  0.00    +0.000 C 
ATOM     20  C   UNL     1       1.271   9.284  18.918  0.00  0.00    +0.000 A 
ATOM     21  N   UNL     1       0.386  10.264  18.847  0.00  0.00    +0.000 NA
ATOM     22  C   UNL     1      -0.203  10.341  20.079  0.00  0.00    +0.000 A 
ATOM     23  C   UNL     1       0.353   9.411  20.912  0.00  0.00    +0.000 A 
ATOM     24  N   UNL     1       1.304   8.735  20.191  0.00  0.00    +0.000 N 
BRANCH  23  25
ATOM     25  N   UNL     1       0.018   9.140  22.258  0.00  0.00    +0.000 N 
ATOM     26  O   UNL     1      -0.836   8.272  22.453  0.00  0.00    +0.000 OA
ATOM     27  O   UNL     1       0.610   9.801  23.119  0.00  0.00    +0.000 OA
ENDBRANCH  23  25
ENDBRANCH  18  24
ENDBRANCH  17  18
ENDBRANCH  16  17
ENDBRANCH   1  16
TORSDOF 7
ENDMDL
MODEL 7
REMARK VINA RESULT:      -7.3      3.072      6.822
REMARK  Name = 
REMARK  8 active torsions:
REMARK  status: ('A' for Active; 'I' for Inactive)
REMARK    1  A    between atoms: C_1  and  C_2
REMARK    2  A    between atoms: C_5  and  N_6
REMARK    3  A    between atoms: N_9  and  C_10
REMARK    4  A    between atoms: C_10  and  C_11
REMARK    5  A    between atoms: C_11  and  O_12
REMARK    6  A    between atoms: O_12  and  C_13
REMARK    7  A    between atoms: C_18  and  S_19
REMARK    8  A    between atoms: S_19  and  C_22
REMARK                            x       y       z     vdW  Elec       q    Type
REMARK                         _______ _______ _______ _____ _____    ______ ____
ROOT
ATOM      1  C   UNL     1       5.131   5.031  18.072  0.00  0.00    +0.000 A 
ATOM      2  N   UNL     1       3.898   5.508  18.266  0.00  0.00    +0.000 NA
ATOM      3  O   UNL     1       3.696   6.451  17.267  0.00  0.00    +0.000 OA
ATOM      4  N   UNL     1       4.884   6.481  16.459  0.00  0.00    +0.000 N 
ATOM      5  O   UNL     1       4.886   7.312  15.525  0.00  0.00    +0.000 OA
ATOM      6  C   UNL     1       5.739   5.610  16.959  0.00  0.00    +0.000 A 
ENDROOT
BRANCH   6   7
ATOM      7  S   UNL     1       7.198   5.296  16.206  0.00  0.00    +0.000 S 
ATOM      8  O   UNL     1       7.891   6.568  16.184  0.00  0.00    +0.000 OA
ATOM      9  O   UNL     1       7.731   4.165  16.937  0.00  0.00    +0.000 OA
BRANCH   7  10
ATOM     10  C   UNL     1       6.894   4.809  14.524  0.00  0.00    +0.000 A 
ATOM     11  C   UNL     1       7.744   5.276  13.514  0.00  0.00    +0.000 A 
ATOM     12  C   UNL     1       7.615   4.784  12.212  0.00  0.00    +0.000 A 
ATOM     13  C   UNL     1       6.646   3.829  11.917  0.00  0.00    +0.000 A 
ATOM     14  C   UNL     1       5.796   3.363  12.922  0.00  0.00    +0.000 A 
ATOM     15  C   UNL     1       5.922   3.845  14.229  0.00  0.00    +0.000 A 
ENDBRANCH   7  10
ENDBRANCH   6   7
BRANCH   1  16
ATOM     16  O   UNL     1       5.609   4.074  18.904  0.00  0.00    +0.000 OA
BRANCH  16  17
ATOM     17  C   UNL     1       4.852   3.855  20.114  0.00  0.00    +0.000 C 
BRANCH  17  18
ATOM     18  C   UNL     1       4.178   2.479  20.103  0.00  0.00    +0.000 C 
BRANCH  18  24
ATOM     19  C   UNL     1       1.921   2.910  22.195  0.00  0.00    +0.000 C 
ATOM     20  C   UNL     1       1.734   2.735  20.729  0.00  0.00    +0.000 A 
ATOM     21  N   UNL     1       0.560   2.798  20.124  0.00  0.00    +0.000 NA
ATOM     22  C   UNL     1       0.807   2.655  18.787  0.00  0.00    +0.000 A 
ATOM     23  C   UNL     1       2.148   2.478  18.584  0.00  0.00    +0.000 A 
ATOM     24  N   UNL     1       2.753   2.515  19.814  0.00  0.00    +0.000 N 
BRANCH  23  25
ATOM     25  N   UNL     1       2.828   2.318  17.356  0.00  0.00    +0.000 N 
ATOM     26  O   UNL     1       2.484   3.059  16.432  0.00  0.00    +0.000 OA
ATOM     27  O   UNL     1       3.703   1.447  17.318  0.00  0.00    +0.000 OA
ENDBRANCH  23  25
ENDBRANCH  18  24
ENDBRANCH  17  18
ENDBRANCH  16  17
ENDBRANCH   1  16
TORSDOF 7
ENDMDL
MODEL 8
REMARK VINA RESULT:      -7.3      3.019      6.546
REMARK  Name = 
REMARK  8 active torsions:
REMARK  status: ('A' for Active; 'I' for Inactive)
REMARK    1  A    between atoms: C_1  and  C_2
REMARK    2  A    between atoms: C_5  and  N_6
REMARK    3  A    between atoms: N_9  and  C_10
REMARK    4  A    between atoms: C_10  and  C_11
REMARK    5  A    between atoms: C_11  and  O_12
REMARK    6  A    between atoms: O_12  and  C_13
REMARK    7  A    between atoms: C_18  and  S_19
REMARK    8  A    between atoms: S_19  and  C_22
REMARK                            x       y       z     vdW  Elec       q    Type
REMARK                         _______ _______ _______ _____ _____    ______ ____
ROOT
ATOM      1  C   UNL     1       4.582   4.851  17.042  0.00  0.00    +0.000 A 
ATOM      2  N   UNL     1       3.573   5.554  17.564  0.00  0.00    +0.000 NA
ATOM      3  O   UNL     1       4.068   6.836  17.764  0.00  0.00    +0.000 OA
ATOM      4  N   UNL     1       5.430   6.845  17.306  0.00  0.00    +0.000 N 
ATOM      5  O   UNL     1       6.045   7.924  17.449  0.00  0.00    +0.000 OA
ATOM      6  C   UNL     1       5.721   5.636  16.867  0.00  0.00    +0.000 A 
ENDROOT
BRANCH   6   7
ATOM      7  S   UNL     1       7.195   5.302  16.154  0.00  0.00    +0.000 S 
ATOM      8  O   UNL     1       7.915   6.560  16.171  0.00  0.00    +0.000 OA
ATOM      9  O   UNL     1       7.683   4.151  16.884  0.00  0.00    +0.000 OA
BRANCH   7  10
ATOM     10  C   UNL     1       6.933   4.845  14.456  0.00  0.00    +0.000 A 
ATOM     11  C   UNL     1       7.745   5.409  13.465  0.00  0.00    +0.000 A 
ATOM     12  C   UNL     1       7.656   4.949  12.148  0.00  0.00    +0.000 A 
ATOM     13  C   UNL     1       6.766   3.930  11.820  0.00  0.00    +0.000 A 
ATOM     14  C   UNL     1       5.955   3.366  12.808  0.00  0.00    +0.000 A 
ATOM     15  C   UNL     1       6.041   3.817  14.129  0.00  0.00    +0.000 A 
ENDBRANCH   7  10
ENDBRANCH   6   7
BRANCH   1  16
ATOM     16  O   UNL     1       4.388   3.547  16.729  0.00  0.00    +0.000 OA
BRANCH  16  17
ATOM     17  C   UNL     1       3.055   3.038  16.948  0.00  0.00    +0.000 C 
BRANCH  17  18
ATOM     18  C   UNL     1       3.050   1.945  18.022  0.00  0.00    +0.000 C 
BRANCH  18  24
ATOM     19  C   UNL     1       0.111   2.459  18.890  0.00  0.00    +0.000 C 
ATOM     20  C   UNL     1       1.316   2.607  19.750  0.00  0.00    +0.000 A 
ATOM     21  N   UNL     1       1.271   2.932  21.030  0.00  0.00    +0.000 NA
ATOM     22  C   UNL     1       2.562   2.905  21.481  0.00  0.00    +0.000 A 
ATOM     23  C   UNL     1       3.400   2.583  20.451  0.00  0.00    +0.000 A 
ATOM     24  N   UNL     1       2.623   2.401  19.335  0.00  0.00    +0.000 N 
BRANCH  23  25
ATOM     25  N   UNL     1       4.804   2.423  20.490  0.00  0.00    +0.000 N 
ATOM     26  O   UNL     1       5.470   3.213  19.817  0.00  0.00    +0.000 OA
ATOM     27  O   UNL     1       5.237   1.504  21.192  0.00  0.00    +0.000 OA
ENDBRANCH  23  25
ENDBRANCH  18  24
ENDBRANCH  17  18
ENDBRANCH  16  17
ENDBRANCH   1  16
TORSDOF 7
ENDMDL
MODEL 9
REMARK VINA RESULT:      -7.3      2.448      6.233
REMARK  Name = 
REMARK  8 active torsions:
REMARK  status: ('A' for Active; 'I' for Inactive)
REMARK    1  A    between atoms: C_1  and  C_2
REMARK    2  A    between atoms: C_5  and  N_6
REMARK    3  A    between atoms: N_9  and  C_10
REMARK    4  A    between atoms: C_10  and  C_11
REMARK    5  A    between atoms: C_11  and  O_12
REMARK    6  A    between atoms: O_12  and  C_13
REMARK    7  A    between atoms: C_18  and  S_19
REMARK    8  A    between atoms: S_19  and  C_22
REMARK                            x       y       z     vdW  Elec       q    Type
REMARK                         _______ _______ _______ _____ _____    ______ ____
ROOT
ATOM      1  C   UNL     1       5.455   4.138  17.725  0.00  0.00    +0.000 A 
ATOM      2  N   UNL     1       5.548   3.784  19.010  0.00  0.00    +0.000 NA
ATOM      3  O   UNL     1       6.493   4.634  19.570  0.00  0.00    +0.000 OA
ATOM      4  N   UNL     1       6.934   5.525  18.533  0.00  0.00    +0.000 N 
ATOM      5  O   UNL     1       7.822   6.342  18.859  0.00  0.00    +0.000 OA
ATOM      6  C   UNL     1       6.290   5.214  17.426  0.00  0.00    +0.000 A 
ENDROOT
BRANCH   6   7
ATOM      7  S   UNL     1       6.472   6.117  16.031  0.00  0.00    +0.000 S 
ATOM      8  O   UNL     1       5.274   6.927  15.948  0.00  0.00    +0.000 OA
ATOM      9  O   UNL     1       7.779   6.724  16.177  0.00  0.00    +0.000 OA
BRANCH   7  10
ATOM     10  C   UNL     1       6.493   5.026  14.627  0.00  0.00    +0.000 A 
ATOM     11  C   UNL     1       5.343   4.290  14.318  0.00  0.00    +0.000 A 
ATOM     12  C   UNL     1       5.290   3.546  13.136  0.00  0.00    +0.000 A 
ATOM     13  C   UNL     1       6.374   3.538  12.263  0.00  0.00    +0.000 A 
ATOM     14  C   UNL     1       7.523   4.271  12.571  0.00  0.00    +0.000 A 
ATOM     15  C   UNL     1       7.583   5.022  13.749  0.00  0.00    +0.000 A 
ENDBRANCH   7  10
ENDBRANCH   6   7
BRANCH   1  16
ATOM     16  O   UNL     1       4.590   3.478  16.918  0.00  0.00    +0.000 OA
BRANCH  16  17
ATOM     17  C   UNL     1       3.367   3.026  17.538  0.00  0.00    +0.000 C 
BRANCH  17  18
ATOM     18  C   UNL     1       2.305   4.131  17.536  0.00  0.00    +0.000 C 
BRANCH  18  24
ATOM     19  C   UNL     1       2.930   7.117  18.123  0.00  0.00    +0.000 C 
ATOM     20  C   UNL     1       2.376   6.132  19.091  0.00  0.00    +0.000 A 
ATOM     21  N   UNL     1       2.027   6.434  20.330  0.00  0.00    +0.000 NA
ATOM     22  C   UNL     1       1.508   5.291  20.874  0.00  0.00    +0.000 A 
ATOM     23  C   UNL     1       1.569   4.279  19.957  0.00  0.00    +0.000 A 
ATOM     24  N   UNL     1       2.131   4.795  18.818  0.00  0.00    +0.000 N 
BRANCH  23  25
ATOM     25  N   UNL     1       1.119   2.947  20.102  0.00  0.00    +0.000 N 
ATOM     26  O   UNL     1       1.706   2.252  20.934  0.00  0.00    +0.000 OA
ATOM     27  O   UNL     1       0.180   2.599  19.378  0.00  0.00    +0.000 OA
ENDBRANCH  23  25
ENDBRANCH  18  24
ENDBRANCH  17  18
ENDBRANCH  16  17
ENDBRANCH   1  16
TORSDOF 7
ENDMDL
