MODEL 1
REMARK VINA RESULT:      -7.4      0.000      0.000
REMARK  Name = 
REMARK  1 active torsions:
REMARK  status: ('A' for Active; 'I' for Inactive)
REMARK    1  A    between atoms: O_1  and  C_2
REMARK                            x       y       z     vdW  Elec       q    Type
REMARK                         _______ _______ _______ _____ _____    ______ ____
ROOT
ATOM      1  C   UNL     1       1.289   3.835  19.901  0.00  0.00    +0.000 A 
ATOM      2  C   UNL     1       1.529   5.098  20.427  0.00  0.00    +0.000 A 
ATOM      3  C   UNL     1       2.517   5.902  19.853  0.00  0.00    +0.000 A 
ATOM      4  C   UNL     1       3.275   5.439  18.767  0.00  0.00    +0.000 A 
ATOM      5  C   UNL     1       3.024   4.163  18.240  0.00  0.00    +0.000 A 
ATOM      6  C   UNL     1       2.019   3.367  18.814  0.00  0.00    +0.000 A 
ATOM      7  C   UNL     1       3.802   3.619  17.073  0.00  0.00    +0.000 C 
ATOM      8  C   UNL     1       5.031   4.422  16.628  0.00  0.00    +0.000 C 
ATOM      9  C   UNL     1       5.535   5.493  17.608  0.00  0.00    +0.000 C 
ATOM     10  C   UNL     1       6.545   6.418  16.907  0.00  0.00    +0.000 C 
ATOM     11  C   UNL     1       7.563   6.733  17.979  0.00  0.00    +0.000 C 
ATOM     12  C   UNL     1       7.651   5.426  18.731  0.00  0.00    +0.000 C 
ATOM     13  N   UNL     1       6.301   4.862  18.717  0.00  0.00    +0.000 NA
ATOM     14  C   UNL     1       4.334   6.312  18.145  0.00  0.00    +0.000 C 
ATOM     15  H   UNL     1       5.837   5.059  19.606  0.00  0.00    +0.000 HD
ENDROOT
BRANCH   1  16
ATOM     16  O   UNL     1       0.338   3.013  20.426  0.00  0.00    +0.000 OA
ATOM     17  H   UNL     1       0.504   2.109  20.112  0.00  0.00    +0.000 HD
ENDBRANCH   1  16
TORSDOF 1
ENDMDL
MODEL 2
REMARK VINA RESULT:      -7.3      1.011      1.206
REMARK  Name = 
REMARK  1 active torsions:
REMARK  status: ('A' for Active; 'I' for Inactive)
REMARK    1  A    between atoms: O_1  and  C_2
REMARK                            x       y       z     vdW  Elec       q    Type
REMARK                         _______ _______ _______ _____ _____    ______ ____
ROOT
ATOM      1  C   UNL     1       1.662   3.277  18.277  0.00  0.00    +0.000 A 
ATOM      2  C   UNL     1       1.605   4.473  18.983  0.00  0.00    +0.000 A 
ATOM      3  C   UNL     1       2.617   5.420  18.808  0.00  0.00    +0.000 A 
ATOM      4  C   UNL     1       3.692   5.167  17.943  0.00  0.00    +0.000 A 
ATOM      5  C   UNL     1       3.740   3.959  17.232  0.00  0.00    +0.000 A 
ATOM      6  C   UNL     1       2.712   3.017  17.403  0.00  0.00    +0.000 A 
ATOM      7  C   UNL     1       4.867   3.638  16.286  0.00  0.00    +0.000 C 
ATOM      8  C   UNL     1       6.073   4.585  16.304  0.00  0.00    +0.000 C 
ATOM      9  C   UNL     1       6.164   5.549  17.497  0.00  0.00    +0.000 C 
ATOM     10  C   UNL     1       7.218   6.636  17.220  0.00  0.00    +0.000 C 
ATOM     11  C   UNL     1       7.858   6.879  18.568  0.00  0.00    +0.000 C 
ATOM     12  C   UNL     1       7.881   5.493  19.168  0.00  0.00    +0.000 C 
ATOM     13  N   UNL     1       6.659   4.835  18.705  0.00  0.00    +0.000 NA
ATOM     14  C   UNL     1       4.777   6.195  17.750  0.00  0.00    +0.000 C 
ATOM     15  H   UNL     1       5.949   4.874  19.438  0.00  0.00    +0.000 HD
ENDROOT
BRANCH   1  16
ATOM     16  O   UNL     1       0.701   2.322  18.414  0.00  0.00    +0.000 OA
ATOM     17  H   UNL     1       0.036   2.452  17.718  0.00  0.00    +0.000 HD
ENDBRANCH   1  16
TORSDOF 1
ENDMDL
MODEL 3
REMARK VINA RESULT:      -7.2      2.867      5.383
REMARK  Name = 
REMARK  1 active torsions:
REMARK  status: ('A' for Active; 'I' for Inactive)
REMARK    1  A    between atoms: O_1  and  C_2
REMARK                            x       y       z     vdW  Elec       q    Type
REMARK                         _______ _______ _______ _____ _____    ______ ____
ROOT
ATOM      1  C   UNL     1       6.800   6.282  16.700  0.00  0.00    +0.000 A 
ATOM      2  C   UNL     1       6.899   4.951  16.313  0.00  0.00    +0.000 A 
ATOM      3  C   UNL     1       5.788   4.115  16.451  0.00  0.00    +0.000 A 
ATOM      4  C   UNL     1       4.588   4.602  16.990  0.00  0.00    +0.000 A 
ATOM      5  C   UNL     1       4.497   5.948  17.375  0.00  0.00    +0.000 A 
ATOM      6  C   UNL     1       5.614   6.786  17.220  0.00  0.00    +0.000 A 
ATOM      7  C   UNL     1       3.232   6.524  17.953  0.00  0.00    +0.000 C 
ATOM      8  C   UNL     1       2.122   5.530  18.314  0.00  0.00    +0.000 C 
ATOM      9  C   UNL     1       2.528   4.048  18.370  0.00  0.00    +0.000 C 
ATOM     10  C   UNL     1       1.274   3.158  18.419  0.00  0.00    +0.000 C 
ATOM     11  C   UNL     1       1.667   2.017  19.329  0.00  0.00    +0.000 C 
ATOM     12  C   UNL     1       2.531   2.709  20.357  0.00  0.00    +0.000 C 
ATOM     13  N   UNL     1       3.254   3.756  19.636  0.00  0.00    +0.000 NA
ATOM     14  C   UNL     1       3.389   3.699  17.130  0.00  0.00    +0.000 C 
ATOM     15  H   UNL     1       4.199   3.434  19.419  0.00  0.00    +0.000 HD
ENDROOT
BRANCH   1  16
ATOM     16  O   UNL     1       7.855   7.137  16.586  0.00  0.00    +0.000 OA
ATOM     17  H   UNL     1       7.518   8.047  16.612  0.00  0.00    +0.000 HD
ENDBRANCH   1  16
TORSDOF 1
ENDMDL
MODEL 4
REMARK VINA RESULT:      -7.0      1.079      1.181
REMARK  Name = 
REMARK  1 active torsions:
REMARK  status: ('A' for Active; 'I' for Inactive)
REMARK    1  A    between atoms: O_1  and  C_2
REMARK                            x       y       z     vdW  Elec       q    Type
REMARK                         _______ _______ _______ _____ _____    ______ ____
ROOT
ATOM      1  C   UNL     1       1.791   3.276  21.032  0.00  0.00    +0.000 A 
ATOM      2  C   UNL     1       2.067   4.621  21.246  0.00  0.00    +0.000 A 
ATOM      3  C   UNL     1       2.791   5.332  20.286  0.00  0.00    +0.000 A 
ATOM      4  C   UNL     1       3.254   4.698  19.123  0.00  0.00    +0.000 A 
ATOM      5  C   UNL     1       2.968   3.340  18.914  0.00  0.00    +0.000 A 
ATOM      6  C   UNL     1       2.227   2.636  19.877  0.00  0.00    +0.000 A 
ATOM      7  C   UNL     1       3.434   2.612  17.682  0.00  0.00    +0.000 C 
ATOM      8  C   UNL     1       4.425   3.352  16.776  0.00  0.00    +0.000 C 
ATOM      9  C   UNL     1       5.095   4.599  17.376  0.00  0.00    +0.000 C 
ATOM     10  C   UNL     1       5.795   5.407  16.269  0.00  0.00    +0.000 C 
ATOM     11  C   UNL     1       7.042   5.942  16.936  0.00  0.00    +0.000 C 
ATOM     12  C   UNL     1       7.437   4.799  17.841  0.00  0.00    +0.000 C 
ATOM     13  N   UNL     1       6.184   4.205  18.310  0.00  0.00    +0.000 NA
ATOM     14  C   UNL     1       4.027   5.470  18.086  0.00  0.00    +0.000 C 
ATOM     15  H   UNL     1       5.970   4.550  19.247  0.00  0.00    +0.000 HD
ENDROOT
BRANCH   1  16
ATOM     16  O   UNL     1       1.089   2.539  21.938  0.00  0.00    +0.000 OA
ATOM     17  H   UNL     1       0.198   2.383  21.585  0.00  0.00    +0.000 HD
ENDBRANCH   1  16
TORSDOF 1
ENDMDL
MODEL 5
REMARK VINA RESULT:      -7.0      2.830      5.219
REMARK  Name = 
REMARK  1 active torsions:
REMARK  status: ('A' for Active; 'I' for Inactive)
REMARK    1  A    between atoms: O_1  and  C_2
REMARK                            x       y       z     vdW  Elec       q    Type
REMARK                         _______ _______ _______ _____ _____    ______ ____
ROOT
ATOM      1  C   UNL     1       6.811   5.902  17.143  0.00  0.00    +0.000 A 
ATOM      2  C   UNL     1       7.113   5.747  18.491  0.00  0.00    +0.000 A 
ATOM      3  C   UNL     1       6.307   4.923  19.281  0.00  0.00    +0.000 A 
ATOM      4  C   UNL     1       5.194   4.270  18.732  0.00  0.00    +0.000 A 
ATOM      5  C   UNL     1       4.898   4.431  17.370  0.00  0.00    +0.000 A 
ATOM      6  C   UNL     1       5.721   5.250  16.578  0.00  0.00    +0.000 A 
ATOM      7  C   UNL     1       3.720   3.749  16.727  0.00  0.00    +0.000 C 
ATOM      8  C   UNL     1       2.727   3.056  17.667  0.00  0.00    +0.000 C 
ATOM      9  C   UNL     1       2.843   3.408  19.159  0.00  0.00    +0.000 C 
ATOM     10  C   UNL     1       2.023   2.415  20.002  0.00  0.00    +0.000 C 
ATOM     11  C   UNL     1       1.459   3.260  21.121  0.00  0.00    +0.000 C 
ATOM     12  C   UNL     1       1.167   4.567  20.421  0.00  0.00    +0.000 C 
ATOM     13  N   UNL     1       2.229   4.737  19.428  0.00  0.00    +0.000 NA
ATOM     14  C   UNL     1       4.333   3.375  19.586  0.00  0.00    +0.000 C 
ATOM     15  H   UNL     1       2.941   5.373  19.792  0.00  0.00    +0.000 HD
ENDROOT
BRANCH   1  16
ATOM     16  O   UNL     1       7.564   6.695  16.331  0.00  0.00    +0.000 OA
ATOM     17  H   UNL     1       8.056   7.324  16.884  0.00  0.00    +0.000 HD
ENDBRANCH   1  16
TORSDOF 1
ENDMDL
MODEL 6
REMARK VINA RESULT:      -7.0      2.910      5.268
REMARK  Name = 
REMARK  1 active torsions:
REMARK  status: ('A' for Active; 'I' for Inactive)
REMARK    1  A    between atoms: O_1  and  C_2
REMARK                            x       y       z     vdW  Elec       q    Type
REMARK                         _______ _______ _______ _____ _____    ______ ____
ROOT
ATOM      1  C   UNL     1       7.274   7.069  17.667  0.00  0.00    +0.000 A 
ATOM      2  C   UNL     1       7.785   6.358  18.746  0.00  0.00    +0.000 A 
ATOM      3  C   UNL     1       7.043   5.303  19.283  0.00  0.00    +0.000 A 
ATOM      4  C   UNL     1       5.786   4.971  18.756  0.00  0.00    +0.000 A 
ATOM      5  C   UNL     1       5.279   5.693  17.665  0.00  0.00    +0.000 A 
ATOM      6  C   UNL     1       6.038   6.743  17.121  0.00  0.00    +0.000 A 
ATOM      7  C   UNL     1       3.940   5.375  17.056  0.00  0.00    +0.000 C 
ATOM      8  C   UNL     1       3.054   4.382  17.818  0.00  0.00    +0.000 C 
ATOM      9  C   UNL     1       3.463   4.077  19.267  0.00  0.00    +0.000 C 
ATOM     10  C   UNL     1       2.697   2.848  19.786  0.00  0.00    +0.000 C 
ATOM     11  C   UNL     1       2.431   3.166  21.240  0.00  0.00    +0.000 C 
ATOM     12  C   UNL     1       2.170   4.653  21.201  0.00  0.00    +0.000 C 
ATOM     13  N   UNL     1       3.056   5.190  20.167  0.00  0.00    +0.000 NA
ATOM     14  C   UNL     1       4.992   3.827  19.333  0.00  0.00    +0.000 C 
ATOM     15  H   UNL     1       3.886   5.596  20.603  0.00  0.00    +0.000 HD
ENDROOT
BRANCH   1  16
ATOM     16  O   UNL     1       7.959   8.106  17.109  0.00  0.00    +0.000 OA
ATOM     17  H   UNL     1       8.910   7.934  17.203  0.00  0.00    +0.000 HD
ENDBRANCH   1  16
TORSDOF 1
ENDMDL
MODEL 7
REMARK VINA RESULT:      -6.9      3.148      5.458
REMARK  Name = 
REMARK  1 active torsions:
REMARK  status: ('A' for Active; 'I' for Inactive)
REMARK    1  A    between atoms: O_1  and  C_2
REMARK                            x       y       z     vdW  Elec       q    Type
REMARK                         _______ _______ _______ _____ _____    ______ ____
ROOT
ATOM      1  C   UNL     1       7.054   5.089  14.815  0.00  0.00    +0.000 A 
ATOM      2  C   UNL     1       6.082   4.196  14.381  0.00  0.00    +0.000 A 
ATOM      3  C   UNL     1       5.007   3.893  15.222  0.00  0.00    +0.000 A 
ATOM      4  C   UNL     1       4.914   4.467  16.499  0.00  0.00    +0.000 A 
ATOM      5  C   UNL     1       5.898   5.370  16.927  0.00  0.00    +0.000 A 
ATOM      6  C   UNL     1       6.967   5.680  16.070  0.00  0.00    +0.000 A 
ATOM      7  C   UNL     1       5.843   6.020  18.283  0.00  0.00    +0.000 C 
ATOM      8  C   UNL     1       4.794   5.484  19.263  0.00  0.00    +0.000 C 
ATOM      9  C   UNL     1       4.145   4.139  18.898  0.00  0.00    +0.000 C 
ATOM     10  C   UNL     1       2.908   3.891  19.778  0.00  0.00    +0.000 C 
ATOM     11  C   UNL     1       2.925   2.401  20.028  0.00  0.00    +0.000 C 
ATOM     12  C   UNL     1       4.403   2.114  20.153  0.00  0.00    +0.000 C 
ATOM     13  N   UNL     1       5.069   3.015  19.211  0.00  0.00    +0.000 NA
ATOM     14  C   UNL     1       3.749   4.144  17.399  0.00  0.00    +0.000 C 
ATOM     15  H   UNL     1       5.294   2.509  18.353  0.00  0.00    +0.000 HD
ENDROOT
BRANCH   1  16
ATOM     16  O   UNL     1       8.120   5.416  14.033  0.00  0.00    +0.000 OA
ATOM     17  H   UNL     1       7.895   5.224  13.108  0.00  0.00    +0.000 HD
ENDBRANCH   1  16
TORSDOF 1
ENDMDL
MODEL 8
REMARK VINA RESULT:      -6.8      1.569      2.527
REMARK  Name = 
REMARK  1 active torsions:
REMARK  status: ('A' for Active; 'I' for Inactive)
REMARK    1  A    between atoms: O_1  and  C_2
REMARK                            x       y       z     vdW  Elec       q    Type
REMARK                         _______ _______ _______ _____ _____    ______ ____
ROOT
ATOM      1  C   UNL     1       1.246   2.830  19.032  0.00  0.00    +0.000 A 
ATOM      2  C   UNL     1       2.269   1.890  19.075  0.00  0.00    +0.000 A 
ATOM      3  C   UNL     1       3.574   2.285  18.767  0.00  0.00    +0.000 A 
ATOM      4  C   UNL     1       3.853   3.611  18.401  0.00  0.00    +0.000 A 
ATOM      5  C   UNL     1       2.814   4.553  18.364  0.00  0.00    +0.000 A 
ATOM      6  C   UNL     1       1.508   4.151  18.688  0.00  0.00    +0.000 A 
ATOM      7  C   UNL     1       3.058   5.989  17.984  0.00  0.00    +0.000 C 
ATOM      8  C   UNL     1       4.444   6.328  17.421  0.00  0.00    +0.000 C 
ATOM      9  C   UNL     1       5.313   5.136  16.989  0.00  0.00    +0.000 C 
ATOM     10  C   UNL     1       6.763   5.595  16.758  0.00  0.00    +0.000 C 
ATOM     11  C   UNL     1       7.230   4.766  15.584  0.00  0.00    +0.000 C 
ATOM     12  C   UNL     1       5.984   4.685  14.733  0.00  0.00    +0.000 C 
ATOM     13  N   UNL     1       4.862   4.616  15.669  0.00  0.00    +0.000 NA
ATOM     14  C   UNL     1       5.263   4.035  18.078  0.00  0.00    +0.000 C 
ATOM     15  H   UNL     1       4.559   3.646  15.771  0.00  0.00    +0.000 HD
ENDROOT
BRANCH   1  16
ATOM     16  O   UNL     1      -0.042   2.494  19.323  0.00  0.00    +0.000 OA
ATOM     17  H   UNL     1      -0.046   1.959  20.133  0.00  0.00    +0.000 HD
ENDBRANCH   1  16
TORSDOF 1
ENDMDL
MODEL 9
REMARK VINA RESULT:      -6.8      3.141      4.887
REMARK  Name = 
REMARK  1 active torsions:
REMARK  status: ('A' for Active; 'I' for Inactive)
REMARK    1  A    between atoms: O_1  and  C_2
REMARK                            x       y       z     vdW  Elec       q    Type
REMARK                         _______ _______ _______ _____ _____    ______ ____
ROOT
ATOM      1  C   UNL     1       2.036   9.128  18.136  0.00  0.00    +0.000 A 
ATOM      2  C   UNL     1       1.486   8.999  19.405  0.00  0.00    +0.000 A 
ATOM      3  C   UNL     1       1.682   7.813  20.119  0.00  0.00    +0.000 A 
ATOM      4  C   UNL     1       2.411   6.754  19.558  0.00  0.00    +0.000 A 
ATOM      5  C   UNL     1       2.965   6.894  18.278  0.00  0.00    +0.000 A 
ATOM      6  C   UNL     1       2.776   8.094  17.573  0.00  0.00    +0.000 A 
ATOM      7  C   UNL     1       3.761   5.792  17.632  0.00  0.00    +0.000 C 
ATOM      8  C   UNL     1       3.750   4.429  18.335  0.00  0.00    +0.000 C 
ATOM      9  C   UNL     1       2.676   4.231  19.417  0.00  0.00    +0.000 C 
ATOM     10  C   UNL     1       2.985   2.971  20.244  0.00  0.00    +0.000 C 
ATOM     11  C   UNL     1       1.625   2.384  20.545  0.00  0.00    +0.000 C 
ATOM     12  C   UNL     1       0.864   2.670  19.272  0.00  0.00    +0.000 C 
ATOM     13  N   UNL     1       1.352   3.964  18.792  0.00  0.00    +0.000 NA
ATOM     14  C   UNL     1       2.627   5.480  20.334  0.00  0.00    +0.000 C 
ATOM     15  H   UNL     1       0.695   4.699  19.060  0.00  0.00    +0.000 HD
ENDROOT
BRANCH   1  16
ATOM     16  O   UNL     1       1.873  10.263  17.400  0.00  0.00    +0.000 OA
ATOM     17  H   UNL     1       0.929  10.494  17.395  0.00  0.00    +0.000 HD
ENDBRANCH   1  16
TORSDOF 1
ENDMDL
