MODEL 1
REMARK VINA RESULT:      -7.0      0.000      0.000
REMARK  Name = 
REMARK  2 active torsions:
REMARK  status: ('A' for Active; 'I' for Inactive)
REMARK    1  A    between atoms: C_1  and  N_2
REMARK    2  A    between atoms: N_5  and  C_6
REMARK                            x       y       z     vdW  Elec       q    Type
REMARK                         _______ _______ _______ _____ _____    ______ ____
ROOT
ATOM      1  C   UNL     1       1.348   8.500  20.153  0.00  0.00    +0.000 A 
ATOM      2  C   UNL     1       1.712   8.823  18.846  0.00  0.00    +0.000 A 
ATOM      3  C   UNL     1       2.355   7.879  18.069  0.00  0.00    +0.000 A 
ATOM      4  N   UNL     1       2.650   6.628  18.485  0.00  0.00    +0.000 NA
ATOM      5  C   UNL     1       2.275   6.279  19.728  0.00  0.00    +0.000 A 
ATOM      6  N   UNL     1       2.598   5.017  20.212  0.00  0.00    +0.000 N 
ATOM      7  C   UNL     1       3.799   4.364  19.696  0.00  0.00    +0.000 C 
ATOM      8  C   UNL     1       3.479   3.220  18.738  0.00  0.00    +0.000 C 
ATOM      9  C   UNL     1       2.448   2.269  19.335  0.00  0.00    +0.000 C 
ATOM     10  C   UNL     1       1.192   3.043  19.719  0.00  0.00    +0.000 C 
ATOM     11  C   UNL     1       1.513   4.171  20.703  0.00  0.00    +0.000 C 
ATOM     12  C   UNL     1       1.629   7.195  20.573  0.00  0.00    +0.000 A 
ENDROOT
BRANCH   1  17
ATOM     13  C   UNL     1      -1.599  12.119  23.247  0.00  0.00    +0.000 C 
ATOM     14  N   UNL     1      -0.400  11.455  22.736  0.00  0.00    +0.000 NA
ATOM     15  C   UNL     1      -0.278  11.660  21.272  0.00  0.00    +0.000 C 
ATOM     16  C   UNL     1       0.927  10.906  20.650  0.00  0.00    +0.000 C 
ATOM     17  N   UNL     1       0.823   9.479  20.983  0.00  0.00    +0.000 N 
ATOM     18  C   UNL     1       0.747   9.225  22.432  0.00  0.00    +0.000 C 
ATOM     19  C   UNL     1      -0.453  10.002  23.025  0.00  0.00    +0.000 C 
ENDBRANCH   1  17
TORSDOF 1
ENDMDL
MODEL 2
REMARK VINA RESULT:      -7.0      5.154      7.391
REMARK  Name = 
REMARK  2 active torsions:
REMARK  status: ('A' for Active; 'I' for Inactive)
REMARK    1  A    between atoms: C_1  and  N_2
REMARK    2  A    between atoms: N_5  and  C_6
REMARK                            x       y       z     vdW  Elec       q    Type
REMARK                         _______ _______ _______ _____ _____    ______ ____
ROOT
ATOM      1  C   UNL     1       4.073   4.715  17.254  0.00  0.00    +0.000 A 
ATOM      2  C   UNL     1       4.057   6.110  17.255  0.00  0.00    +0.000 A 
ATOM      3  C   UNL     1       4.860   6.798  16.367  0.00  0.00    +0.000 A 
ATOM      4  N   UNL     1       5.670   6.205  15.462  0.00  0.00    +0.000 NA
ATOM      5  C   UNL     1       5.674   4.860  15.414  0.00  0.00    +0.000 A 
ATOM      6  N   UNL     1       6.525   4.210  14.529  0.00  0.00    +0.000 N 
ATOM      7  C   UNL     1       7.774   4.871  14.155  0.00  0.00    +0.000 C 
ATOM      8  C   UNL     1       7.744   5.420  12.732  0.00  0.00    +0.000 C 
ATOM      9  C   UNL     1       7.263   4.367  11.740  0.00  0.00    +0.000 C 
ATOM     10  C   UNL     1       5.897   3.841  12.165  0.00  0.00    +0.000 C 
ATOM     11  C   UNL     1       5.938   3.265  13.582  0.00  0.00    +0.000 C 
ATOM     12  C   UNL     1       4.890   4.103  16.298  0.00  0.00    +0.000 A 
ENDROOT
BRANCH   1  17
ATOM     13  C   UNL     1       1.359   2.668  21.703  0.00  0.00    +0.000 C 
ATOM     14  N   UNL     1       1.868   2.685  20.332  0.00  0.00    +0.000 NA
ATOM     15  C   UNL     1       3.350   2.740  20.329  0.00  0.00    +0.000 C 
ATOM     16  C   UNL     1       3.952   2.850  18.904  0.00  0.00    +0.000 C 
ATOM     17  N   UNL     1       3.374   4.019  18.228  0.00  0.00    +0.000 N 
ATOM     18  C   UNL     1       1.902   3.983  18.166  0.00  0.00    +0.000 C 
ATOM     19  C   UNL     1       1.332   3.858  19.599  0.00  0.00    +0.000 C 
ENDBRANCH   1  17
TORSDOF 1
ENDMDL
MODEL 3
REMARK VINA RESULT:      -6.9      4.613      7.069
REMARK  Name = 
REMARK  2 active torsions:
REMARK  status: ('A' for Active; 'I' for Inactive)
REMARK    1  A    between atoms: C_1  and  N_2
REMARK    2  A    between atoms: N_5  and  C_6
REMARK                            x       y       z     vdW  Elec       q    Type
REMARK                         _______ _______ _______ _____ _____    ______ ____
ROOT
ATOM      1  C   UNL     1       4.328   5.174  17.527  0.00  0.00    +0.000 A 
ATOM      2  C   UNL     1       4.201   6.542  17.283  0.00  0.00    +0.000 A 
ATOM      3  C   UNL     1       4.859   7.102  16.206  0.00  0.00    +0.000 A 
ATOM      4  N   UNL     1       5.623   6.404  15.338  0.00  0.00    +0.000 NA
ATOM      5  C   UNL     1       5.730   5.076  15.528  0.00  0.00    +0.000 A 
ATOM      6  N   UNL     1       6.541   4.327  14.685  0.00  0.00    +0.000 N 
ATOM      7  C   UNL     1       7.693   4.983  14.068  0.00  0.00    +0.000 C 
ATOM      8  C   UNL     1       7.484   5.259  12.582  0.00  0.00    +0.000 C 
ATOM      9  C   UNL     1       6.996   4.013  11.850  0.00  0.00    +0.000 C 
ATOM     10  C   UNL     1       5.723   3.493  12.506  0.00  0.00    +0.000 C 
ATOM     11  C   UNL     1       5.944   3.190  13.989  0.00  0.00    +0.000 C 
ATOM     12  C   UNL     1       5.096   4.448  16.611  0.00  0.00    +0.000 A 
ENDROOT
BRANCH   1  17
ATOM     13  C   UNL     1       1.470   2.622  21.609  0.00  0.00    +0.000 C 
ATOM     14  N   UNL     1       2.568   3.380  21.012  0.00  0.00    +0.000 NA
ATOM     15  C   UNL     1       2.070   4.656  20.444  0.00  0.00    +0.000 C 
ATOM     16  C   UNL     1       3.171   5.470  19.716  0.00  0.00    +0.000 C 
ATOM     17  N   UNL     1       3.782   4.628  18.678  0.00  0.00    +0.000 N 
ATOM     18  C   UNL     1       4.334   3.367  19.205  0.00  0.00    +0.000 C 
ATOM     19  C   UNL     1       3.217   2.587  19.939  0.00  0.00    +0.000 C 
ENDBRANCH   1  17
TORSDOF 1
ENDMDL
MODEL 4
REMARK VINA RESULT:      -6.6      2.420      7.340
REMARK  Name = 
REMARK  2 active torsions:
REMARK  status: ('A' for Active; 'I' for Inactive)
REMARK    1  A    between atoms: C_1  and  N_2
REMARK    2  A    between atoms: N_5  and  C_6
REMARK                            x       y       z     vdW  Elec       q    Type
REMARK                         _______ _______ _______ _____ _____    ______ ____
ROOT
ATOM      1  C   UNL     1       3.091   5.787  18.777  0.00  0.00    +0.000 A 
ATOM      2  C   UNL     1       2.474   4.759  19.490  0.00  0.00    +0.000 A 
ATOM      3  C   UNL     1       1.620   5.072  20.529  0.00  0.00    +0.000 A 
ATOM      4  N   UNL     1       1.316   6.334  20.906  0.00  0.00    +0.000 NA
ATOM      5  C   UNL     1       1.868   7.344  20.209  0.00  0.00    +0.000 A 
ATOM      6  N   UNL     1       1.617   8.656  20.591  0.00  0.00    +0.000 N 
ATOM      7  C   UNL     1       1.334   8.926  21.999  0.00  0.00    +0.000 C 
ATOM      8  C   UNL     1      -0.137   9.240  22.252  0.00  0.00    +0.000 C 
ATOM      9  C   UNL     1      -0.652  10.302  21.287  0.00  0.00    +0.000 C 
ATOM     10  C   UNL     1      -0.416   9.854  19.850  0.00  0.00    +0.000 C 
ATOM     11  C   UNL     1       1.066   9.568  19.592  0.00  0.00    +0.000 C 
ATOM     12  C   UNL     1       2.753   7.092  19.150  0.00  0.00    +0.000 A 
ENDROOT
BRANCH   1  17
ATOM     13  C   UNL     1       6.246   4.522  14.328  0.00  0.00    +0.000 C 
ATOM     14  N   UNL     1       5.969   4.892  15.715  0.00  0.00    +0.000 NA
ATOM     15  C   UNL     1       5.176   3.833  16.386  0.00  0.00    +0.000 C 
ATOM     16  C   UNL     1       4.771   4.203  17.837  0.00  0.00    +0.000 C 
ATOM     17  N   UNL     1       4.049   5.482  17.823  0.00  0.00    +0.000 N 
ATOM     18  C   UNL     1       4.820   6.577  17.206  0.00  0.00    +0.000 C 
ATOM     19  C   UNL     1       5.222   6.172  15.768  0.00  0.00    +0.000 C 
ENDBRANCH   1  17
TORSDOF 1
ENDMDL
MODEL 5
REMARK VINA RESULT:      -6.5      0.945      1.523
REMARK  Name = 
REMARK  2 active torsions:
REMARK  status: ('A' for Active; 'I' for Inactive)
REMARK    1  A    between atoms: C_1  and  N_2
REMARK    2  A    between atoms: N_5  and  C_6
REMARK                            x       y       z     vdW  Elec       q    Type
REMARK                         _______ _______ _______ _____ _____    ______ ____
ROOT
ATOM      1  C   UNL     1       1.329   8.587  19.662  0.00  0.00    +0.000 A 
ATOM      2  C   UNL     1       1.690   9.020  18.386  0.00  0.00    +0.000 A 
ATOM      3  C   UNL     1       2.606   8.289  17.655  0.00  0.00    +0.000 A 
ATOM      4  N   UNL     1       3.181   7.146  18.088  0.00  0.00    +0.000 NA
ATOM      5  C   UNL     1       2.822   6.685  19.300  0.00  0.00    +0.000 A 
ATOM      6  N   UNL     1       3.422   5.538  19.802  0.00  0.00    +0.000 N 
ATOM      7  C   UNL     1       4.784   5.224  19.374  0.00  0.00    +0.000 C 
ATOM      8  C   UNL     1       4.836   4.058  18.391  0.00  0.00    +0.000 C 
ATOM      9  C   UNL     1       4.043   2.862  18.907  0.00  0.00    +0.000 C 
ATOM     10  C   UNL     1       2.607   3.281  19.201  0.00  0.00    +0.000 C 
ATOM     11  C   UNL     1       2.558   4.432  20.209  0.00  0.00    +0.000 C 
ATOM     12  C   UNL     1       1.905   7.388  20.097  0.00  0.00    +0.000 A 
ENDROOT
BRANCH   1  17
ATOM     13  C   UNL     1      -1.198  12.312  22.991  0.00  0.00    +0.000 C 
ATOM     14  N   UNL     1      -1.103  11.161  22.095  0.00  0.00    +0.000 NA
ATOM     15  C   UNL     1      -0.227  10.117  22.681  0.00  0.00    +0.000 C 
ATOM     16  C   UNL     1      -0.012   8.903  21.740  0.00  0.00    +0.000 C 
ATOM     17  N   UNL     1       0.515   9.381  20.454  0.00  0.00    +0.000 N 
ATOM     18  C   UNL     1      -0.349  10.387  19.811  0.00  0.00    +0.000 C 
ATOM     19  C   UNL     1      -0.558  11.576  20.779  0.00  0.00    +0.000 C 
ENDBRANCH   1  17
TORSDOF 1
ENDMDL
MODEL 6
REMARK VINA RESULT:      -6.5      2.508      3.680
REMARK  Name = 
REMARK  2 active torsions:
REMARK  status: ('A' for Active; 'I' for Inactive)
REMARK    1  A    between atoms: C_1  and  N_2
REMARK    2  A    between atoms: N_5  and  C_6
REMARK                            x       y       z     vdW  Elec       q    Type
REMARK                         _______ _______ _______ _____ _____    ______ ____
ROOT
ATOM      1  C   UNL     1       2.275   7.415  19.270  0.00  0.00    +0.000 A 
ATOM      2  C   UNL     1       2.134   6.339  20.147  0.00  0.00    +0.000 A 
ATOM      3  C   UNL     1       2.797   5.157  19.882  0.00  0.00    +0.000 A 
ATOM      4  N   UNL     1       3.608   4.965  18.819  0.00  0.00    +0.000 NA
ATOM      5  C   UNL     1       3.792   5.999  17.979  0.00  0.00    +0.000 A 
ATOM      6  N   UNL     1       4.582   5.832  16.848  0.00  0.00    +0.000 N 
ATOM      7  C   UNL     1       4.668   4.499  16.255  0.00  0.00    +0.000 C 
ATOM      8  C   UNL     1       6.011   3.825  16.518  0.00  0.00    +0.000 C 
ATOM      9  C   UNL     1       7.173   4.749  16.171  0.00  0.00    +0.000 C 
ATOM     10  C   UNL     1       7.043   6.056  16.944  0.00  0.00    +0.000 C 
ATOM     11  C   UNL     1       5.707   6.743  16.655  0.00  0.00    +0.000 C 
ATOM     12  C   UNL     1       3.137   7.223  18.185  0.00  0.00    +0.000 A 
ENDROOT
BRANCH   1  17
ATOM     13  C   UNL     1      -1.536  11.477  19.838  0.00  0.00    +0.000 C 
ATOM     14  N   UNL     1      -0.207  10.870  19.873  0.00  0.00    +0.000 NA
ATOM     15  C   UNL     1       0.190  10.410  18.520  0.00  0.00    +0.000 C 
ATOM     16  C   UNL     1       1.556   9.675  18.503  0.00  0.00    +0.000 C 
ATOM     17  N   UNL     1       1.512   8.557  19.455  0.00  0.00    +0.000 N 
ATOM     18  C   UNL     1       1.167   8.975  20.825  0.00  0.00    +0.000 C 
ATOM     19  C   UNL     1      -0.190   9.718  20.807  0.00  0.00    +0.000 C 
ENDBRANCH   1  17
TORSDOF 1
ENDMDL
MODEL 7
REMARK VINA RESULT:      -6.5      2.338      7.230
REMARK  Name = 
REMARK  2 active torsions:
REMARK  status: ('A' for Active; 'I' for Inactive)
REMARK    1  A    between atoms: C_1  and  N_2
REMARK    2  A    between atoms: N_5  and  C_6
REMARK                            x       y       z     vdW  Elec       q    Type
REMARK                         _______ _______ _______ _____ _____    ______ ____
ROOT
ATOM      1  C   UNL     1       2.890   5.951  18.778  0.00  0.00    +0.000 A 
ATOM      2  C   UNL     1       2.342   4.911  19.530  0.00  0.00    +0.000 A 
ATOM      3  C   UNL     1       1.576   5.208  20.640  0.00  0.00    +0.000 A 
ATOM      4  N   UNL     1       1.297   6.463  21.055  0.00  0.00    +0.000 NA
ATOM      5  C   UNL     1       1.781   7.484  20.325  0.00  0.00    +0.000 A 
ATOM      6  N   UNL     1       1.555   8.791  20.740  0.00  0.00    +0.000 N 
ATOM      7  C   UNL     1       1.389   9.044  22.170  0.00  0.00    +0.000 C 
ATOM      8  C   UNL     1      -0.058   9.344  22.549  0.00  0.00    +0.000 C 
ATOM      9  C   UNL     1      -0.659  10.412  21.642  0.00  0.00    +0.000 C 
ATOM     10  C   UNL     1      -0.541   9.980  20.185  0.00  0.00    +0.000 C 
ATOM     11  C   UNL     1       0.915   9.709  19.801  0.00  0.00    +0.000 C 
ATOM     12  C   UNL     1       2.576   7.250  19.192  0.00  0.00    +0.000 A 
ENDROOT
BRANCH   1  17
ATOM     13  C   UNL     1       7.029   4.563  15.273  0.00  0.00    +0.000 C 
ATOM     14  N   UNL     1       5.680   4.971  15.661  0.00  0.00    +0.000 NA
ATOM     15  C   UNL     1       5.717   6.272  16.373  0.00  0.00    +0.000 C 
ATOM     16  C   UNL     1       4.326   6.722  16.892  0.00  0.00    +0.000 C 
ATOM     17  N   UNL     1       3.767   5.663  17.743  0.00  0.00    +0.000 N 
ATOM     18  C   UNL     1       3.668   4.361  17.061  0.00  0.00    +0.000 C 
ATOM     19  C   UNL     1       5.065   3.948  16.542  0.00  0.00    +0.000 C 
ENDBRANCH   1  17
TORSDOF 1
ENDMDL
MODEL 8
REMARK VINA RESULT:      -6.4      2.434      3.802
REMARK  Name = 
REMARK  2 active torsions:
REMARK  status: ('A' for Active; 'I' for Inactive)
REMARK    1  A    between atoms: C_1  and  N_2
REMARK    2  A    between atoms: N_5  and  C_6
REMARK                            x       y       z     vdW  Elec       q    Type
REMARK                         _______ _______ _______ _____ _____    ______ ____
ROOT
ATOM      1  C   UNL     1       2.377   7.179  19.491  0.00  0.00    +0.000 A 
ATOM      2  C   UNL     1       2.154   5.985  20.177  0.00  0.00    +0.000 A 
ATOM      3  C   UNL     1       2.754   4.824  19.730  0.00  0.00    +0.000 A 
ATOM      4  N   UNL     1       3.575   4.759  18.659  0.00  0.00    +0.000 NA
ATOM      5  C   UNL     1       3.837   5.903  18.003  0.00  0.00    +0.000 A 
ATOM      6  N   UNL     1       4.641   5.875  16.870  0.00  0.00    +0.000 N 
ATOM      7  C   UNL     1       4.662   4.653  16.067  0.00  0.00    +0.000 C 
ATOM      8  C   UNL     1       5.958   3.865  16.232  0.00  0.00    +0.000 C 
ATOM      9  C   UNL     1       7.179   4.761  16.056  0.00  0.00    +0.000 C 
ATOM     10  C   UNL     1       7.108   5.930  17.031  0.00  0.00    +0.000 C 
ATOM     11  C   UNL     1       5.820   6.735  16.842  0.00  0.00    +0.000 C 
ATOM     12  C   UNL     1       3.250   7.115  18.399  0.00  0.00    +0.000 A 
ENDROOT
BRANCH   1  17
ATOM     13  C   UNL     1       0.390  12.171  21.065  0.00  0.00    +0.000 C 
ATOM     14  N   UNL     1       0.326  10.796  20.572  0.00  0.00    +0.000 NA
ATOM     15  C   UNL     1       0.856   9.855  21.589  0.00  0.00    +0.000 C 
ATOM     16  C   UNL     1       0.899   8.385  21.095  0.00  0.00    +0.000 C 
ATOM     17  N   UNL     1       1.677   8.320  19.851  0.00  0.00    +0.000 N 
ATOM     18  C   UNL     1       1.157   9.206  18.794  0.00  0.00    +0.000 C 
ATOM     19  C   UNL     1       1.111  10.659  19.321  0.00  0.00    +0.000 C 
ENDBRANCH   1  17
TORSDOF 1
ENDMDL
MODEL 9
REMARK VINA RESULT:      -6.4      2.484      7.509
REMARK  Name = 
REMARK  2 active torsions:
REMARK  status: ('A' for Active; 'I' for Inactive)
REMARK    1  A    between atoms: C_1  and  N_2
REMARK    2  A    between atoms: N_5  and  C_6
REMARK                            x       y       z     vdW  Elec       q    Type
REMARK                         _______ _______ _______ _____ _____    ______ ____
ROOT
ATOM      1  C   UNL     1       3.092   6.435  18.596  0.00  0.00    +0.000 A 
ATOM      2  C   UNL     1       2.691   5.737  19.736  0.00  0.00    +0.000 A 
ATOM      3  C   UNL     1       1.856   6.351  20.649  0.00  0.00    +0.000 A 
ATOM      4  N   UNL     1       1.373   7.605  20.510  0.00  0.00    +0.000 NA
ATOM      5  C   UNL     1       1.713   8.287  19.401  0.00  0.00    +0.000 A 
ATOM      6  N   UNL     1       1.275   9.595  19.239  0.00  0.00    +0.000 N 
ATOM      7  C   UNL     1       1.031  10.397  20.436  0.00  0.00    +0.000 C 
ATOM      8  C   UNL     1      -0.456  10.602  20.711  0.00  0.00    +0.000 C 
ATOM      9  C   UNL     1      -1.190  11.085  19.465  0.00  0.00    +0.000 C 
ATOM     10  C   UNL     1      -0.964  10.105  18.320  0.00  0.00    +0.000 C 
ATOM     11  C   UNL     1       0.527   9.924  18.028  0.00  0.00    +0.000 C 
ATOM     12  C   UNL     1       2.568   7.723  18.440  0.00  0.00    +0.000 A 
ENDROOT
BRANCH   1  17
ATOM     13  C   UNL     1       6.182   4.101  14.553  0.00  0.00    +0.000 C 
ATOM     14  N   UNL     1       5.920   4.744  15.840  0.00  0.00    +0.000 NA
ATOM     15  C   UNL     1       5.025   3.901  16.669  0.00  0.00    +0.000 C 
ATOM     16  C   UNL     1       4.635   4.566  18.015  0.00  0.00    +0.000 C 
ATOM     17  N   UNL     1       4.032   5.878  17.744  0.00  0.00    +0.000 N 
ATOM     18  C   UNL     1       4.907   6.769  16.961  0.00  0.00    +0.000 C 
ATOM     19  C   UNL     1       5.291   6.072  15.634  0.00  0.00    +0.000 C 
ENDBRANCH   1  17
TORSDOF 1
ENDMDL
