MODEL 1
REMARK VINA RESULT:      -8.1      0.000      0.000
REMARK  Name = 
REMARK  14 active torsions:
REMARK  status: ('A' for Active; 'I' for Inactive)
REMARK    1  A    between atoms: C_1  and  C_2
REMARK    2  A    between atoms: C_2  and  C_3
REMARK    3  A    between atoms: C_2  and  N_4
REMARK    4  A    between atoms: C_5  and  C_7
REMARK    5  A    between atoms: C_9  and  C_10
REMARK    6  A    between atoms: C_10  and  O_11
REMARK    7  A    between atoms: C_10  and  C_12
REMARK    8  A    between atoms: C_12  and  N_13
REMARK    9  A    between atoms: N_13  and  C_14
REMARK   10  A    between atoms: C_14  and  C_15
REMARK   11  A    between atoms: C_14  and  C_16
REMARK   12  A    between atoms: C_16  and  C_17
REMARK   13  A    between atoms: C_17  and  C_18
REMARK   14  A    between atoms: C_29  and  O_30
REMARK                            x       y       z     vdW  Elec       q    Type
REMARK                         _______ _______ _______ _____ _____    ______ ____
ROOT
ATOM      1  C   UNL     1       4.558   2.643  18.452  0.00  0.00    +0.000 C 
ENDROOT
BRANCH   1   4
ATOM      2  C   UNL     1       6.426   4.840  15.932  0.00  0.00    +0.000 A 
ATOM      3  C   UNL     1       5.622   3.840  16.497  0.00  0.00    +0.000 A 
ATOM      4  C   UNL     1       5.389   3.781  17.885  0.00  0.00    +0.000 A 
ATOM      5  C   UNL     1       5.925   4.799  18.683  0.00  0.00    +0.000 A 
ATOM      6  C   UNL     1       6.710   5.814  18.131  0.00  0.00    +0.000 A 
ATOM      7  C   UNL     1       6.967   5.829  16.762  0.00  0.00    +0.000 A 
BRANCH   2   9
ATOM      8  N   UNL     1       5.801   3.966  13.754  0.00  0.00    +0.000 N 
ATOM      9  C   UNL     1       6.683   4.746  14.466  0.00  0.00    +0.000 C 
ATOM     10  O   UNL     1       7.595   5.380  13.952  0.00  0.00    +0.000 OA
ATOM     11  H   UNL     1       5.210   3.341  14.293  0.00  0.00    +0.000 HD
BRANCH   8  13
ATOM     12  C   UNL     1       6.926   2.676  12.011  0.00  0.00    +0.000 C 
ATOM     13  C   UNL     1       5.911   3.772  12.323  0.00  0.00    +0.000 C 
ATOM     14  C   UNL     1       4.540   3.429  11.750  0.00  0.00    +0.000 C 
ENDBRANCH   8  13
ENDBRANCH   2   9
BRANCH   7  15
ATOM     15  O   UNL     1       7.755   6.824  16.247  0.00  0.00    +0.000 OA
ATOM     16  H   UNL     1       7.183   7.546  15.936  0.00  0.00    +0.000 HD
ENDBRANCH   7  15
ENDBRANCH   1   4
BRANCH   1  17
ATOM     17  O   UNL     1       4.560   2.710  19.883  0.00  0.00    +0.000 OA
ATOM     18  H   UNL     1       4.346   1.807  20.185  0.00  0.00    +0.000 HD
ENDBRANCH   1  17
BRANCH   1  19
ATOM     19  C   UNL     1       3.079   2.584  17.986  0.00  0.00    +0.000 C 
BRANCH  19  20
ATOM     20  N   UNL     1       2.126   2.645  19.116  0.00  0.00    +0.000 NA
ATOM     21  H   UNL     1       2.661   2.605  19.983  0.00  0.00    +0.000 HD
BRANCH  20  22
ATOM     22  C   UNL     1       1.301   3.864  19.102  0.00  0.00    +0.000 C 
ATOM     23  C   UNL     1       0.818   4.222  20.512  0.00  0.00    +0.000 C 
BRANCH  22  24
ATOM     24  C   UNL     1       2.110   5.046  18.522  0.00  0.00    +0.000 C 
BRANCH  24  25
ATOM     25  C   UNL     1       2.614   6.022  19.592  0.00  0.00    +0.000 C 
BRANCH  25  26
ATOM     26  C   UNL     1       2.135   7.431  19.347  0.00  0.00    +0.000 A 
ATOM     27  C   UNL     1       2.342   8.039  18.086  0.00  0.00    +0.000 A 
ATOM     28  C   UNL     1       1.909   9.345  17.839  0.00  0.00    +0.000 A 
ATOM     29  C   UNL     1       1.289  10.019  18.867  0.00  0.00    +0.000 A 
ATOM     30  C   UNL     1       1.088   9.436  20.097  0.00  0.00    +0.000 A 
ATOM     31  C   UNL     1       1.497   8.148  20.368  0.00  0.00    +0.000 A 
ATOM     32  O   UNL     1       0.462  10.268  20.970  0.00  0.00    +0.000 OA
ATOM     33  C   UNL     1       0.337  11.458  20.165  0.00  0.00    +0.000 C 
ATOM     34  O   UNL     1       0.815  11.292  18.813  0.00  0.00    +0.000 OA
ENDBRANCH  25  26
ENDBRANCH  24  25
ENDBRANCH  22  24
ENDBRANCH  20  22
ENDBRANCH  19  20
ENDBRANCH   1  19
TORSDOF 11
ENDMDL
MODEL 2
REMARK VINA RESULT:      -7.8      0.975      1.036
REMARK  Name = 
REMARK  14 active torsions:
REMARK  status: ('A' for Active; 'I' for Inactive)
REMARK    1  A    between atoms: C_1  and  C_2
REMARK    2  A    between atoms: C_2  and  C_3
REMARK    3  A    between atoms: C_2  and  N_4
REMARK    4  A    between atoms: C_5  and  C_7
REMARK    5  A    between atoms: C_9  and  C_10
REMARK    6  A    between atoms: C_10  and  O_11
REMARK    7  A    between atoms: C_10  and  C_12
REMARK    8  A    between atoms: C_12  and  N_13
REMARK    9  A    between atoms: N_13  and  C_14
REMARK   10  A    between atoms: C_14  and  C_15
REMARK   11  A    between atoms: C_14  and  C_16
REMARK   12  A    between atoms: C_16  and  C_17
REMARK   13  A    between atoms: C_17  and  C_18
REMARK   14  A    between atoms: C_29  and  O_30
REMARK                            x       y       z     vdW  Elec       q    Type
REMARK                         _______ _______ _______ _____ _____    ______ ____
ROOT
ATOM      1  C   UNL     1       3.608   2.047  17.918  0.00  0.00    +0.000 C 
ENDROOT
BRANCH   1   4
ATOM      2  C   UNL     1       5.876   4.346  15.858  0.00  0.00    +0.000 A 
ATOM      3  C   UNL     1       4.917   3.391  16.223  0.00  0.00    +0.000 A 
ATOM      4  C   UNL     1       4.613   3.134  17.574  0.00  0.00    +0.000 A 
ATOM      5  C   UNL     1       5.244   3.918  18.548  0.00  0.00    +0.000 A 
ATOM      6  C   UNL     1       6.185   4.889  18.198  0.00  0.00    +0.000 A 
ATOM      7  C   UNL     1       6.506   5.096  16.858  0.00  0.00    +0.000 A 
BRANCH   2   9
ATOM      8  N   UNL     1       5.633   3.498  13.596  0.00  0.00    +0.000 N 
ATOM      9  C   UNL     1       6.187   4.463  14.405  0.00  0.00    +0.000 C 
ATOM     10  O   UNL     1       6.850   5.401  13.983  0.00  0.00    +0.000 OA
ATOM     11  H   UNL     1       5.268   2.672  14.059  0.00  0.00    +0.000 HD
BRANCH   8  13
ATOM     12  C   UNL     1       6.801   2.348  11.785  0.00  0.00    +0.000 C 
ATOM     13  C   UNL     1       5.837   3.470  12.162  0.00  0.00    +0.000 C 
ATOM     14  C   UNL     1       4.494   3.297  11.460  0.00  0.00    +0.000 C 
ENDBRANCH   8  13
ENDBRANCH   2   9
BRANCH   7  15
ATOM     15  O   UNL     1       7.446   6.040  16.541  0.00  0.00    +0.000 OA
ATOM     16  H   UNL     1       7.734   5.898  15.623  0.00  0.00    +0.000 HD
ENDBRANCH   7  15
ENDBRANCH   1   4
BRANCH   1  17
ATOM     17  O   UNL     1       4.300   0.874  18.362  0.00  0.00    +0.000 OA
ATOM     18  H   UNL     1       5.214   1.165  18.540  0.00  0.00    +0.000 HD
ENDBRANCH   1  17
BRANCH   1  19
ATOM     19  C   UNL     1       2.557   2.412  19.000  0.00  0.00    +0.000 C 
BRANCH  19  20
ATOM     20  N   UNL     1       1.655   3.502  18.569  0.00  0.00    +0.000 NA
ATOM     21  H   UNL     1       0.721   3.110  18.450  0.00  0.00    +0.000 HD
BRANCH  20  22
ATOM     22  C   UNL     1       1.603   4.613  19.534  0.00  0.00    +0.000 C 
ATOM     23  C   UNL     1       2.154   4.188  20.899  0.00  0.00    +0.000 C 
BRANCH  22  24
ATOM     24  C   UNL     1       2.416   5.815  19.004  0.00  0.00    +0.000 C 
BRANCH  24  25
ATOM     25  C   UNL     1       2.560   6.950  20.025  0.00  0.00    +0.000 C 
BRANCH  25  26
ATOM     26  C   UNL     1       1.765   8.170  19.634  0.00  0.00    +0.000 A 
ATOM     27  C   UNL     1       1.834   8.666  18.310  0.00  0.00    +0.000 A 
ATOM     28  C   UNL     1       1.108   9.798  17.928  0.00  0.00    +0.000 A 
ATOM     29  C   UNL     1       0.338  10.417  18.887  0.00  0.00    +0.000 A 
ATOM     30  C   UNL     1       0.269   9.945  20.177  0.00  0.00    +0.000 A 
ATOM     31  C   UNL     1       0.967   8.827  20.582  0.00  0.00    +0.000 A 
ATOM     32  O   UNL     1      -0.543  10.699  20.964  0.00  0.00    +0.000 OA
ATOM     33  C   UNL     1      -0.937  11.728  20.034  0.00  0.00    +0.000 C 
ATOM     34  O   UNL     1      -0.421  11.530  18.701  0.00  0.00    +0.000 OA
ENDBRANCH  25  26
ENDBRANCH  24  25
ENDBRANCH  22  24
ENDBRANCH  20  22
ENDBRANCH  19  20
ENDBRANCH   1  19
TORSDOF 11
ENDMDL
MODEL 3
REMARK VINA RESULT:      -7.8      1.256      1.524
REMARK  Name = 
REMARK  14 active torsions:
REMARK  status: ('A' for Active; 'I' for Inactive)
REMARK    1  A    between atoms: C_1  and  C_2
REMARK    2  A    between atoms: C_2  and  C_3
REMARK    3  A    between atoms: C_2  and  N_4
REMARK    4  A    between atoms: C_5  and  C_7
REMARK    5  A    between atoms: C_9  and  C_10
REMARK    6  A    between atoms: C_10  and  O_11
REMARK    7  A    between atoms: C_10  and  C_12
REMARK    8  A    between atoms: C_12  and  N_13
REMARK    9  A    between atoms: N_13  and  C_14
REMARK   10  A    between atoms: C_14  and  C_15
REMARK   11  A    between atoms: C_14  and  C_16
REMARK   12  A    between atoms: C_16  and  C_17
REMARK   13  A    between atoms: C_17  and  C_18
REMARK   14  A    between atoms: C_29  and  O_30
REMARK                            x       y       z     vdW  Elec       q    Type
REMARK                         _______ _______ _______ _____ _____    ______ ____
ROOT
ATOM      1  C   UNL     1       2.607   3.084  17.382  0.00  0.00    +0.000 C 
ENDROOT
BRANCH   1   4
ATOM      2  C   UNL     1       5.650   4.881  15.905  0.00  0.00    +0.000 A 
ATOM      3  C   UNL     1       4.598   3.975  16.106  0.00  0.00    +0.000 A 
ATOM      4  C   UNL     1       3.694   4.125  17.175  0.00  0.00    +0.000 A 
ATOM      5  C   UNL     1       3.828   5.253  17.994  0.00  0.00    +0.000 A 
ATOM      6  C   UNL     1       4.857   6.175  17.792  0.00  0.00    +0.000 A 
ATOM      7  C   UNL     1       5.771   5.985  16.757  0.00  0.00    +0.000 A 
BRANCH   2   9
ATOM      8  N   UNL     1       6.060   3.948  13.701  0.00  0.00    +0.000 N 
ATOM      9  C   UNL     1       6.603   4.568  14.802  0.00  0.00    +0.000 C 
ATOM     10  O   UNL     1       7.778   4.904  14.880  0.00  0.00    +0.000 OA
ATOM     11  H   UNL     1       5.134   3.546  13.816  0.00  0.00    +0.000 HD
BRANCH   8  13
ATOM     12  C   UNL     1       6.067   2.620  11.651  0.00  0.00    +0.000 C 
ATOM     13  C   UNL     1       6.850   3.577  12.545  0.00  0.00    +0.000 C 
ATOM     14  C   UNL     1       7.254   4.834  11.781  0.00  0.00    +0.000 C 
ENDBRANCH   8  13
ENDBRANCH   2   9
BRANCH   7  15
ATOM     15  O   UNL     1       6.783   6.892  16.592  0.00  0.00    +0.000 OA
ATOM     16  H   UNL     1       7.590   6.416  16.330  0.00  0.00    +0.000 HD
ENDBRANCH   7  15
ENDBRANCH   1   4
BRANCH   1  17
ATOM     17  O   UNL     1       3.174   1.906  17.969  0.00  0.00    +0.000 OA
ATOM     18  H   UNL     1       3.706   2.223  18.723  0.00  0.00    +0.000 HD
ENDBRANCH   1  17
BRANCH   1  19
ATOM     19  C   UNL     1       1.409   3.519  18.266  0.00  0.00    +0.000 C 
BRANCH  19  20
ATOM     20  N   UNL     1       1.343   2.772  19.541  0.00  0.00    +0.000 NA
ATOM     21  H   UNL     1       2.217   2.257  19.650  0.00  0.00    +0.000 HD
BRANCH  20  22
ATOM     22  C   UNL     1       1.139   3.648  20.706  0.00  0.00    +0.000 C 
ATOM     23  C   UNL     1       2.345   3.601  21.652  0.00  0.00    +0.000 C 
BRANCH  22  24
ATOM     24  C   UNL     1       0.907   5.103  20.243  0.00  0.00    +0.000 C 
BRANCH  24  25
ATOM     25  C   UNL     1       2.002   6.072  20.707  0.00  0.00    +0.000 C 
BRANCH  25  26
ATOM     26  C   UNL     1       1.633   7.511  20.447  0.00  0.00    +0.000 A 
ATOM     27  C   UNL     1       1.802   8.063  19.155  0.00  0.00    +0.000 A 
ATOM     28  C   UNL     1       1.472   9.396  18.894  0.00  0.00    +0.000 A 
ATOM     29  C   UNL     1       0.990  10.151  19.940  0.00  0.00    +0.000 A 
ATOM     30  C   UNL     1       0.827   9.624  21.199  0.00  0.00    +0.000 A 
ATOM     31  C   UNL     1       1.137   8.312  21.486  0.00  0.00    +0.000 A 
ATOM     32  O   UNL     1       0.342  10.534  22.085  0.00  0.00    +0.000 OA
ATOM     33  C   UNL     1       0.266  11.707  21.250  0.00  0.00    +0.000 C 
ATOM     34  O   UNL     1       0.629  11.461  19.875  0.00  0.00    +0.000 OA
ENDBRANCH  25  26
ENDBRANCH  24  25
ENDBRANCH  22  24
ENDBRANCH  20  22
ENDBRANCH  19  20
ENDBRANCH   1  19
TORSDOF 11
ENDMDL
MODEL 4
REMARK VINA RESULT:      -7.8      1.083      1.226
REMARK  Name = 
REMARK  14 active torsions:
REMARK  status: ('A' for Active; 'I' for Inactive)
REMARK    1  A    between atoms: C_1  and  C_2
REMARK    2  A    between atoms: C_2  and  C_3
REMARK    3  A    between atoms: C_2  and  N_4
REMARK    4  A    between atoms: C_5  and  C_7
REMARK    5  A    between atoms: C_9  and  C_10
REMARK    6  A    between atoms: C_10  and  O_11
REMARK    7  A    between atoms: C_10  and  C_12
REMARK    8  A    between atoms: C_12  and  N_13
REMARK    9  A    between atoms: N_13  and  C_14
REMARK   10  A    between atoms: C_14  and  C_15
REMARK   11  A    between atoms: C_14  and  C_16
REMARK   12  A    between atoms: C_16  and  C_17
REMARK   13  A    between atoms: C_17  and  C_18
REMARK   14  A    between atoms: C_29  and  O_30
REMARK                            x       y       z     vdW  Elec       q    Type
REMARK                         _______ _______ _______ _____ _____    ______ ____
ROOT
ATOM      1  C   UNL     1       4.271   2.349  18.987  0.00  0.00    +0.000 C 
ENDROOT
BRANCH   1   4
ATOM      2  C   UNL     1       5.727   5.196  16.879  0.00  0.00    +0.000 A 
ATOM      3  C   UNL     1       5.026   4.047  17.274  0.00  0.00    +0.000 A 
ATOM      4  C   UNL     1       4.995   3.633  18.620  0.00  0.00    +0.000 A 
ATOM      5  C   UNL     1       5.624   4.446  19.571  0.00  0.00    +0.000 A 
ATOM      6  C   UNL     1       6.307   5.605  19.194  0.00  0.00    +0.000 A 
ATOM      7  C   UNL     1       6.366   5.973  17.851  0.00  0.00    +0.000 A 
BRANCH   2   9
ATOM      8  N   UNL     1       6.330   4.500  14.632  0.00  0.00    +0.000 N 
ATOM      9  C   UNL     1       5.772   5.483  15.416  0.00  0.00    +0.000 C 
ATOM     10  O   UNL     1       5.287   6.513  14.968  0.00  0.00    +0.000 OA
ATOM     11  H   UNL     1       6.867   3.785  15.112  0.00  0.00    +0.000 HD
BRANCH   8  13
ATOM     12  C   UNL     1       7.834   5.140  12.817  0.00  0.00    +0.000 C 
ATOM     13  C   UNL     1       6.449   4.623  13.194  0.00  0.00    +0.000 C 
ATOM     14  C   UNL     1       6.173   3.271  12.543  0.00  0.00    +0.000 C 
ENDBRANCH   8  13
ENDBRANCH   2   9
BRANCH   7  15
ATOM     15  O   UNL     1       7.057   7.104  17.504  0.00  0.00    +0.000 OA
ATOM     16  H   UNL     1       7.575   6.919  16.702  0.00  0.00    +0.000 HD
ENDBRANCH   7  15
ENDBRANCH   1   4
BRANCH   1  17
ATOM     17  O   UNL     1       5.114   1.539  19.814  0.00  0.00    +0.000 OA
ATOM     18  H   UNL     1       6.007   1.615  19.427  0.00  0.00    +0.000 HD
ENDBRANCH   1  17
BRANCH   1  19
ATOM     19  C   UNL     1       2.915   2.521  19.723  0.00  0.00    +0.000 C 
BRANCH  19  20
ATOM     20  N   UNL     1       1.868   3.100  18.854  0.00  0.00    +0.000 NA
ATOM     21  H   UNL     1       1.075   2.459  18.844  0.00  0.00    +0.000 HD
BRANCH  20  22
ATOM     22  C   UNL     1       1.421   4.428  19.307  0.00  0.00    +0.000 C 
ATOM     23  C   UNL     1       1.956   4.744  20.708  0.00  0.00    +0.000 C 
BRANCH  22  24
ATOM     24  C   UNL     1       1.898   5.515  18.318  0.00  0.00    +0.000 C 
BRANCH  24  25
ATOM     25  C   UNL     1       2.781   6.586  18.971  0.00  0.00    +0.000 C 
BRANCH  25  26
ATOM     26  C   UNL     1       2.102   7.932  19.015  0.00  0.00    +0.000 A 
ATOM     27  C   UNL     1       2.103   8.763  17.870  0.00  0.00    +0.000 A 
ATOM     28  C   UNL     1       1.483  10.016  17.891  0.00  0.00    +0.000 A 
ATOM     29  C   UNL     1       0.886  10.414  19.066  0.00  0.00    +0.000 A 
ATOM     30  C   UNL     1       0.885   9.614  20.185  0.00  0.00    +0.000 A 
ATOM     31  C   UNL     1       1.481   8.371  20.193  0.00  0.00    +0.000 A 
ATOM     32  O   UNL     1       0.246  10.192  21.237  0.00  0.00    +0.000 OA
ATOM     33  C   UNL     1      -0.110  11.468  20.666  0.00  0.00    +0.000 C 
ATOM     34  O   UNL     1       0.249  11.597  19.274  0.00  0.00    +0.000 OA
ENDBRANCH  25  26
ENDBRANCH  24  25
ENDBRANCH  22  24
ENDBRANCH  20  22
ENDBRANCH  19  20
ENDBRANCH   1  19
TORSDOF 11
ENDMDL
MODEL 5
REMARK VINA RESULT:      -7.8      1.008      1.091
REMARK  Name = 
REMARK  14 active torsions:
REMARK  status: ('A' for Active; 'I' for Inactive)
REMARK    1  A    between atoms: C_1  and  C_2
REMARK    2  A    between atoms: C_2  and  C_3
REMARK    3  A    between atoms: C_2  and  N_4
REMARK    4  A    between atoms: C_5  and  C_7
REMARK    5  A    between atoms: C_9  and  C_10
REMARK    6  A    between atoms: C_10  and  O_11
REMARK    7  A    between atoms: C_10  and  C_12
REMARK    8  A    between atoms: C_12  and  N_13
REMARK    9  A    between atoms: N_13  and  C_14
REMARK   10  A    between atoms: C_14  and  C_15
REMARK   11  A    between atoms: C_14  and  C_16
REMARK   12  A    between atoms: C_16  and  C_17
REMARK   13  A    between atoms: C_17  and  C_18
REMARK   14  A    between atoms: C_29  and  O_30
REMARK                            x       y       z     vdW  Elec       q    Type
REMARK                         _______ _______ _______ _____ _____    ______ ____
ROOT
ATOM      1  C   UNL     1       3.921   2.673  18.769  0.00  0.00    +0.000 C 
ENDROOT
BRANCH   1   4
ATOM      2  C   UNL     1       5.741   4.993  16.325  0.00  0.00    +0.000 A 
ATOM      3  C   UNL     1       4.839   4.069  16.873  0.00  0.00    +0.000 A 
ATOM      4  C   UNL     1       4.882   3.722  18.238  0.00  0.00    +0.000 A 
ATOM      5  C   UNL     1       5.807   4.385  19.054  0.00  0.00    +0.000 A 
ATOM      6  C   UNL     1       6.697   5.324  18.525  0.00  0.00    +0.000 A 
ATOM      7  C   UNL     1       6.670   5.619  17.164  0.00  0.00    +0.000 A 
BRANCH   2   9
ATOM      8  N   UNL     1       5.891   4.098  14.072  0.00  0.00    +0.000 N 
ATOM      9  C   UNL     1       5.666   5.209  14.851  0.00  0.00    +0.000 C 
ATOM     10  O   UNL     1       5.367   6.306  14.397  0.00  0.00    +0.000 OA
ATOM     11  H   UNL     1       6.314   3.298  14.533  0.00  0.00    +0.000 HD
BRANCH   8  13
ATOM     12  C   UNL     1       7.195   3.696  12.046  0.00  0.00    +0.000 C 
ATOM     13  C   UNL     1       5.854   4.138  12.625  0.00  0.00    +0.000 C 
ATOM     14  C   UNL     1       4.721   3.252  12.120  0.00  0.00    +0.000 C 
ENDBRANCH   8  13
ENDBRANCH   2   9
BRANCH   7  15
ATOM     15  O   UNL     1       7.564   6.529  16.666  0.00  0.00    +0.000 OA
ATOM     16  H   UNL     1       7.879   6.216  15.800  0.00  0.00    +0.000 HD
ENDBRANCH   7  15
ENDBRANCH   1   4
BRANCH   1  17
ATOM     17  O   UNL     1       4.228   1.400  18.188  0.00  0.00    +0.000 OA
ATOM     18  H   UNL     1       4.900   1.003  18.774  0.00  0.00    +0.000 HD
ENDBRANCH   1  17
BRANCH   1  19
ATOM     19  C   UNL     1       3.897   2.492  20.310  0.00  0.00    +0.000 C 
BRANCH  19  20
ATOM     20  N   UNL     1       2.587   2.840  20.901  0.00  0.00    +0.000 NA
ATOM     21  H   UNL     1       2.756   3.315  21.788  0.00  0.00    +0.000 HD
BRANCH  20  22
ATOM     22  C   UNL     1       1.778   3.705  20.026  0.00  0.00    +0.000 C 
ATOM     23  C   UNL     1       0.366   3.138  19.839  0.00  0.00    +0.000 C 
BRANCH  22  24
ATOM     24  C   UNL     1       1.684   5.127  20.624  0.00  0.00    +0.000 C 
BRANCH  24  25
ATOM     25  C   UNL     1       2.756   6.084  20.089  0.00  0.00    +0.000 C 
BRANCH  25  26
ATOM     26  C   UNL     1       2.169   7.395  19.630  0.00  0.00    +0.000 A 
ATOM     27  C   UNL     1       2.304   7.797  18.280  0.00  0.00    +0.000 A 
ATOM     28  C   UNL     1       1.771   9.010  17.835  0.00  0.00    +0.000 A 
ATOM     29  C   UNL     1       1.125   9.802  18.758  0.00  0.00    +0.000 A 
ATOM     30  C   UNL     1       0.994   9.420  20.073  0.00  0.00    +0.000 A 
ATOM     31  C   UNL     1       1.502   8.227  20.540  0.00  0.00    +0.000 A 
ATOM     32  O   UNL     1       0.327  10.341  20.818  0.00  0.00    +0.000 OA
ATOM     33  C   UNL     1       0.097  11.368  19.831  0.00  0.00    +0.000 C 
ATOM     34  O   UNL     1       0.557  11.012  18.511  0.00  0.00    +0.000 OA
ENDBRANCH  25  26
ENDBRANCH  24  25
ENDBRANCH  22  24
ENDBRANCH  20  22
ENDBRANCH  19  20
ENDBRANCH   1  19
TORSDOF 11
ENDMDL
MODEL 6
REMARK VINA RESULT:      -7.6      1.297      1.760
REMARK  Name = 
REMARK  14 active torsions:
REMARK  status: ('A' for Active; 'I' for Inactive)
REMARK    1  A    between atoms: C_1  and  C_2
REMARK    2  A    between atoms: C_2  and  C_3
REMARK    3  A    between atoms: C_2  and  N_4
REMARK    4  A    between atoms: C_5  and  C_7
REMARK    5  A    between atoms: C_9  and  C_10
REMARK    6  A    between atoms: C_10  and  O_11
REMARK    7  A    between atoms: C_10  and  C_12
REMARK    8  A    between atoms: C_12  and  N_13
REMARK    9  A    between atoms: N_13  and  C_14
REMARK   10  A    between atoms: C_14  and  C_15
REMARK   11  A    between atoms: C_14  and  C_16
REMARK   12  A    between atoms: C_16  and  C_17
REMARK   13  A    between atoms: C_17  and  C_18
REMARK   14  A    between atoms: C_29  and  O_30
REMARK                            x       y       z     vdW  Elec       q    Type
REMARK                         _______ _______ _______ _____ _____    ______ ____
ROOT
ATOM      1  C   UNL     1       3.338   3.565  17.718  0.00  0.00    +0.000 C 
ENDROOT
BRANCH   1   4
ATOM      2  C   UNL     1       5.972   4.599  15.137  0.00  0.00    +0.000 A 
ATOM      3  C   UNL     1       4.827   4.054  15.735  0.00  0.00    +0.000 A 
ATOM      4  C   UNL     1       4.562   4.226  17.108  0.00  0.00    +0.000 A 
ATOM      5  C   UNL     1       5.441   5.026  17.849  0.00  0.00    +0.000 A 
ATOM      6  C   UNL     1       6.574   5.594  17.262  0.00  0.00    +0.000 A 
ATOM      7  C   UNL     1       6.843   5.373  15.912  0.00  0.00    +0.000 A 
BRANCH   2   9
ATOM      8  N   UNL     1       5.215   3.524  13.095  0.00  0.00    +0.000 N 
ATOM      9  C   UNL     1       6.200   4.270  13.701  0.00  0.00    +0.000 C 
ATOM     10  O   UNL     1       7.184   4.699  13.112  0.00  0.00    +0.000 OA
ATOM     11  H   UNL     1       4.550   3.065  13.710  0.00  0.00    +0.000 HD
BRANCH   8  13
ATOM     12  C   UNL     1       5.880   1.721  11.587  0.00  0.00    +0.000 C 
ATOM     13  C   UNL     1       5.284   3.121  11.706  0.00  0.00    +0.000 C 
ATOM     14  C   UNL     1       3.890   3.178  11.090  0.00  0.00    +0.000 C 
ENDBRANCH   8  13
ENDBRANCH   2   9
BRANCH   7  15
ATOM     15  O   UNL     1       7.970   5.925  15.364  0.00  0.00    +0.000 OA
ATOM     16  H   UNL     1       8.721   5.761  15.961  0.00  0.00    +0.000 HD
ENDBRANCH   7  15
ENDBRANCH   1   4
BRANCH   1  17
ATOM     17  O   UNL     1       2.592   2.895  16.696  0.00  0.00    +0.000 OA
ATOM     18  H   UNL     1       2.135   3.602  16.203  0.00  0.00    +0.000 HD
ENDBRANCH   1  17
BRANCH   1  19
ATOM     19  C   UNL     1       3.614   2.539  18.849  0.00  0.00    +0.000 C 
BRANCH  19  20
ATOM     20  N   UNL     1       3.392   3.107  20.197  0.00  0.00    +0.000 NA
ATOM     21  H   UNL     1       4.147   3.766  20.390  0.00  0.00    +0.000 HD
BRANCH  20  22
ATOM     22  C   UNL     1       2.096   3.795  20.319  0.00  0.00    +0.000 C 
ATOM     23  C   UNL     1       1.135   3.008  21.219  0.00  0.00    +0.000 C 
BRANCH  22  24
ATOM     24  C   UNL     1       2.298   5.212  20.900  0.00  0.00    +0.000 C 
BRANCH  24  25
ATOM     25  C   UNL     1       2.623   6.266  19.835  0.00  0.00    +0.000 C 
BRANCH  25  26
ATOM     26  C   UNL     1       1.831   7.534  20.031  0.00  0.00    +0.000 A 
ATOM     27  C   UNL     1       1.162   7.768  21.256  0.00  0.00    +0.000 A 
ATOM     28  C   UNL     1       0.418   8.935  21.456  0.00  0.00    +0.000 A 
ATOM     29  C   UNL     1       0.350   9.836  20.417  0.00  0.00    +0.000 A 
ATOM     30  C   UNL     1       0.992   9.613  19.222  0.00  0.00    +0.000 A 
ATOM     31  C   UNL     1       1.739   8.477  18.997  0.00  0.00    +0.000 A 
ATOM     32  O   UNL     1       0.797  10.621  18.331  0.00  0.00    +0.000 OA
ATOM     33  C   UNL     1      -0.083  11.479  19.085  0.00  0.00    +0.000 C 
ATOM     34  O   UNL     1      -0.332  11.012  20.428  0.00  0.00    +0.000 OA
ENDBRANCH  25  26
ENDBRANCH  24  25
ENDBRANCH  22  24
ENDBRANCH  20  22
ENDBRANCH  19  20
ENDBRANCH   1  19
TORSDOF 11
ENDMDL
MODEL 7
REMARK VINA RESULT:      -7.4      1.151      1.785
REMARK  Name = 
REMARK  14 active torsions:
REMARK  status: ('A' for Active; 'I' for Inactive)
REMARK    1  A    between atoms: C_1  and  C_2
REMARK    2  A    between atoms: C_2  and  C_3
REMARK    3  A    between atoms: C_2  and  N_4
REMARK    4  A    between atoms: C_5  and  C_7
REMARK    5  A    between atoms: C_9  and  C_10
REMARK    6  A    between atoms: C_10  and  O_11
REMARK    7  A    between atoms: C_10  and  C_12
REMARK    8  A    between atoms: C_12  and  N_13
REMARK    9  A    between atoms: N_13  and  C_14
REMARK   10  A    between atoms: C_14  and  C_15
REMARK   11  A    between atoms: C_14  and  C_16
REMARK   12  A    between atoms: C_16  and  C_17
REMARK   13  A    between atoms: C_17  and  C_18
REMARK   14  A    between atoms: C_29  and  O_30
REMARK                            x       y       z     vdW  Elec       q    Type
REMARK                         _______ _______ _______ _____ _____    ______ ____
ROOT
ATOM      1  C   UNL     1       3.841   3.084  18.169  0.00  0.00    +0.000 C 
ENDROOT
BRANCH   1   4
ATOM      2  C   UNL     1       6.367   4.918  15.950  0.00  0.00    +0.000 A 
ATOM      3  C   UNL     1       5.361   4.048  16.395  0.00  0.00    +0.000 A 
ATOM      4  C   UNL     1       4.890   4.087  17.722  0.00  0.00    +0.000 A 
ATOM      5  C   UNL     1       5.404   5.075  18.571  0.00  0.00    +0.000 A 
ATOM      6  C   UNL     1       6.390   5.963  18.135  0.00  0.00    +0.000 A 
ATOM      7  C   UNL     1       6.876   5.878  16.832  0.00  0.00    +0.000 A 
BRANCH   2   9
ATOM      8  N   UNL     1       6.220   3.736  13.834  0.00  0.00    +0.000 N 
ATOM      9  C   UNL     1       6.855   4.720  14.556  0.00  0.00    +0.000 C 
ATOM     10  O   UNL     1       7.731   5.441  14.094  0.00  0.00    +0.000 OA
ATOM     11  H   UNL     1       5.653   3.080  14.361  0.00  0.00    +0.000 HD
BRANCH   8  13
ATOM     12  C   UNL     1       5.352   2.920  11.701  0.00  0.00    +0.000 C 
ATOM     13  C   UNL     1       6.575   3.420  12.466  0.00  0.00    +0.000 C 
ATOM     14  C   UNL     1       7.173   4.653  11.797  0.00  0.00    +0.000 C 
ENDBRANCH   8  13
ENDBRANCH   2   9
BRANCH   7  15
ATOM     15  O   UNL     1       7.857   6.747  16.433  0.00  0.00    +0.000 OA
ATOM     16  H   UNL     1       7.522   7.656  16.519  0.00  0.00    +0.000 HD
ENDBRANCH   7  15
ENDBRANCH   1   4
BRANCH   1  17
ATOM     17  O   UNL     1       4.326   2.349  19.300  0.00  0.00    +0.000 OA
ATOM     18  H   UNL     1       3.836   1.505  19.289  0.00  0.00    +0.000 HD
ENDBRANCH   1  17
BRANCH   1  19
ATOM     19  C   UNL     1       2.457   3.673  18.550  0.00  0.00    +0.000 C 
BRANCH  19  20
ATOM     20  N   UNL     1       2.202   4.981  17.909  0.00  0.00    +0.000 NA
ATOM     21  H   UNL     1       1.444   4.862  17.237  0.00  0.00    +0.000 HD
BRANCH  20  22
ATOM     22  C   UNL     1       1.839   6.030  18.878  0.00  0.00    +0.000 C 
ATOM     23  C   UNL     1       2.055   5.552  20.318  0.00  0.00    +0.000 C 
BRANCH  22  24
ATOM     24  C   UNL     1       2.683   7.299  18.627  0.00  0.00    +0.000 C 
BRANCH  24  25
ATOM     25  C   UNL     1       1.953   8.361  17.794  0.00  0.00    +0.000 C 
BRANCH  25  26
ATOM     26  C   UNL     1       1.054   9.226  18.640  0.00  0.00    +0.000 A 
ATOM     27  C   UNL     1      -0.057   9.878  18.054  0.00  0.00    +0.000 A 
ATOM     28  C   UNL     1      -0.900  10.688  18.819  0.00  0.00    +0.000 A 
ATOM     29  C   UNL     1      -0.603  10.839  20.156  0.00  0.00    +0.000 A 
ATOM     30  C   UNL     1       0.477  10.212  20.732  0.00  0.00    +0.000 A 
ATOM     31  C   UNL     1       1.322   9.401  20.005  0.00  0.00    +0.000 A 
ATOM     32  O   UNL     1       0.594  10.491  22.057  0.00  0.00    +0.000 OA
ATOM     33  C   UNL     1      -0.508  11.405  22.237  0.00  0.00    +0.000 C 
ATOM     34  O   UNL     1      -1.302  11.592  21.046  0.00  0.00    +0.000 OA
ENDBRANCH  25  26
ENDBRANCH  24  25
ENDBRANCH  22  24
ENDBRANCH  20  22
ENDBRANCH  19  20
ENDBRANCH   1  19
TORSDOF 11
ENDMDL
MODEL 8
REMARK VINA RESULT:      -7.4      2.201      8.084
REMARK  Name = 
REMARK  14 active torsions:
REMARK  status: ('A' for Active; 'I' for Inactive)
REMARK    1  A    between atoms: C_1  and  C_2
REMARK    2  A    between atoms: C_2  and  C_3
REMARK    3  A    between atoms: C_2  and  N_4
REMARK    4  A    between atoms: C_5  and  C_7
REMARK    5  A    between atoms: C_9  and  C_10
REMARK    6  A    between atoms: C_10  and  O_11
REMARK    7  A    between atoms: C_10  and  C_12
REMARK    8  A    between atoms: C_12  and  N_13
REMARK    9  A    between atoms: N_13  and  C_14
REMARK   10  A    between atoms: C_14  and  C_15
REMARK   11  A    between atoms: C_14  and  C_16
REMARK   12  A    between atoms: C_16  and  C_17
REMARK   13  A    between atoms: C_17  and  C_18
REMARK   14  A    between atoms: C_29  and  O_30
REMARK                            x       y       z     vdW  Elec       q    Type
REMARK                         _______ _______ _______ _____ _____    ______ ____
ROOT
ATOM      1  C   UNL     1       1.850   5.452  20.787  0.00  0.00    +0.000 C 
ENDROOT
BRANCH   1   4
ATOM      2  C   UNL     1       1.453   9.071  19.600  0.00  0.00    +0.000 A 
ATOM      3  C   UNL     1       1.466   7.920  20.400  0.00  0.00    +0.000 A 
ATOM      4  C   UNL     1       1.911   6.681  19.897  0.00  0.00    +0.000 A 
ATOM      5  C   UNL     1       2.414   6.647  18.591  0.00  0.00    +0.000 A 
ATOM      6  C   UNL     1       2.428   7.791  17.790  0.00  0.00    +0.000 A 
ATOM      7  C   UNL     1       1.940   8.997  18.290  0.00  0.00    +0.000 A 
BRANCH   2   9
ATOM      8  N   UNL     1      -0.019  10.994  19.415  0.00  0.00    +0.000 N 
ATOM      9  C   UNL     1       0.870  10.302  20.206  0.00  0.00    +0.000 C 
ATOM     10  O   UNL     1       1.142  10.620  21.357  0.00  0.00    +0.000 OA
ATOM     11  H   UNL     1      -0.026  10.759  18.428  0.00  0.00    +0.000 HD
BRANCH   8  13
ATOM     12  C   UNL     1      -0.141  13.411  19.080  0.00  0.00    +0.000 C 
ATOM     13  C   UNL     1      -0.673  12.209  19.856  0.00  0.00    +0.000 C 
ATOM     14  C   UNL     1      -2.181  12.067  19.679  0.00  0.00    +0.000 C 
ENDBRANCH   8  13
ENDBRANCH   2   9
BRANCH   7  15
ATOM     15  O   UNL     1       1.947  10.101  17.479  0.00  0.00    +0.000 OA
ATOM     16  H   UNL     1       1.721  10.882  18.013  0.00  0.00    +0.000 HD
ENDBRANCH   7  15
ENDBRANCH   1   4
BRANCH   1  17
ATOM     17  O   UNL     1       0.690   4.677  20.460  0.00  0.00    +0.000 OA
ATOM     18  H   UNL     1       0.951   3.748  20.606  0.00  0.00    +0.000 HD
ENDBRANCH   1  17
BRANCH   1  19
ATOM     19  C   UNL     1       3.080   4.507  20.726  0.00  0.00    +0.000 C 
BRANCH  19  20
ATOM     20  N   UNL     1       2.696   3.084  20.610  0.00  0.00    +0.000 NA
ATOM     21  H   UNL     1       1.678   3.027  20.647  0.00  0.00    +0.000 HD
BRANCH  20  22
ATOM     22  C   UNL     1       3.179   2.462  19.366  0.00  0.00    +0.000 C 
ATOM     23  C   UNL     1       2.010   2.053  18.462  0.00  0.00    +0.000 C 
BRANCH  22  24
ATOM     24  C   UNL     1       4.098   3.443  18.604  0.00  0.00    +0.000 C 
BRANCH  24  25
ATOM     25  C   UNL     1       3.853   3.455  17.090  0.00  0.00    +0.000 C 
BRANCH  25  26
ATOM     26  C   UNL     1       5.019   4.037  16.331  0.00  0.00    +0.000 A 
ATOM     27  C   UNL     1       5.960   4.856  16.999  0.00  0.00    +0.000 A 
ATOM     28  C   UNL     1       7.045   5.409  16.313  0.00  0.00    +0.000 A 
ATOM     29  C   UNL     1       7.156   5.139  14.967  0.00  0.00    +0.000 A 
ATOM     30  C   UNL     1       6.244   4.347  14.310  0.00  0.00    +0.000 A 
ATOM     31  C   UNL     1       5.168   3.782  14.960  0.00  0.00    +0.000 A 
ATOM     32  O   UNL     1       6.533   4.207  12.989  0.00  0.00    +0.000 OA
ATOM     33  C   UNL     1       7.705   5.041  12.881  0.00  0.00    +0.000 C 
ATOM     34  O   UNL     1       8.135   5.597  14.142  0.00  0.00    +0.000 OA
ENDBRANCH  25  26
ENDBRANCH  24  25
ENDBRANCH  22  24
ENDBRANCH  20  22
ENDBRANCH  19  20
ENDBRANCH   1  19
TORSDOF 11
ENDMDL
MODEL 9
REMARK VINA RESULT:      -7.4      4.583      7.676
REMARK  Name = 
REMARK  14 active torsions:
REMARK  status: ('A' for Active; 'I' for Inactive)
REMARK    1  A    between atoms: C_1  and  C_2
REMARK    2  A    between atoms: C_2  and  C_3
REMARK    3  A    between atoms: C_2  and  N_4
REMARK    4  A    between atoms: C_5  and  C_7
REMARK    5  A    between atoms: C_9  and  C_10
REMARK    6  A    between atoms: C_10  and  O_11
REMARK    7  A    between atoms: C_10  and  C_12
REMARK    8  A    between atoms: C_12  and  N_13
REMARK    9  A    between atoms: N_13  and  C_14
REMARK   10  A    between atoms: C_14  and  C_15
REMARK   11  A    between atoms: C_14  and  C_16
REMARK   12  A    between atoms: C_16  and  C_17
REMARK   13  A    between atoms: C_17  and  C_18
REMARK   14  A    between atoms: C_29  and  O_30
REMARK                            x       y       z     vdW  Elec       q    Type
REMARK                         _______ _______ _______ _____ _____    ______ ____
ROOT
ATOM      1  C   UNL     1       5.476   5.412  15.996  0.00  0.00    +0.000 C 
ENDROOT
BRANCH   1   4
ATOM      2  C   UNL     1       2.909   6.542  18.605  0.00  0.00    +0.000 A 
ATOM      3  C   UNL     1       3.763   6.514  17.492  0.00  0.00    +0.000 A 
ATOM      4  C   UNL     1       4.522   5.370  17.178  0.00  0.00    +0.000 A 
ATOM      5  C   UNL     1       4.345   4.228  17.968  0.00  0.00    +0.000 A 
ATOM      6  C   UNL     1       3.481   4.234  19.066  0.00  0.00    +0.000 A 
ATOM      7  C   UNL     1       2.773   5.390  19.388  0.00  0.00    +0.000 A 
BRANCH   2   9
ATOM      8  N   UNL     1       1.850   8.573  17.798  0.00  0.00    +0.000 N 
ATOM      9  C   UNL     1       2.231   7.837  18.897  0.00  0.00    +0.000 C 
ATOM     10  O   UNL     1       1.993   8.170  20.050  0.00  0.00    +0.000 OA
ATOM     11  H   UNL     1       2.259   8.306  16.908  0.00  0.00    +0.000 HD
BRANCH   8  13
ATOM     12  C   UNL     1      -0.086   9.717  18.751  0.00  0.00    +0.000 C 
ATOM     13  C   UNL     1       1.180   9.852  17.910  0.00  0.00    +0.000 C 
ATOM     14  C   UNL     1       2.135  10.875  18.516  0.00  0.00    +0.000 C 
ENDBRANCH   8  13
ENDBRANCH   2   9
BRANCH   7  15
ATOM     15  O   UNL     1       1.947   5.378  20.481  0.00  0.00    +0.000 OA
ATOM     16  H   UNL     1       1.123   5.842  20.255  0.00  0.00    +0.000 HD
ENDBRANCH   7  15
ENDBRANCH   1   4
BRANCH   1  17
ATOM     17  O   UNL     1       5.258   6.610  15.242  0.00  0.00    +0.000 OA
ATOM     18  H   UNL     1       5.837   7.281  15.650  0.00  0.00    +0.000 HD
ENDBRANCH   1  17
BRANCH   1  19
ATOM     19  C   UNL     1       6.987   5.342  16.341  0.00  0.00    +0.000 C 
BRANCH  19  20
ATOM     20  N   UNL     1       7.557   6.667  16.666  0.00  0.00    +0.000 NA
ATOM     21  H   UNL     1       7.057   7.369  16.120  0.00  0.00    +0.000 HD
BRANCH  20  22
ATOM     22  C   UNL     1       7.456   6.996  18.098  0.00  0.00    +0.000 C 
ATOM     23  C   UNL     1       7.675   5.752  18.968  0.00  0.00    +0.000 C 
BRANCH  22  24
ATOM     24  C   UNL     1       8.498   8.073  18.471  0.00  0.00    +0.000 C 
BRANCH  24  25
ATOM     25  C   UNL     1       8.239   9.428  17.802  0.00  0.00    +0.000 C 
BRANCH  25  26
ATOM     26  C   UNL     1       8.939  10.557  18.516  0.00  0.00    +0.000 A 
ATOM     27  C   UNL     1       9.351  10.397  19.860  0.00  0.00    +0.000 A 
ATOM     28  C   UNL     1       9.997  11.432  20.542  0.00  0.00    +0.000 A 
ATOM     29  C   UNL     1      10.204  12.612  19.864  0.00  0.00    +0.000 A 
ATOM     30  C   UNL     1       9.803  12.778  18.559  0.00  0.00    +0.000 A 
ATOM     31  C   UNL     1       9.171  11.773  17.858  0.00  0.00    +0.000 A 
ATOM     32  O   UNL     1      10.100  14.013  18.077  0.00  0.00    +0.000 OA
ATOM     33  C   UNL     1      10.689  14.623  19.244  0.00  0.00    +0.000 C 
ATOM     34  O   UNL     1      10.803  13.724  20.367  0.00  0.00    +0.000 OA
ENDBRANCH  25  26
ENDBRANCH  24  25
ENDBRANCH  22  24
ENDBRANCH  20  22
ENDBRANCH  19  20
ENDBRANCH   1  19
TORSDOF 11
ENDMDL
