MODEL 1
REMARK VINA RESULT:      -8.3      0.000      0.000
REMARK  Name = 
REMARK  11 active torsions:
REMARK  status: ('A' for Active; 'I' for Inactive)
REMARK    1  A    between atoms: C_1  and  C_2
REMARK    2  A    between atoms: C_2  and  C_3
REMARK    3  A    between atoms: C_3  and  O_4
REMARK    4  A    between atoms: C_3  and  C_5
REMARK    5  A    between atoms: C_10  and  N_11
REMARK    6  A    between atoms: N_11  and  C_12
REMARK    7  A    between atoms: C_13  and  C_14
REMARK    8  A    between atoms: C_21  and  C_22
REMARK    9  A    between atoms: N_25  and  C_26
REMARK   10  A    between atoms: C_30  and  C_31
REMARK   11  A    between atoms: C_31  and  C_32
REMARK                            x       y       z     vdW  Elec       q    Type
REMARK                         _______ _______ _______ _____ _____    ______ ____
ROOT
ATOM      1  C   UNL     1       3.828   4.240  19.573  0.00  0.00    +0.000 A 
ATOM      2  C   UNL     1       3.389   2.962  19.758  0.00  0.00    +0.000 A 
ATOM      3  C   UNL     1       1.980   2.769  20.189  0.00  0.00    +0.000 A 
ATOM      4  N   UNL     1       1.139   3.668  20.555  0.00  0.00    +0.000 NA
ATOM      5  N   UNL     1       1.649   4.904  20.442  0.00  0.00    +0.000 N 
ATOM      6  C   UNL     1       0.944   6.001  20.827  0.00  0.00    +0.000 A 
ATOM      7  C   UNL     1       1.685   7.114  20.530  0.00  0.00    +0.000 A 
ATOM      8  C   UNL     1       2.892   6.668  19.925  0.00  0.00    +0.000 A 
ATOM      9  C   UNL     1       2.891   5.278  19.942  0.00  0.00    +0.000 A 
ENDROOT
BRANCH   7  10
ATOM     10  C   UNL     1       1.278   8.477  20.821  0.00  0.00    +0.000 A 
ATOM     11  C   UNL     1       1.228   9.111  22.073  0.00  0.00    +0.000 A 
ATOM     12  N   UNL     1       0.781  10.371  21.987  0.00  0.00    +0.000 NA
ATOM     13  N   UNL     1       0.543  10.530  20.664  0.00  0.00    +0.000 N 
ATOM     14  C   UNL     1       0.022  11.779  20.167  0.00  0.00    +0.000 C 
ATOM     15  C   UNL     1       0.835   9.428  19.927  0.00  0.00    +0.000 A 
ENDBRANCH   7  10
BRANCH   2  16
ATOM     16  C   UNL     1       4.230   1.755  19.574  0.00  0.00    +0.000 C 
ATOM     17  N   UNL     1       3.866   0.938  18.539  0.00  0.00    +0.000 N 
ATOM     18  O   UNL     1       5.181   1.471  20.304  0.00  0.00    +0.000 OA
ATOM     19  H   UNL     1       3.014   1.038  17.997  0.00  0.00    +0.000 HD
ATOM     20  H   UNL     1       4.384   0.084  18.401  0.00  0.00    +0.000 HD
ENDBRANCH   2  16
BRANCH   1  21
ATOM     21  N   UNL     1       5.103   4.583  19.039  0.00  0.00    +0.000 N 
ATOM     22  H   UNL     1       5.728   4.730  19.843  0.00  0.00    +0.000 HD
BRANCH  21  28
ATOM     23  C   UNL     1       7.298   4.775  14.415  0.00  0.00    +0.000 C 
ATOM     24  O   UNL     1       8.525   4.890  14.354  0.00  0.00    +0.000 OA
ATOM     25  N   UNL     1       6.620   4.813  15.642  0.00  0.00    +0.000 N 
ATOM     26  C   UNL     1       5.202   4.533  15.825  0.00  0.00    +0.000 C 
ATOM     27  C   UNL     1       4.538   5.527  16.778  0.00  0.00    +0.000 C 
ATOM     28  C   UNL     1       5.289   5.735  18.103  0.00  0.00    +0.000 C 
ATOM     29  C   UNL     1       6.792   6.013  17.802  0.00  0.00    +0.000 C 
ATOM     30  C   UNL     1       7.378   4.905  16.895  0.00  0.00    +0.000 C 
BRANCH  29  31
ATOM     31  C   UNL     1       7.039   7.386  17.123  0.00  0.00    +0.000 C 
ATOM     32  C   UNL     1       8.027   8.282  17.851  0.00  0.00    +0.000 C 
ENDBRANCH  29  31
BRANCH  23  33
ATOM     33  C   UNL     1       6.432   4.627  13.109  0.00  0.00    +0.000 C 
BRANCH  33  35
ATOM     34  C   UNL     1       5.373   2.742  11.665  0.00  0.00    +0.000 C 
ATOM     35  C   UNL     1       5.734   3.257  13.057  0.00  0.00    +0.000 C 
ENDBRANCH  33  35
BRANCH  33  36
ATOM     36  O   UNL     1       7.195   4.795  11.914  0.00  0.00    +0.000 OA
ATOM     37  H   UNL     1       8.038   4.327  12.043  0.00  0.00    +0.000 HD
ENDBRANCH  33  36
ENDBRANCH  23  33
ENDBRANCH  21  28
ENDBRANCH   1  21
TORSDOF 8
ENDMDL
MODEL 2
REMARK VINA RESULT:      -7.6      1.972      3.892
REMARK  Name = 
REMARK  11 active torsions:
REMARK  status: ('A' for Active; 'I' for Inactive)
REMARK    1  A    between atoms: C_1  and  C_2
REMARK    2  A    between atoms: C_2  and  C_3
REMARK    3  A    between atoms: C_3  and  O_4
REMARK    4  A    between atoms: C_3  and  C_5
REMARK    5  A    between atoms: C_10  and  N_11
REMARK    6  A    between atoms: N_11  and  C_12
REMARK    7  A    between atoms: C_13  and  C_14
REMARK    8  A    between atoms: C_21  and  C_22
REMARK    9  A    between atoms: N_25  and  C_26
REMARK   10  A    between atoms: C_30  and  C_31
REMARK   11  A    between atoms: C_31  and  C_32
REMARK                            x       y       z     vdW  Elec       q    Type
REMARK                         _______ _______ _______ _____ _____    ______ ____
ROOT
ATOM      1  C   UNL     1       3.235   4.145  18.531  0.00  0.00    +0.000 A 
ATOM      2  C   UNL     1       3.307   3.181  19.493  0.00  0.00    +0.000 A 
ATOM      3  C   UNL     1       2.695   3.476  20.815  0.00  0.00    +0.000 A 
ATOM      4  N   UNL     1       2.218   4.594  21.231  0.00  0.00    +0.000 NA
ATOM      5  N   UNL     1       2.252   5.536  20.275  0.00  0.00    +0.000 N 
ATOM      6  C   UNL     1       1.843   6.809  20.520  0.00  0.00    +0.000 A 
ATOM      7  C   UNL     1       1.926   7.519  19.350  0.00  0.00    +0.000 A 
ATOM      8  C   UNL     1       2.398   6.626  18.349  0.00  0.00    +0.000 A 
ATOM      9  C   UNL     1       2.669   5.406  18.956  0.00  0.00    +0.000 A 
ENDROOT
BRANCH   7  10
ATOM     10  C   UNL     1       1.604   8.929  19.217  0.00  0.00    +0.000 A 
ATOM     11  C   UNL     1       1.936   9.791  18.162  0.00  0.00    +0.000 A 
ATOM     12  N   UNL     1       1.501  11.041  18.370  0.00  0.00    +0.000 NA
ATOM     13  N   UNL     1       0.891  10.964  19.575  0.00  0.00    +0.000 N 
ATOM     14  C   UNL     1       0.299  12.139  20.164  0.00  0.00    +0.000 C 
ATOM     15  C   UNL     1       0.918   9.718  20.115  0.00  0.00    +0.000 A 
ENDBRANCH   7  10
BRANCH   2  16
ATOM     16  C   UNL     1       3.971   1.869  19.314  0.00  0.00    +0.000 C 
ATOM     17  N   UNL     1       5.003   1.609  20.174  0.00  0.00    +0.000 N 
ATOM     18  O   UNL     1       3.651   1.058  18.442  0.00  0.00    +0.000 OA
ATOM     19  H   UNL     1       5.406   2.288  20.811  0.00  0.00    +0.000 HD
ATOM     20  H   UNL     1       5.511   0.745  20.062  0.00  0.00    +0.000 HD
ENDBRANCH   2  16
BRANCH   1  21
ATOM     21  N   UNL     1       3.655   3.967  17.182  0.00  0.00    +0.000 N 
ATOM     22  H   UNL     1       3.289   3.054  16.878  0.00  0.00    +0.000 HD
BRANCH  21  28
ATOM     23  C   UNL     1       7.018   7.815  17.528  0.00  0.00    +0.000 C 
ATOM     24  O   UNL     1       7.023   8.670  16.638  0.00  0.00    +0.000 OA
ATOM     25  N   UNL     1       6.194   6.683  17.450  0.00  0.00    +0.000 N 
ATOM     26  C   UNL     1       6.009   5.706  18.515  0.00  0.00    +0.000 C 
ATOM     27  C   UNL     1       6.017   4.272  17.988  0.00  0.00    +0.000 C 
ATOM     28  C   UNL     1       5.095   4.033  16.782  0.00  0.00    +0.000 C 
ATOM     29  C   UNL     1       5.358   5.132  15.709  0.00  0.00    +0.000 C 
ATOM     30  C   UNL     1       5.248   6.541  16.337  0.00  0.00    +0.000 C 
BRANCH  29  31
ATOM     31  C   UNL     1       6.747   5.004  15.028  0.00  0.00    +0.000 C 
ATOM     32  C   UNL     1       6.747   4.194  13.742  0.00  0.00    +0.000 C 
ENDBRANCH  29  31
BRANCH  23  33
ATOM     33  C   UNL     1       7.978   7.933  18.770  0.00  0.00    +0.000 C 
BRANCH  33  35
ATOM     34  C   UNL     1       9.092  10.132  19.594  0.00  0.00    +0.000 C 
ATOM     35  C   UNL     1       9.043   9.021  18.548  0.00  0.00    +0.000 C 
ENDBRANCH  33  35
BRANCH  33  36
ATOM     36  O   UNL     1       8.638   6.706  19.082  0.00  0.00    +0.000 OA
ATOM     37  H   UNL     1       9.275   6.897  19.792  0.00  0.00    +0.000 HD
ENDBRANCH  33  36
ENDBRANCH  23  33
ENDBRANCH  21  28
ENDBRANCH   1  21
TORSDOF 8
ENDMDL
MODEL 3
REMARK VINA RESULT:      -7.1      6.924     10.518
REMARK  Name = 
REMARK  11 active torsions:
REMARK  status: ('A' for Active; 'I' for Inactive)
REMARK    1  A    between atoms: C_1  and  C_2
REMARK    2  A    between atoms: C_2  and  C_3
REMARK    3  A    between atoms: C_3  and  O_4
REMARK    4  A    between atoms: C_3  and  C_5
REMARK    5  A    between atoms: C_10  and  N_11
REMARK    6  A    between atoms: N_11  and  C_12
REMARK    7  A    between atoms: C_13  and  C_14
REMARK    8  A    between atoms: C_21  and  C_22
REMARK    9  A    between atoms: N_25  and  C_26
REMARK   10  A    between atoms: C_30  and  C_31
REMARK   11  A    between atoms: C_31  and  C_32
REMARK                            x       y       z     vdW  Elec       q    Type
REMARK                         _______ _______ _______ _____ _____    ______ ____
ROOT
ATOM      1  C   UNL     1       0.719  13.706  21.204  0.00  0.00    +0.000 A 
ATOM      2  C   UNL     1       1.387  14.870  20.962  0.00  0.00    +0.000 A 
ATOM      3  C   UNL     1       0.837  16.119  21.549  0.00  0.00    +0.000 A 
ATOM      4  N   UNL     1      -0.287  16.277  22.152  0.00  0.00    +0.000 NA
ATOM      5  N   UNL     1      -0.948  15.117  22.286  0.00  0.00    +0.000 N 
ATOM      6  C   UNL     1      -2.184  15.066  22.850  0.00  0.00    +0.000 A 
ATOM      7  C   UNL     1      -2.573  13.754  22.914  0.00  0.00    +0.000 A 
ATOM      8  C   UNL     1      -1.515  12.974  22.372  0.00  0.00    +0.000 A 
ATOM      9  C   UNL     1      -0.533  13.844  21.915  0.00  0.00    +0.000 A 
ENDROOT
BRANCH   7  10
ATOM     10  C   UNL     1      -3.853  13.298  23.427  0.00  0.00    +0.000 A 
ATOM     11  C   UNL     1      -4.094  12.253  24.332  0.00  0.00    +0.000 A 
ATOM     12  N   UNL     1      -5.400  12.082  24.576  0.00  0.00    +0.000 NA
ATOM     13  N   UNL     1      -5.988  13.030  23.811  0.00  0.00    +0.000 N 
ATOM     14  C   UNL     1      -7.425  13.154  23.787  0.00  0.00    +0.000 C 
ATOM     15  C   UNL     1      -5.103  13.788  23.114  0.00  0.00    +0.000 A 
ENDBRANCH   7  10
BRANCH   2  16
ATOM     16  C   UNL     1       2.614  14.973  20.137  0.00  0.00    +0.000 C 
ATOM     17  N   UNL     1       2.523  15.798  19.049  0.00  0.00    +0.000 N 
ATOM     18  O   UNL     1       3.650  14.352  20.379  0.00  0.00    +0.000 OA
ATOM     19  H   UNL     1       1.663  16.219  18.716  0.00  0.00    +0.000 HD
ATOM     20  H   UNL     1       3.320  15.868  18.436  0.00  0.00    +0.000 HD
ENDBRANCH   2  16
BRANCH   1  21
ATOM     21  N   UNL     1       1.188  12.416  20.824  0.00  0.00    +0.000 N 
ATOM     22  H   UNL     1       2.134  12.318  21.219  0.00  0.00    +0.000 HD
BRANCH  21  28
ATOM     23  C   UNL     1      -2.479  10.551  17.773  0.00  0.00    +0.000 C 
ATOM     24  O   UNL     1      -2.736   9.345  17.836  0.00  0.00    +0.000 OA
ATOM     25  N   UNL     1      -1.424  11.112  18.506  0.00  0.00    +0.000 N 
ATOM     26  C   UNL     1      -1.144  12.538  18.613  0.00  0.00    +0.000 C 
ATOM     27  C   UNL     1       0.349  12.842  18.493  0.00  0.00    +0.000 C 
ATOM     28  C   UNL     1       1.247  11.980  19.394  0.00  0.00    +0.000 C 
ATOM     29  C   UNL     1       0.862  10.481  19.219  0.00  0.00    +0.000 C 
ATOM     30  C   UNL     1      -0.655  10.281  19.439  0.00  0.00    +0.000 C 
BRANCH  29  31
ATOM     31  C   UNL     1       1.237   9.910  17.825  0.00  0.00    +0.000 C 
ATOM     32  C   UNL     1       1.956   8.572  17.863  0.00  0.00    +0.000 C 
ENDBRANCH  29  31
BRANCH  23  33
ATOM     33  C   UNL     1      -3.297  11.505  16.825  0.00  0.00    +0.000 C 
BRANCH  33  35
ATOM     34  C   UNL     1      -5.260  11.488  18.528  0.00  0.00    +0.000 C 
ATOM     35  C   UNL     1      -4.809  11.373  17.074  0.00  0.00    +0.000 C 
ENDBRANCH  33  35
BRANCH  33  36
ATOM     36  O   UNL     1      -3.040  11.267  15.441  0.00  0.00    +0.000 OA
ATOM     37  H   UNL     1      -3.887  11.016  15.032  0.00  0.00    +0.000 HD
ENDBRANCH  33  36
ENDBRANCH  23  33
ENDBRANCH  21  28
ENDBRANCH   1  21
TORSDOF 8
ENDMDL
MODEL 4
REMARK VINA RESULT:      -7.1      4.627      8.994
REMARK  Name = 
REMARK  11 active torsions:
REMARK  status: ('A' for Active; 'I' for Inactive)
REMARK    1  A    between atoms: C_1  and  C_2
REMARK    2  A    between atoms: C_2  and  C_3
REMARK    3  A    between atoms: C_3  and  O_4
REMARK    4  A    between atoms: C_3  and  C_5
REMARK    5  A    between atoms: C_10  and  N_11
REMARK    6  A    between atoms: N_11  and  C_12
REMARK    7  A    between atoms: C_13  and  C_14
REMARK    8  A    between atoms: C_21  and  C_22
REMARK    9  A    between atoms: N_25  and  C_26
REMARK   10  A    between atoms: C_30  and  C_31
REMARK   11  A    between atoms: C_31  and  C_32
REMARK                            x       y       z     vdW  Elec       q    Type
REMARK                         _______ _______ _______ _____ _____    ______ ____
ROOT
ATOM      1  C   UNL     1      -0.224  12.453  21.658  0.00  0.00    +0.000 A 
ATOM      2  C   UNL     1      -1.351  12.722  22.376  0.00  0.00    +0.000 A 
ATOM      3  C   UNL     1      -1.846  14.124  22.388  0.00  0.00    +0.000 A 
ATOM      4  N   UNL     1      -1.265  15.168  21.917  0.00  0.00    +0.000 NA
ATOM      5  N   UNL     1      -0.114  14.861  21.298  0.00  0.00    +0.000 N 
ATOM      6  C   UNL     1       0.688  15.825  20.772  0.00  0.00    +0.000 A 
ATOM      7  C   UNL     1       1.743  15.213  20.150  0.00  0.00    +0.000 A 
ATOM      8  C   UNL     1       1.564  13.810  20.297  0.00  0.00    +0.000 A 
ATOM      9  C   UNL     1       0.436  13.603  21.082  0.00  0.00    +0.000 A 
ENDROOT
BRANCH   7  10
ATOM     10  C   UNL     1       2.833  15.915  19.495  0.00  0.00    +0.000 A 
ATOM     11  C   UNL     1       2.805  16.591  18.265  0.00  0.00    +0.000 A 
ATOM     12  N   UNL     1       3.997  17.110  17.944  0.00  0.00    +0.000 NA
ATOM     13  N   UNL     1       4.786  16.752  18.983  0.00  0.00    +0.000 N 
ATOM     14  C   UNL     1       6.181  17.119  18.994  0.00  0.00    +0.000 C 
ATOM     15  C   UNL     1       4.132  16.045  19.939  0.00  0.00    +0.000 A 
ENDBRANCH   7  10
BRANCH   2  16
ATOM     16  C   UNL     1      -2.104  11.714  23.160  0.00  0.00    +0.000 C 
ATOM     17  N   UNL     1      -3.365  12.086  23.538  0.00  0.00    +0.000 N 
ATOM     18  O   UNL     1      -1.641  10.619  23.482  0.00  0.00    +0.000 OA
ATOM     19  H   UNL     1      -3.747  13.020  23.432  0.00  0.00    +0.000 HD
ATOM     20  H   UNL     1      -3.899  11.449  24.108  0.00  0.00    +0.000 HD
ENDBRANCH   2  16
BRANCH   1  21
ATOM     21  N   UNL     1       0.298  11.145  21.442  0.00  0.00    +0.000 N 
ATOM     22  H   UNL     1       1.285  11.263  21.177  0.00  0.00    +0.000 HD
BRANCH  21  28
ATOM     23  C   UNL     1       2.481   7.914  18.120  0.00  0.00    +0.000 C 
ATOM     24  O   UNL     1       2.843   8.356  17.026  0.00  0.00    +0.000 OA
ATOM     25  N   UNL     1       1.790   8.716  19.039  0.00  0.00    +0.000 N 
ATOM     26  C   UNL     1       1.461   8.332  20.405  0.00  0.00    +0.000 C 
ATOM     27  C   UNL     1       0.036   8.731  20.789  0.00  0.00    +0.000 C 
ATOM     28  C   UNL     1      -0.321  10.192  20.469  0.00  0.00    +0.000 C 
ATOM     29  C   UNL     1       0.080  10.508  18.997  0.00  0.00    +0.000 C 
ATOM     30  C   UNL     1       1.560  10.135  18.746  0.00  0.00    +0.000 C 
BRANCH  29  31
ATOM     31  C   UNL     1      -0.797   9.771  17.950  0.00  0.00    +0.000 C 
ATOM     32  C   UNL     1      -2.260  10.179  17.953  0.00  0.00    +0.000 C 
ENDBRANCH  29  31
BRANCH  23  33
ATOM     33  C   UNL     1       2.738   6.412  18.513  0.00  0.00    +0.000 C 
BRANCH  33  35
ATOM     34  C   UNL     1       4.906   5.210  19.298  0.00  0.00    +0.000 C 
ATOM     35  C   UNL     1       4.187   5.997  18.203  0.00  0.00    +0.000 C 
ENDBRANCH  33  35
BRANCH  33  36
ATOM     36  O   UNL     1       1.854   5.505  17.854  0.00  0.00    +0.000 OA
ATOM     37  H   UNL     1       1.144   5.289  18.484  0.00  0.00    +0.000 HD
ENDBRANCH  33  36
ENDBRANCH  23  33
ENDBRANCH  21  28
ENDBRANCH   1  21
TORSDOF 8
ENDMDL
MODEL 5
REMARK VINA RESULT:      -7.0      2.222      3.488
REMARK  Name = 
REMARK  11 active torsions:
REMARK  status: ('A' for Active; 'I' for Inactive)
REMARK    1  A    between atoms: C_1  and  C_2
REMARK    2  A    between atoms: C_2  and  C_3
REMARK    3  A    between atoms: C_3  and  O_4
REMARK    4  A    between atoms: C_3  and  C_5
REMARK    5  A    between atoms: C_10  and  N_11
REMARK    6  A    between atoms: N_11  and  C_12
REMARK    7  A    between atoms: C_13  and  C_14
REMARK    8  A    between atoms: C_21  and  C_22
REMARK    9  A    between atoms: N_25  and  C_26
REMARK   10  A    between atoms: C_30  and  C_31
REMARK   11  A    between atoms: C_31  and  C_32
REMARK                            x       y       z     vdW  Elec       q    Type
REMARK                         _______ _______ _______ _____ _____    ______ ____
ROOT
ATOM      1  C   UNL     1       2.233   7.271  19.056  0.00  0.00    +0.000 A 
ATOM      2  C   UNL     1       1.875   6.433  20.070  0.00  0.00    +0.000 A 
ATOM      3  C   UNL     1       1.011   6.982  21.149  0.00  0.00    +0.000 A 
ATOM      4  N   UNL     1       0.664   8.205  21.334  0.00  0.00    +0.000 NA
ATOM      5  N   UNL     1       1.118   9.005  20.356  0.00  0.00    +0.000 N 
ATOM      6  C   UNL     1       0.908  10.348  20.385  0.00  0.00    +0.000 A 
ATOM      7  C   UNL     1       1.419  10.887  19.233  0.00  0.00    +0.000 A 
ATOM      8  C   UNL     1       1.954   9.814  18.467  0.00  0.00    +0.000 A 
ATOM      9  C   UNL     1       1.825   8.650  19.215  0.00  0.00    +0.000 A 
ENDROOT
BRANCH   7  10
ATOM     10  C   UNL     1       1.412  12.303  18.912  0.00  0.00    +0.000 A 
ATOM     11  C   UNL     1       0.303  13.155  18.803  0.00  0.00    +0.000 A 
ATOM     12  N   UNL     1       0.652  14.404  18.468  0.00  0.00    +0.000 NA
ATOM     13  N   UNL     1       1.999  14.335  18.362  0.00  0.00    +0.000 N 
ATOM     14  C   UNL     1       2.757  15.504  17.988  0.00  0.00    +0.000 C 
ATOM     15  C   UNL     1       2.499  13.102  18.628  0.00  0.00    +0.000 A 
ENDBRANCH   7  10
BRANCH   2  16
ATOM     16  C   UNL     1       2.303   5.018  20.177  0.00  0.00    +0.000 C 
ATOM     17  N   UNL     1       2.660   4.606  21.432  0.00  0.00    +0.000 N 
ATOM     18  O   UNL     1       2.365   4.252  19.214  0.00  0.00    +0.000 OA
ATOM     19  H   UNL     1       2.770   5.221  22.231  0.00  0.00    +0.000 HD
ATOM     20  H   UNL     1       2.997   3.662  21.545  0.00  0.00    +0.000 HD
ENDBRANCH   2  16
BRANCH   1  21
ATOM     21  N   UNL     1       2.942   6.864  17.890  0.00  0.00    +0.000 N 
ATOM     22  H   UNL     1       2.764   5.857  17.774  0.00  0.00    +0.000 HD
BRANCH  21  28
ATOM     23  C   UNL     1       6.386   4.375  15.030  0.00  0.00    +0.000 C 
ATOM     24  O   UNL     1       6.874   3.333  15.475  0.00  0.00    +0.000 OA
ATOM     25  N   UNL     1       5.513   5.160  15.796  0.00  0.00    +0.000 N 
ATOM     26  C   UNL     1       4.774   6.315  15.304  0.00  0.00    +0.000 C 
ATOM     27  C   UNL     1       4.791   7.475  16.298  0.00  0.00    +0.000 C 
ATOM     28  C   UNL     1       4.414   7.084  17.737  0.00  0.00    +0.000 C 
ATOM     29  C   UNL     1       5.245   5.837  18.163  0.00  0.00    +0.000 C 
ATOM     30  C   UNL     1       5.091   4.702  17.124  0.00  0.00    +0.000 C 
BRANCH  29  31
ATOM     31  C   UNL     1       6.757   6.138  18.343  0.00  0.00    +0.000 C 
ATOM     32  C   UNL     1       7.630   4.906  18.510  0.00  0.00    +0.000 C 
ENDBRANCH  29  31
BRANCH  23  33
ATOM     33  C   UNL     1       6.764   4.897  13.593  0.00  0.00    +0.000 C 
BRANCH  33  35
ATOM     34  C   UNL     1       5.352   3.346  12.058  0.00  0.00    +0.000 C 
ATOM     35  C   UNL     1       6.734   3.756  12.562  0.00  0.00    +0.000 C 
ENDBRANCH  33  35
BRANCH  33  36
ATOM     36  O   UNL     1       8.048   5.519  13.547  0.00  0.00    +0.000 OA
ATOM     37  H   UNL     1       8.689   4.835  13.286  0.00  0.00    +0.000 HD
ENDBRANCH  33  36
ENDBRANCH  23  33
ENDBRANCH  21  28
ENDBRANCH   1  21
TORSDOF 8
ENDMDL
MODEL 6
REMARK VINA RESULT:      -7.0      4.365      9.144
REMARK  Name = 
REMARK  11 active torsions:
REMARK  status: ('A' for Active; 'I' for Inactive)
REMARK    1  A    between atoms: C_1  and  C_2
REMARK    2  A    between atoms: C_2  and  C_3
REMARK    3  A    between atoms: C_3  and  O_4
REMARK    4  A    between atoms: C_3  and  C_5
REMARK    5  A    between atoms: C_10  and  N_11
REMARK    6  A    between atoms: N_11  and  C_12
REMARK    7  A    between atoms: C_13  and  C_14
REMARK    8  A    between atoms: C_21  and  C_22
REMARK    9  A    between atoms: N_25  and  C_26
REMARK   10  A    between atoms: C_30  and  C_31
REMARK   11  A    between atoms: C_31  and  C_32
REMARK                            x       y       z     vdW  Elec       q    Type
REMARK                         _______ _______ _______ _____ _____    ______ ____
ROOT
ATOM      1  C   UNL     1       2.176   7.813  19.645  0.00  0.00    +0.000 A 
ATOM      2  C   UNL     1       1.428   7.234  20.626  0.00  0.00    +0.000 A 
ATOM      3  C   UNL     1       1.613   5.780  20.872  0.00  0.00    +0.000 A 
ATOM      4  N   UNL     1       2.298   4.945  20.175  0.00  0.00    +0.000 NA
ATOM      5  N   UNL     1       2.944   5.550  19.166  0.00  0.00    +0.000 N 
ATOM      6  C   UNL     1       3.685   4.842  18.273  0.00  0.00    +0.000 A 
ATOM      7  C   UNL     1       4.276   5.726  17.409  0.00  0.00    +0.000 A 
ATOM      8  C   UNL     1       3.881   7.032  17.808  0.00  0.00    +0.000 A 
ATOM      9  C   UNL     1       2.988   6.905  18.864  0.00  0.00    +0.000 A 
ENDROOT
BRANCH   7  10
ATOM     10  C   UNL     1       5.123   5.345  16.292  0.00  0.00    +0.000 A 
ATOM     11  C   UNL     1       6.407   5.821  15.985  0.00  0.00    +0.000 A 
ATOM     12  N   UNL     1       6.897   5.275  14.865  0.00  0.00    +0.000 NA
ATOM     13  N   UNL     1       5.906   4.448  14.460  0.00  0.00    +0.000 N 
ATOM     14  C   UNL     1       6.054   3.678  13.249  0.00  0.00    +0.000 C 
ATOM     15  C   UNL     1       4.830   4.449  15.287  0.00  0.00    +0.000 A 
ENDBRANCH   7  10
BRANCH   2  16
ATOM     16  C   UNL     1       0.429   7.954  21.451  0.00  0.00    +0.000 C 
ATOM     17  N   UNL     1       0.943   8.860  22.339  0.00  0.00    +0.000 N 
ATOM     18  O   UNL     1      -0.785   7.753  21.380  0.00  0.00    +0.000 OA
ATOM     19  H   UNL     1       1.930   8.966  22.547  0.00  0.00    +0.000 HD
ATOM     20  H   UNL     1       0.304   9.344  22.950  0.00  0.00    +0.000 HD
ENDBRANCH   2  16
BRANCH   1  21
ATOM     21  N   UNL     1       2.209   9.212  19.379  0.00  0.00    +0.000 N 
ATOM     22  H   UNL     1       1.992   9.686  20.266  0.00  0.00    +0.000 HD
BRANCH  21  28
ATOM     23  C   UNL     1      -0.407  13.616  19.382  0.00  0.00    +0.000 C 
ATOM     24  O   UNL     1      -1.535  13.626  19.884  0.00  0.00    +0.000 OA
ATOM     25  N   UNL     1       0.327  12.428  19.258  0.00  0.00    +0.000 N 
ATOM     26  C   UNL     1       1.715  12.341  18.824  0.00  0.00    +0.000 C 
ATOM     27  C   UNL     1       1.941  11.188  17.847  0.00  0.00    +0.000 C 
ATOM     28  C   UNL     1       1.368   9.839  18.313  0.00  0.00    +0.000 C 
ATOM     29  C   UNL     1      -0.108  10.039  18.767  0.00  0.00    +0.000 C 
ATOM     30  C   UNL     1      -0.206  11.177  19.810  0.00  0.00    +0.000 C 
BRANCH  29  31
ATOM     31  C   UNL     1      -1.073  10.362  17.595  0.00  0.00    +0.000 C 
ATOM     32  C   UNL     1      -2.526   9.999  17.855  0.00  0.00    +0.000 C 
ENDBRANCH  29  31
BRANCH  23  33
ATOM     33  C   UNL     1       0.239  14.933  18.812  0.00  0.00    +0.000 C 
BRANCH  33  35
ATOM     34  C   UNL     1       2.541  15.957  19.450  0.00  0.00    +0.000 C 
ATOM     35  C   UNL     1       1.111  15.628  19.871  0.00  0.00    +0.000 C 
ENDBRANCH  33  35
BRANCH  33  36
ATOM     36  O   UNL     1      -0.731  15.867  18.336  0.00  0.00    +0.000 OA
ATOM     37  H   UNL     1      -1.578  15.393  18.271  0.00  0.00    +0.000 HD
ENDBRANCH  33  36
ENDBRANCH  23  33
ENDBRANCH  21  28
ENDBRANCH   1  21
TORSDOF 8
ENDMDL
MODEL 7
REMARK VINA RESULT:      -6.9      1.394      1.566
REMARK  Name = 
REMARK  11 active torsions:
REMARK  status: ('A' for Active; 'I' for Inactive)
REMARK    1  A    between atoms: C_1  and  C_2
REMARK    2  A    between atoms: C_2  and  C_3
REMARK    3  A    between atoms: C_3  and  O_4
REMARK    4  A    between atoms: C_3  and  C_5
REMARK    5  A    between atoms: C_10  and  N_11
REMARK    6  A    between atoms: N_11  and  C_12
REMARK    7  A    between atoms: C_13  and  C_14
REMARK    8  A    between atoms: C_21  and  C_22
REMARK    9  A    between atoms: N_25  and  C_26
REMARK   10  A    between atoms: C_30  and  C_31
REMARK   11  A    between atoms: C_31  and  C_32
REMARK                            x       y       z     vdW  Elec       q    Type
REMARK                         _______ _______ _______ _____ _____    ______ ____
ROOT
ATOM      1  C   UNL     1       2.949   5.394  18.763  0.00  0.00    +0.000 A 
ATOM      2  C   UNL     1       3.066   4.190  19.391  0.00  0.00    +0.000 A 
ATOM      3  C   UNL     1       2.375   4.021  20.697  0.00  0.00    +0.000 A 
ATOM      4  N   UNL     1       1.786   4.922  21.398  0.00  0.00    +0.000 NA
ATOM      5  N   UNL     1       1.777   6.111  20.776  0.00  0.00    +0.000 N 
ATOM      6  C   UNL     1       1.248   7.216  21.366  0.00  0.00    +0.000 A 
ATOM      7  C   UNL     1       1.317   8.254  20.473  0.00  0.00    +0.000 A 
ATOM      8  C   UNL     1       1.906   7.747  19.282  0.00  0.00    +0.000 A 
ATOM      9  C   UNL     1       2.257   6.421  19.510  0.00  0.00    +0.000 A 
ENDROOT
BRANCH   7  10
ATOM     10  C   UNL     1       0.878   9.610  20.751  0.00  0.00    +0.000 A 
ATOM     11  C   UNL     1       0.698  10.216  22.003  0.00  0.00    +0.000 A 
ATOM     12  N   UNL     1       0.258  11.477  21.899  0.00  0.00    +0.000 NA
ATOM     13  N   UNL     1       0.156  11.665  20.563  0.00  0.00    +0.000 N 
ATOM     14  C   UNL     1      -0.315  12.924  20.041  0.00  0.00    +0.000 C 
ATOM     15  C   UNL     1       0.526  10.579  19.836  0.00  0.00    +0.000 A 
ENDBRANCH   7  10
BRANCH   2  16
ATOM     16  C   UNL     1       3.849   3.046  18.868  0.00  0.00    +0.000 C 
ATOM     17  N   UNL     1       4.867   2.614  19.674  0.00  0.00    +0.000 N 
ATOM     18  O   UNL     1       3.634   2.517  17.776  0.00  0.00    +0.000 OA
ATOM     19  H   UNL     1       5.186   3.095  20.508  0.00  0.00    +0.000 HD
ATOM     20  H   UNL     1       5.453   1.864  19.340  0.00  0.00    +0.000 HD
ENDBRANCH   2  16
BRANCH   1  21
ATOM     21  N   UNL     1       3.438   5.668  17.453  0.00  0.00    +0.000 N 
ATOM     22  H   UNL     1       3.575   4.757  16.994  0.00  0.00    +0.000 HD
BRANCH  21  28
ATOM     23  C   UNL     1       7.416   4.839  14.334  0.00  0.00    +0.000 C 
ATOM     24  O   UNL     1       8.321   4.097  14.724  0.00  0.00    +0.000 OA
ATOM     25  N   UNL     1       6.346   5.189  15.169  0.00  0.00    +0.000 N 
ATOM     26  C   UNL     1       5.162   5.928  14.751  0.00  0.00    +0.000 C 
ATOM     27  C   UNL     1       4.757   6.992  15.771  0.00  0.00    +0.000 C 
ATOM     28  C   UNL     1       4.671   6.482  17.219  0.00  0.00    +0.000 C 
ATOM     29  C   UNL     1       5.971   5.697  17.565  0.00  0.00    +0.000 C 
ATOM     30  C   UNL     1       6.239   4.599  16.509  0.00  0.00    +0.000 C 
BRANCH  29  31
ATOM     31  C   UNL     1       7.228   6.603  17.662  0.00  0.00    +0.000 C 
ATOM     32  C   UNL     1       8.065   6.389  18.912  0.00  0.00    +0.000 C 
ENDBRANCH  29  31
BRANCH  23  33
ATOM     33  C   UNL     1       7.449   5.468  12.891  0.00  0.00    +0.000 C 
BRANCH  33  35
ATOM     34  C   UNL     1       6.191   3.312  12.163  0.00  0.00    +0.000 C 
ATOM     35  C   UNL     1       7.207   4.398  11.813  0.00  0.00    +0.000 C 
ENDBRANCH  33  35
BRANCH  33  36
ATOM     36  O   UNL     1       8.677   6.136  12.603  0.00  0.00    +0.000 OA
ATOM     37  H   UNL     1       8.805   6.811  13.292  0.00  0.00    +0.000 HD
ENDBRANCH  33  36
ENDBRANCH  23  33
ENDBRANCH  21  28
ENDBRANCH   1  21
TORSDOF 8
ENDMDL
MODEL 8
REMARK VINA RESULT:      -6.8      5.081      9.778
REMARK  Name = 
REMARK  11 active torsions:
REMARK  status: ('A' for Active; 'I' for Inactive)
REMARK    1  A    between atoms: C_1  and  C_2
REMARK    2  A    between atoms: C_2  and  C_3
REMARK    3  A    between atoms: C_3  and  O_4
REMARK    4  A    between atoms: C_3  and  C_5
REMARK    5  A    between atoms: C_10  and  N_11
REMARK    6  A    between atoms: N_11  and  C_12
REMARK    7  A    between atoms: C_13  and  C_14
REMARK    8  A    between atoms: C_21  and  C_22
REMARK    9  A    between atoms: N_25  and  C_26
REMARK   10  A    between atoms: C_30  and  C_31
REMARK   11  A    between atoms: C_31  and  C_32
REMARK                            x       y       z     vdW  Elec       q    Type
REMARK                         _______ _______ _______ _____ _____    ______ ____
ROOT
ATOM      1  C   UNL     1      -0.808  11.434  20.926  0.00  0.00    +0.000 A 
ATOM      2  C   UNL     1      -1.433  11.505  22.136  0.00  0.00    +0.000 A 
ATOM      3  C   UNL     1      -1.065  10.498  23.165  0.00  0.00    +0.000 A 
ATOM      4  N   UNL     1      -0.325   9.458  23.020  0.00  0.00    +0.000 NA
ATOM      5  N   UNL     1       0.194   9.384  21.784  0.00  0.00    +0.000 N 
ATOM      6  C   UNL     1       0.966   8.333  21.401  0.00  0.00    +0.000 A 
ATOM      7  C   UNL     1       1.405   8.566  20.124  0.00  0.00    +0.000 A 
ATOM      8  C   UNL     1       0.880   9.825  19.721  0.00  0.00    +0.000 A 
ATOM      9  C   UNL     1       0.063  10.294  20.742  0.00  0.00    +0.000 A 
ENDROOT
BRANCH   7  10
ATOM     10  C   UNL     1       2.232   7.651  19.357  0.00  0.00    +0.000 A 
ATOM     11  C   UNL     1       2.821   7.870  18.102  0.00  0.00    +0.000 A 
ATOM     12  N   UNL     1       3.504   6.803  17.669  0.00  0.00    +0.000 NA
ATOM     13  N   UNL     1       3.339   5.899  18.662  0.00  0.00    +0.000 N 
ATOM     14  C   UNL     1       3.923   4.585  18.552  0.00  0.00    +0.000 C 
ATOM     15  C   UNL     1       2.594   6.365  19.697  0.00  0.00    +0.000 A 
ENDBRANCH   7  10
BRANCH   2  16
ATOM     16  C   UNL     1      -2.466  12.509  22.486  0.00  0.00    +0.000 C 
ATOM     17  N   UNL     1      -2.242  13.203  23.644  0.00  0.00    +0.000 N 
ATOM     18  O   UNL     1      -3.477  12.708  21.811  0.00  0.00    +0.000 OA
ATOM     19  H   UNL     1      -1.511  12.987  24.313  0.00  0.00    +0.000 HD
ATOM     20  H   UNL     1      -2.938  13.868  23.943  0.00  0.00    +0.000 HD
ENDBRANCH   2  16
BRANCH   1  21
ATOM     21  N   UNL     1      -0.954  12.398  19.888  0.00  0.00    +0.000 N 
ATOM     22  H   UNL     1      -0.457  12.025  19.068  0.00  0.00    +0.000 HD
BRANCH  21  28
ATOM     23  C   UNL     1       3.687  14.547  19.585  0.00  0.00    +0.000 C 
ATOM     24  O   UNL     1       4.418  14.504  20.578  0.00  0.00    +0.000 OA
ATOM     25  N   UNL     1       2.370  14.067  19.625  0.00  0.00    +0.000 N 
ATOM     26  C   UNL     1       1.491  13.935  18.471  0.00  0.00    +0.000 C 
ATOM     27  C   UNL     1       0.069  14.407  18.774  0.00  0.00    +0.000 C 
ATOM     28  C   UNL     1      -0.533  13.824  20.062  0.00  0.00    +0.000 C 
ATOM     29  C   UNL     1       0.484  14.000  21.229  0.00  0.00    +0.000 C 
ATOM     30  C   UNL     1       1.863  13.418  20.840  0.00  0.00    +0.000 C 
BRANCH  29  31
ATOM     31  C   UNL     1       0.677  15.480  21.657  0.00  0.00    +0.000 C 
ATOM     32  C   UNL     1       0.038  15.840  22.987  0.00  0.00    +0.000 C 
ENDBRANCH  29  31
BRANCH  23  33
ATOM     33  C   UNL     1       4.187  15.189  18.237  0.00  0.00    +0.000 C 
BRANCH  33  35
ATOM     34  C   UNL     1       6.770  15.479  18.177  0.00  0.00    +0.000 C 
ATOM     35  C   UNL     1       5.556  14.621  17.826  0.00  0.00    +0.000 C 
ENDBRANCH  33  35
BRANCH  33  36
ATOM     36  O   UNL     1       4.285  16.612  18.302  0.00  0.00    +0.000 OA
ATOM     37  H   UNL     1       3.483  16.934  18.749  0.00  0.00    +0.000 HD
ENDBRANCH  33  36
ENDBRANCH  23  33
ENDBRANCH  21  28
ENDBRANCH   1  21
TORSDOF 8
ENDMDL
MODEL 9
REMARK VINA RESULT:      -6.8      4.410      8.712
REMARK  Name = 
REMARK  11 active torsions:
REMARK  status: ('A' for Active; 'I' for Inactive)
REMARK    1  A    between atoms: C_1  and  C_2
REMARK    2  A    between atoms: C_2  and  C_3
REMARK    3  A    between atoms: C_3  and  O_4
REMARK    4  A    between atoms: C_3  and  C_5
REMARK    5  A    between atoms: C_10  and  N_11
REMARK    6  A    between atoms: N_11  and  C_12
REMARK    7  A    between atoms: C_13  and  C_14
REMARK    8  A    between atoms: C_21  and  C_22
REMARK    9  A    between atoms: N_25  and  C_26
REMARK   10  A    between atoms: C_30  and  C_31
REMARK   11  A    between atoms: C_31  and  C_32
REMARK                            x       y       z     vdW  Elec       q    Type
REMARK                         _______ _______ _______ _____ _____    ______ ____
ROOT
ATOM      1  C   UNL     1       0.593  12.775  20.553  0.00  0.00    +0.000 A 
ATOM      2  C   UNL     1       1.208  13.815  19.923  0.00  0.00    +0.000 A 
ATOM      3  C   UNL     1       0.671  15.182  20.158  0.00  0.00    +0.000 A 
ATOM      4  N   UNL     1      -0.405  15.509  20.778  0.00  0.00    +0.000 NA
ATOM      5  N   UNL     1      -1.022  14.439  21.304  0.00  0.00    +0.000 N 
ATOM      6  C   UNL     1      -2.209  14.555  21.958  0.00  0.00    +0.000 A 
ATOM      7  C   UNL     1      -2.556  13.320  22.439  0.00  0.00    +0.000 A 
ATOM      8  C   UNL     1      -1.523  12.417  22.066  0.00  0.00    +0.000 A 
ATOM      9  C   UNL     1      -0.603  13.115  21.292  0.00  0.00    +0.000 A 
ENDROOT
BRANCH   7  10
ATOM     10  C   UNL     1      -3.779  13.034  23.168  0.00  0.00    +0.000 A 
ATOM     11  C   UNL     1      -3.929  12.244  24.318  0.00  0.00    +0.000 A 
ATOM     12  N   UNL     1      -5.205  12.171  24.721  0.00  0.00    +0.000 NA
ATOM     13  N   UNL     1      -5.866  12.921  23.809  0.00  0.00    +0.000 N 
ATOM     14  C   UNL     1      -7.297  13.072  23.895  0.00  0.00    +0.000 C 
ATOM     15  C   UNL     1      -5.053  13.466  22.868  0.00  0.00    +0.000 A 
ENDBRANCH   7  10
BRANCH   2  16
ATOM     16  C   UNL     1       2.363  13.672  19.006  0.00  0.00    +0.000 C 
ATOM     17  N   UNL     1       2.067  13.198  17.757  0.00  0.00    +0.000 N 
ATOM     18  O   UNL     1       3.524  13.933  19.328  0.00  0.00    +0.000 OA
ATOM     19  H   UNL     1       1.163  12.831  17.479  0.00  0.00    +0.000 HD
ATOM     20  H   UNL     1       2.827  13.046  17.113  0.00  0.00    +0.000 HD
ENDBRANCH   2  16
BRANCH   1  21
ATOM     21  N   UNL     1       1.065  11.431  20.534  0.00  0.00    +0.000 N 
ATOM     22  H   UNL     1       1.997  11.453  20.100  0.00  0.00    +0.000 HD
BRANCH  21  28
ATOM     23  C   UNL     1       2.667   7.009  18.506  0.00  0.00    +0.000 C 
ATOM     24  O   UNL     1       3.083   7.014  17.344  0.00  0.00    +0.000 OA
ATOM     25  N   UNL     1       2.123   8.159  19.093  0.00  0.00    +0.000 N 
ATOM     26  C   UNL     1       1.750   8.289  20.496  0.00  0.00    +0.000 C 
ATOM     27  C   UNL     1       0.413   9.007  20.672  0.00  0.00    +0.000 C 
ATOM     28  C   UNL     1       0.291  10.325  19.890  0.00  0.00    +0.000 C 
ATOM     29  C   UNL     1       0.722  10.086  18.412  0.00  0.00    +0.000 C 
ATOM     30  C   UNL     1       2.121   9.428  18.355  0.00  0.00    +0.000 C 
BRANCH  29  31
ATOM     31  C   UNL     1      -0.273   9.198  17.618  0.00  0.00    +0.000 C 
ATOM     32  C   UNL     1      -1.602   9.864  17.306  0.00  0.00    +0.000 C 
ENDBRANCH  29  31
BRANCH  23  33
ATOM     33  C   UNL     1       2.684   5.690  19.367  0.00  0.00    +0.000 C 
BRANCH  33  35
ATOM     34  C   UNL     1       5.251   5.296  19.267  0.00  0.00    +0.000 C 
ATOM     35  C   UNL     1       3.850   4.774  18.957  0.00  0.00    +0.000 C 
ENDBRANCH  33  35
BRANCH  33  36
ATOM     36  O   UNL     1       1.467   4.949  19.273  0.00  0.00    +0.000 OA
ATOM     37  H   UNL     1       0.739   5.595  19.257  0.00  0.00    +0.000 HD
ENDBRANCH  33  36
ENDBRANCH  23  33
ENDBRANCH  21  28
ENDBRANCH   1  21
TORSDOF 8
ENDMDL
