MODEL 1
REMARK VINA RESULT:      -7.6      0.000      0.000
REMARK  Name = 
REMARK  10 active torsions:
REMARK  status: ('A' for Active; 'I' for Inactive)
REMARK    1  A    between atoms: C_2  and  C_3
REMARK    2  A    between atoms: C_3  and  O_4
REMARK    3  A    between atoms: O_4  and  C_5
REMARK    4  A    between atoms: C_8  and  C_9
REMARK    5  A    between atoms: C_10  and  C_11
REMARK    6  A    between atoms: C_10  and  C_12
REMARK    7  A    between atoms: N_14  and  C_15
REMARK    8  A    between atoms: C_16  and  O_17
REMARK    9  A    between atoms: C_18  and  O_19
REMARK   10  A    between atoms: C_25  and  O_26
REMARK                            x       y       z     vdW  Elec       q    Type
REMARK                         _______ _______ _______ _____ _____    ______ ____
ROOT
ATOM      1  C   UNL     1       1.524   8.223  20.287  0.00  0.00    +0.000 C 
ATOM      2  O   UNL     1       1.202   8.342  21.466  0.00  0.00    +0.000 OA
ATOM      3  N   UNL     1       1.296   9.222  19.378  0.00  0.00    +0.000 N 
ATOM      4  H   UNL     1       1.603   9.085  18.424  0.00  0.00    +0.000 HD
ENDROOT
BRANCH   3   5
ATOM      5  C   UNL     1       0.623  10.508  19.674  0.00  0.00    +0.000 C 
ATOM      6  C   UNL     1      -0.825  10.606  19.106  0.00  0.00    +0.000 C 
ATOM      7  C   UNL     1      -1.490  11.919  19.544  0.00  0.00    +0.000 C 
ATOM      8  C   UNL     1      -0.639  13.128  19.076  0.00  0.00    +0.000 C 
ATOM      9  O   UNL     1      -1.140  14.341  19.663  0.00  0.00    +0.000 OA
ATOM     10  C   UNL     1      -0.363  14.527  20.852  0.00  0.00    +0.000 C 
ATOM     11  O   UNL     1       0.585  13.443  20.965  0.00  0.00    +0.000 OA
ATOM     12  C   UNL     1       0.785  13.083  19.588  0.00  0.00    +0.000 C 
ATOM     13  C   UNL     1       1.503  11.750  19.360  0.00  0.00    +0.000 C 
BRANCH   6  14
ATOM     14  O   UNL     1      -0.900  10.574  17.684  0.00  0.00    +0.000 OA
ATOM     15  H   UNL     1      -1.503  11.285  17.385  0.00  0.00    +0.000 HD
ENDBRANCH   6  14
BRANCH   7  16
ATOM     16  O   UNL     1      -1.717  11.870  20.961  0.00  0.00    +0.000 OA
ATOM     17  H   UNL     1      -1.470  12.732  21.343  0.00  0.00    +0.000 HD
ENDBRANCH   7  16
BRANCH  13  18
ATOM     18  O   UNL     1       2.012  11.776  18.023  0.00  0.00    +0.000 OA
ATOM     19  H   UNL     1       2.903  12.184  18.019  0.00  0.00    +0.000 HD
ENDBRANCH  13  18
ENDBRANCH   3   5
BRANCH   1  21
ATOM     20  C   UNL     1       2.742   7.112  18.548  0.00  0.00    +0.000 C 
ATOM     21  C   UNL     1       2.198   6.990  19.779  0.00  0.00    +0.000 C 
ATOM     22  C   UNL     1       2.282   5.808  20.694  0.00  0.00    +0.000 C 
BRANCH  20  26
ATOM     23  C   UNL     1       5.061   4.287  16.287  0.00  0.00    +0.000 A 
ATOM     24  C   UNL     1       5.487   5.605  16.447  0.00  0.00    +0.000 A 
ATOM     25  C   UNL     1       4.721   6.512  17.190  0.00  0.00    +0.000 A 
ATOM     26  C   UNL     1       3.502   6.121  17.769  0.00  0.00    +0.000 A 
ATOM     27  C   UNL     1       3.046   4.826  17.512  0.00  0.00    +0.000 A 
ATOM     28  F   UNL     1       1.841   4.418  17.928  0.00  0.00    +0.000 F 
ATOM     29  C   UNL     1       3.817   3.912  16.788  0.00  0.00    +0.000 A 
BRANCH  23  30
ATOM     30  O   UNL     1       5.909   3.454  15.612  0.00  0.00    +0.000 OA
BRANCH  30  31
ATOM     31  C   UNL     1       6.557   4.051  14.485  0.00  0.00    +0.000 C 
BRANCH  31  33
ATOM     32  C   UNL     1       5.910   3.162  12.232  0.00  0.00    +0.000 C 
ATOM     33  C   UNL     1       5.646   3.919  13.305  0.00  0.00    +0.000 C 
ENDBRANCH  31  33
ENDBRANCH  30  31
ENDBRANCH  23  30
ENDBRANCH  20  26
ENDBRANCH   1  21
TORSDOF 9
ENDMDL
MODEL 2
REMARK VINA RESULT:      -7.4      6.032      8.136
REMARK  Name = 
REMARK  10 active torsions:
REMARK  status: ('A' for Active; 'I' for Inactive)
REMARK    1  A    between atoms: C_2  and  C_3
REMARK    2  A    between atoms: C_3  and  O_4
REMARK    3  A    between atoms: O_4  and  C_5
REMARK    4  A    between atoms: C_8  and  C_9
REMARK    5  A    between atoms: C_10  and  C_11
REMARK    6  A    between atoms: C_10  and  C_12
REMARK    7  A    between atoms: N_14  and  C_15
REMARK    8  A    between atoms: C_16  and  O_17
REMARK    9  A    between atoms: C_18  and  O_19
REMARK   10  A    between atoms: C_25  and  O_26
REMARK                            x       y       z     vdW  Elec       q    Type
REMARK                         _______ _______ _______ _____ _____    ______ ____
ROOT
ATOM      1  C   UNL     1       8.304   8.339  17.979  0.00  0.00    +0.000 C 
ATOM      2  O   UNL     1       8.547   8.746  16.846  0.00  0.00    +0.000 OA
ATOM      3  N   UNL     1       8.783   8.982  19.089  0.00  0.00    +0.000 N 
ATOM      4  H   UNL     1       8.533   8.622  20.000  0.00  0.00    +0.000 HD
ENDROOT
BRANCH   3   5
ATOM      5  C   UNL     1       9.656  10.179  19.072  0.00  0.00    +0.000 C 
ATOM      6  C   UNL     1       9.757  10.905  20.447  0.00  0.00    +0.000 C 
ATOM      7  C   UNL     1      10.759  12.067  20.372  0.00  0.00    +0.000 C 
ATOM      8  C   UNL     1      10.336  13.063  19.261  0.00  0.00    +0.000 C 
ATOM      9  O   UNL     1      11.377  14.031  19.045  0.00  0.00    +0.000 OA
ATOM     10  C   UNL     1      12.163  13.499  17.973  0.00  0.00    +0.000 C 
ATOM     11  O   UNL     1      11.595  12.236  17.559  0.00  0.00    +0.000 OA
ATOM     12  C   UNL     1      10.210  12.412  17.900  0.00  0.00    +0.000 C 
ATOM     13  C   UNL     1       9.367  11.134  17.880  0.00  0.00    +0.000 C 
BRANCH   6  14
ATOM     14  O   UNL     1       8.530  11.463  20.907  0.00  0.00    +0.000 OA
ATOM     15  H   UNL     1       7.886  11.457  20.170  0.00  0.00    +0.000 HD
ENDBRANCH   6  14
BRANCH   7  16
ATOM     16  O   UNL     1      12.079  11.527  20.211  0.00  0.00    +0.000 OA
ATOM     17  H   UNL     1      12.512  11.987  19.469  0.00  0.00    +0.000 HD
ENDBRANCH   7  16
BRANCH  13  18
ATOM     18  O   UNL     1       7.998  11.542  17.784  0.00  0.00    +0.000 OA
ATOM     19  H   UNL     1       7.498  10.887  17.253  0.00  0.00    +0.000 HD
ENDBRANCH  13  18
ENDBRANCH   3   5
BRANCH   1  21
ATOM     20  C   UNL     1       6.361   7.051  17.422  0.00  0.00    +0.000 C 
ATOM     21  C   UNL     1       7.456   7.131  18.211  0.00  0.00    +0.000 C 
ATOM     22  C   UNL     1       7.938   6.114  19.199  0.00  0.00    +0.000 C 
BRANCH  20  26
ATOM     23  C   UNL     1       3.296   4.046  17.243  0.00  0.00    +0.000 A 
ATOM     24  C   UNL     1       3.032   5.313  17.758  0.00  0.00    +0.000 A 
ATOM     25  C   UNL     1       4.042   6.282  17.807  0.00  0.00    +0.000 A 
ATOM     26  C   UNL     1       5.341   5.993  17.359  0.00  0.00    +0.000 A 
ATOM     27  C   UNL     1       5.608   4.686  16.939  0.00  0.00    +0.000 A 
ATOM     28  F   UNL     1       6.847   4.302  16.611  0.00  0.00    +0.000 F 
ATOM     29  C   UNL     1       4.597   3.722  16.871  0.00  0.00    +0.000 A 
BRANCH  23  30
ATOM     30  O   UNL     1       2.231   3.190  17.165  0.00  0.00    +0.000 OA
BRANCH  30  31
ATOM     31  C   UNL     1       2.131   2.264  18.250  0.00  0.00    +0.000 C 
BRANCH  31  33
ATOM     32  C   UNL     1       1.002   3.199  20.283  0.00  0.00    +0.000 C 
ATOM     33  C   UNL     1       0.936   2.639  19.069  0.00  0.00    +0.000 C 
ENDBRANCH  31  33
ENDBRANCH  30  31
ENDBRANCH  23  30
ENDBRANCH  20  26
ENDBRANCH   1  21
TORSDOF 9
ENDMDL
MODEL 3
REMARK VINA RESULT:      -7.4      0.988      1.330
REMARK  Name = 
REMARK  10 active torsions:
REMARK  status: ('A' for Active; 'I' for Inactive)
REMARK    1  A    between atoms: C_2  and  C_3
REMARK    2  A    between atoms: C_3  and  O_4
REMARK    3  A    between atoms: O_4  and  C_5
REMARK    4  A    between atoms: C_8  and  C_9
REMARK    5  A    between atoms: C_10  and  C_11
REMARK    6  A    between atoms: C_10  and  C_12
REMARK    7  A    between atoms: N_14  and  C_15
REMARK    8  A    between atoms: C_16  and  O_17
REMARK    9  A    between atoms: C_18  and  O_19
REMARK   10  A    between atoms: C_25  and  O_26
REMARK                            x       y       z     vdW  Elec       q    Type
REMARK                         _______ _______ _______ _____ _____    ______ ____
ROOT
ATOM      1  C   UNL     1       1.597   8.103  20.097  0.00  0.00    +0.000 C 
ATOM      2  O   UNL     1       1.137   8.123  21.235  0.00  0.00    +0.000 OA
ATOM      3  N   UNL     1       1.475   9.178  19.256  0.00  0.00    +0.000 N 
ATOM      4  H   UNL     1       1.894   9.121  18.337  0.00  0.00    +0.000 HD
ENDROOT
BRANCH   3   5
ATOM      5  C   UNL     1       0.764  10.437  19.579  0.00  0.00    +0.000 C 
ATOM      6  C   UNL     1      -0.701  10.487  19.050  0.00  0.00    +0.000 C 
ATOM      7  C   UNL     1      -1.400  11.773  19.515  0.00  0.00    +0.000 C 
ATOM      8  C   UNL     1      -0.605  13.014  19.031  0.00  0.00    +0.000 C 
ATOM      9  O   UNL     1      -1.133  14.205  19.639  0.00  0.00    +0.000 OA
ATOM     10  C   UNL     1      -0.331  14.412  20.808  0.00  0.00    +0.000 C 
ATOM     11  O   UNL     1       0.658  13.361  20.888  0.00  0.00    +0.000 OA
ATOM     12  C   UNL     1       0.833  13.017  19.504  0.00  0.00    +0.000 C 
ATOM     13  C   UNL     1       1.591  11.711  19.249  0.00  0.00    +0.000 C 
BRANCH   6  14
ATOM     14  O   UNL     1      -0.814  10.460  17.631  0.00  0.00    +0.000 OA
ATOM     15  H   UNL     1      -1.159  11.324  17.326  0.00  0.00    +0.000 HD
ENDBRANCH   6  14
BRANCH   7  16
ATOM     16  O   UNL     1      -1.587  11.708  20.937  0.00  0.00    +0.000 OA
ATOM     17  H   UNL     1      -0.785  11.325  21.336  0.00  0.00    +0.000 HD
ENDBRANCH   7  16
BRANCH  13  18
ATOM     18  O   UNL     1       2.062  11.762  17.898  0.00  0.00    +0.000 OA
ATOM     19  H   UNL     1       1.544  12.426  17.396  0.00  0.00    +0.000 HD
ENDBRANCH  13  18
ENDBRANCH   3   5
BRANCH   1  21
ATOM     20  C   UNL     1       3.025   7.140  18.431  0.00  0.00    +0.000 C 
ATOM     21  C   UNL     1       2.333   6.914  19.570  0.00  0.00    +0.000 C 
ATOM     22  C   UNL     1       2.307   5.657  20.381  0.00  0.00    +0.000 C 
BRANCH  20  26
ATOM     23  C   UNL     1       5.422   4.374  16.180  0.00  0.00    +0.000 A 
ATOM     24  C   UNL     1       4.193   3.992  16.715  0.00  0.00    +0.000 A 
ATOM     25  C   UNL     1       3.423   4.907  17.443  0.00  0.00    +0.000 A 
ATOM     26  C   UNL     1       3.879   6.216  17.667  0.00  0.00    +0.000 A 
ATOM     27  C   UNL     1       5.157   6.547  17.208  0.00  0.00    +0.000 A 
ATOM     28  F   UNL     1       5.710   7.734  17.485  0.00  0.00    +0.000 F 
ATOM     29  C   UNL     1       5.920   5.642  16.463  0.00  0.00    +0.000 A 
BRANCH  23  30
ATOM     30  O   UNL     1       6.068   3.438  15.420  0.00  0.00    +0.000 OA
BRANCH  30  31
ATOM     31  C   UNL     1       6.588   3.932  14.183  0.00  0.00    +0.000 C 
BRANCH  31  33
ATOM     32  C   UNL     1       5.694   3.060  12.009  0.00  0.00    +0.000 C 
ATOM     33  C   UNL     1       5.530   3.764  13.137  0.00  0.00    +0.000 C 
ENDBRANCH  31  33
ENDBRANCH  30  31
ENDBRANCH  23  30
ENDBRANCH  20  26
ENDBRANCH   1  21
TORSDOF 9
ENDMDL
MODEL 4
REMARK VINA RESULT:      -7.4      3.232      9.973
REMARK  Name = 
REMARK  10 active torsions:
REMARK  status: ('A' for Active; 'I' for Inactive)
REMARK    1  A    between atoms: C_2  and  C_3
REMARK    2  A    between atoms: C_3  and  O_4
REMARK    3  A    between atoms: O_4  and  C_5
REMARK    4  A    between atoms: C_8  and  C_9
REMARK    5  A    between atoms: C_10  and  C_11
REMARK    6  A    between atoms: C_10  and  C_12
REMARK    7  A    between atoms: N_14  and  C_15
REMARK    8  A    between atoms: C_16  and  O_17
REMARK    9  A    between atoms: C_18  and  O_19
REMARK   10  A    between atoms: C_25  and  O_26
REMARK                            x       y       z     vdW  Elec       q    Type
REMARK                         _______ _______ _______ _____ _____    ______ ____
ROOT
ATOM      1  C   UNL     1       2.648   7.577  18.396  0.00  0.00    +0.000 C 
ATOM      2  O   UNL     1       3.582   7.533  17.600  0.00  0.00    +0.000 OA
ATOM      3  N   UNL     1       2.258   6.471  19.105  0.00  0.00    +0.000 N 
ATOM      4  H   UNL     1       1.500   6.565  19.767  0.00  0.00    +0.000 HD
ENDROOT
BRANCH   3   5
ATOM      5  C   UNL     1       2.858   5.122  18.979  0.00  0.00    +0.000 C 
ATOM      6  C   UNL     1       2.571   4.430  17.612  0.00  0.00    +0.000 C 
ATOM      7  C   UNL     1       3.311   3.088  17.519  0.00  0.00    +0.000 C 
ATOM      8  C   UNL     1       2.890   2.166  18.694  0.00  0.00    +0.000 C 
ATOM      9  O   UNL     1       3.732   1.001  18.733  0.00  0.00    +0.000 OA
ATOM     10  C   UNL     1       4.781   1.332  19.649  0.00  0.00    +0.000 C 
ATOM     11  O   UNL     1       4.563   2.671  20.146  0.00  0.00    +0.000 OA
ATOM     12  C   UNL     1       3.134   2.790  20.052  0.00  0.00    +0.000 C 
ATOM     13  C   UNL     1       2.587   4.211  20.209  0.00  0.00    +0.000 C 
BRANCH   6  14
ATOM     14  O   UNL     1       1.195   4.146  17.375  0.00  0.00    +0.000 OA
ATOM     15  H   UNL     1       0.720   4.157  18.231  0.00  0.00    +0.000 HD
ENDBRANCH   6  14
BRANCH   7  16
ATOM     16  O   UNL     1       4.722   3.343  17.445  0.00  0.00    +0.000 OA
ATOM     17  H   UNL     1       4.875   4.037  16.778  0.00  0.00    +0.000 HD
ENDBRANCH   7  16
BRANCH  13  18
ATOM     18  O   UNL     1       1.201   4.087  20.543  0.00  0.00    +0.000 OA
ATOM     19  H   UNL     1       1.109   3.919  21.505  0.00  0.00    +0.000 HD
ENDBRANCH  13  18
ENDBRANCH   3   5
BRANCH   1  21
ATOM     20  C   UNL     1       1.064   8.796  19.717  0.00  0.00    +0.000 C 
ATOM     21  C   UNL     1       1.896   8.842  18.652  0.00  0.00    +0.000 C 
ATOM     22  C   UNL     1       2.198  10.026  17.788  0.00  0.00    +0.000 C 
BRANCH  20  26
ATOM     23  C   UNL     1      -1.350  11.916  21.422  0.00  0.00    +0.000 A 
ATOM     24  C   UNL     1      -0.396  11.244  22.186  0.00  0.00    +0.000 A 
ATOM     25  C   UNL     1       0.385  10.232  21.614  0.00  0.00    +0.000 A 
ATOM     26  C   UNL     1       0.210   9.859  20.271  0.00  0.00    +0.000 A 
ATOM     27  C   UNL     1      -0.819  10.476  19.553  0.00  0.00    +0.000 A 
ATOM     28  F   UNL     1      -1.126  10.091  18.309  0.00  0.00    +0.000 F 
ATOM     29  C   UNL     1      -1.587  11.500  20.116  0.00  0.00    +0.000 A 
BRANCH  23  30
ATOM     30  O   UNL     1      -2.011  12.939  22.043  0.00  0.00    +0.000 OA
BRANCH  30  31
ATOM     31  C   UNL     1      -3.374  12.657  22.368  0.00  0.00    +0.000 C 
BRANCH  31  33
ATOM     32  C   UNL     1      -4.487  12.581  24.613  0.00  0.00    +0.000 C 
ATOM     33  C   UNL     1      -3.441  12.308  23.822  0.00  0.00    +0.000 C 
ENDBRANCH  31  33
ENDBRANCH  30  31
ENDBRANCH  23  30
ENDBRANCH  20  26
ENDBRANCH   1  21
TORSDOF 9
ENDMDL
MODEL 5
REMARK VINA RESULT:      -7.2      3.439     10.150
REMARK  Name = 
REMARK  10 active torsions:
REMARK  status: ('A' for Active; 'I' for Inactive)
REMARK    1  A    between atoms: C_2  and  C_3
REMARK    2  A    between atoms: C_3  and  O_4
REMARK    3  A    between atoms: O_4  and  C_5
REMARK    4  A    between atoms: C_8  and  C_9
REMARK    5  A    between atoms: C_10  and  C_11
REMARK    6  A    between atoms: C_10  and  C_12
REMARK    7  A    between atoms: N_14  and  C_15
REMARK    8  A    between atoms: C_16  and  O_17
REMARK    9  A    between atoms: C_18  and  O_19
REMARK   10  A    between atoms: C_25  and  O_26
REMARK                            x       y       z     vdW  Elec       q    Type
REMARK                         _______ _______ _______ _____ _____    ______ ____
ROOT
ATOM      1  C   UNL     1       2.281   7.514  18.870  0.00  0.00    +0.000 C 
ATOM      2  O   UNL     1       3.226   7.587  18.088  0.00  0.00    +0.000 OA
ATOM      3  N   UNL     1       1.950   6.336  19.484  0.00  0.00    +0.000 N 
ATOM      4  H   UNL     1       1.179   6.334  20.140  0.00  0.00    +0.000 HD
ENDROOT
BRANCH   3   5
ATOM      5  C   UNL     1       2.630   5.038  19.265  0.00  0.00    +0.000 C 
ATOM      6  C   UNL     1       2.544   4.523  17.797  0.00  0.00    +0.000 C 
ATOM      7  C   UNL     1       3.359   3.232  17.629  0.00  0.00    +0.000 C 
ATOM      8  C   UNL     1       2.849   2.149  18.616  0.00  0.00    +0.000 C 
ATOM      9  O   UNL     1       3.741   1.020  18.612  0.00  0.00    +0.000 OA
ATOM     10  C   UNL     1       4.655   1.265  19.687  0.00  0.00    +0.000 C 
ATOM     11  O   UNL     1       4.309   2.518  20.318  0.00  0.00    +0.000 OA
ATOM     12  C   UNL     1       2.898   2.597  20.061  0.00  0.00    +0.000 C 
ATOM     13  C   UNL     1       2.262   3.964  20.327  0.00  0.00    +0.000 C 
BRANCH   6  14
ATOM     14  O   UNL     1       1.223   4.222  17.356  0.00  0.00    +0.000 OA
ATOM     15  H   UNL     1       0.635   4.966  17.597  0.00  0.00    +0.000 HD
ENDBRANCH   6  14
BRANCH   7  16
ATOM     16  O   UNL     1       4.753   3.546  17.765  0.00  0.00    +0.000 OA
ATOM     17  H   UNL     1       4.835   4.479  18.035  0.00  0.00    +0.000 HD
ENDBRANCH   7  16
BRANCH  13  18
ATOM     18  O   UNL     1       0.854   3.747  20.467  0.00  0.00    +0.000 OA
ATOM     19  H   UNL     1       0.368   4.546  20.173  0.00  0.00    +0.000 HD
ENDBRANCH  13  18
ENDBRANCH   3   5
BRANCH   1  21
ATOM     20  C   UNL     1       1.313   8.939  20.535  0.00  0.00    +0.000 C 
ATOM     21  C   UNL     1       1.453   8.710  19.210  0.00  0.00    +0.000 C 
ATOM     22  C   UNL     1       0.953   9.561  18.085  0.00  0.00    +0.000 C 
BRANCH  20  26
ATOM     23  C   UNL     1      -0.793  12.058  22.608  0.00  0.00    +0.000 A 
ATOM     24  C   UNL     1      -1.092  10.716  22.832  0.00  0.00    +0.000 A 
ATOM     25  C   UNL     1      -0.394   9.711  22.150  0.00  0.00    +0.000 A 
ATOM     26  C   UNL     1       0.603  10.034  21.215  0.00  0.00    +0.000 A 
ATOM     27  C   UNL     1       0.817  11.386  20.933  0.00  0.00    +0.000 A 
ATOM     28  F   UNL     1       1.664  11.770  19.971  0.00  0.00    +0.000 F 
ATOM     29  C   UNL     1       0.136  12.391  21.627  0.00  0.00    +0.000 A 
BRANCH  23  30
ATOM     30  O   UNL     1      -1.472  12.966  23.374  0.00  0.00    +0.000 OA
BRANCH  30  31
ATOM     31  C   UNL     1      -2.716  13.401  22.818  0.00  0.00    +0.000 C 
BRANCH  31  33
ATOM     32  C   UNL     1      -4.195  12.462  24.611  0.00  0.00    +0.000 C 
ATOM     33  C   UNL     1      -3.707  13.510  23.934  0.00  0.00    +0.000 C 
ENDBRANCH  31  33
ENDBRANCH  30  31
ENDBRANCH  23  30
ENDBRANCH  20  26
ENDBRANCH   1  21
TORSDOF 9
ENDMDL
MODEL 6
REMARK VINA RESULT:      -7.2      3.329     10.149
REMARK  Name = 
REMARK  10 active torsions:
REMARK  status: ('A' for Active; 'I' for Inactive)
REMARK    1  A    between atoms: C_2  and  C_3
REMARK    2  A    between atoms: C_3  and  O_4
REMARK    3  A    between atoms: O_4  and  C_5
REMARK    4  A    between atoms: C_8  and  C_9
REMARK    5  A    between atoms: C_10  and  C_11
REMARK    6  A    between atoms: C_10  and  C_12
REMARK    7  A    between atoms: N_14  and  C_15
REMARK    8  A    between atoms: C_16  and  O_17
REMARK    9  A    between atoms: C_18  and  O_19
REMARK   10  A    between atoms: C_25  and  O_26
REMARK                            x       y       z     vdW  Elec       q    Type
REMARK                         _______ _______ _______ _____ _____    ______ ____
ROOT
ATOM      1  C   UNL     1       2.317   7.531  18.860  0.00  0.00    +0.000 C 
ATOM      2  O   UNL     1       3.209   7.582  18.017  0.00  0.00    +0.000 OA
ATOM      3  N   UNL     1       2.013   6.365  19.512  0.00  0.00    +0.000 N 
ATOM      4  H   UNL     1       1.287   6.382  20.216  0.00  0.00    +0.000 HD
ENDROOT
BRANCH   3   5
ATOM      5  C   UNL     1       2.663   5.057  19.267  0.00  0.00    +0.000 C 
ATOM      6  C   UNL     1       2.550   4.564  17.793  0.00  0.00    +0.000 C 
ATOM      7  C   UNL     1       3.336   3.259  17.598  0.00  0.00    +0.000 C 
ATOM      8  C   UNL     1       2.815   2.173  18.575  0.00  0.00    +0.000 C 
ATOM      9  O   UNL     1       3.681   1.026  18.546  0.00  0.00    +0.000 OA
ATOM     10  C   UNL     1       4.612   1.237  19.614  0.00  0.00    +0.000 C 
ATOM     11  O   UNL     1       4.300   2.488  20.266  0.00  0.00    +0.000 OA
ATOM     12  C   UNL     1       2.888   2.599  20.026  0.00  0.00    +0.000 C 
ATOM     13  C   UNL     1       2.284   3.976  20.318  0.00  0.00    +0.000 C 
BRANCH   6  14
ATOM     14  O   UNL     1       1.219   4.298  17.363  0.00  0.00    +0.000 OA
ATOM     15  H   UNL     1       0.843   5.116  16.981  0.00  0.00    +0.000 HD
ENDBRANCH   6  14
BRANCH   7  16
ATOM     16  O   UNL     1       4.738   3.542  17.723  0.00  0.00    +0.000 OA
ATOM     17  H   UNL     1       4.942   3.684  18.665  0.00  0.00    +0.000 HD
ENDBRANCH   7  16
BRANCH  13  18
ATOM     18  O   UNL     1       0.873   3.786  20.471  0.00  0.00    +0.000 OA
ATOM     19  H   UNL     1       0.621   3.943  21.405  0.00  0.00    +0.000 HD
ENDBRANCH  13  18
ENDBRANCH   3   5
BRANCH   1  21
ATOM     20  C   UNL     1       1.223   8.829  20.552  0.00  0.00    +0.000 C 
ATOM     21  C   UNL     1       1.525   8.741  19.237  0.00  0.00    +0.000 C 
ATOM     22  C   UNL     1       1.234   9.750  18.171  0.00  0.00    +0.000 C 
BRANCH  20  26
ATOM     23  C   UNL     1      -0.869  12.008  22.548  0.00  0.00    +0.000 A 
ATOM     24  C   UNL     1       0.099  12.278  21.582  0.00  0.00    +0.000 A 
ATOM     25  C   UNL     1       0.769  11.230  20.938  0.00  0.00    +0.000 A 
ATOM     26  C   UNL     1       0.497   9.892  21.266  0.00  0.00    +0.000 A 
ATOM     27  C   UNL     1      -0.403   9.647  22.307  0.00  0.00    +0.000 A 
ATOM     28  F   UNL     1      -0.625   8.406  22.757  0.00  0.00    +0.000 F 
ATOM     29  C   UNL     1      -1.088  10.690  22.937  0.00  0.00    +0.000 A 
BRANCH  23  30
ATOM     30  O   UNL     1      -1.524  13.090  23.067  0.00  0.00    +0.000 OA
BRANCH  30  31
ATOM     31  C   UNL     1      -2.905  12.865  23.360  0.00  0.00    +0.000 C 
BRANCH  31  33
ATOM     32  C   UNL     1      -2.564  14.820  24.892  0.00  0.00    +0.000 C 
ATOM     33  C   UNL     1      -3.379  13.978  24.241  0.00  0.00    +0.000 C 
ENDBRANCH  31  33
ENDBRANCH  30  31
ENDBRANCH  23  30
ENDBRANCH  20  26
ENDBRANCH   1  21
TORSDOF 9
ENDMDL
MODEL 7
REMARK VINA RESULT:      -7.2      3.300     10.042
REMARK  Name = 
REMARK  10 active torsions:
REMARK  status: ('A' for Active; 'I' for Inactive)
REMARK    1  A    between atoms: C_2  and  C_3
REMARK    2  A    between atoms: C_3  and  O_4
REMARK    3  A    between atoms: O_4  and  C_5
REMARK    4  A    between atoms: C_8  and  C_9
REMARK    5  A    between atoms: C_10  and  C_11
REMARK    6  A    between atoms: C_10  and  C_12
REMARK    7  A    between atoms: N_14  and  C_15
REMARK    8  A    between atoms: C_16  and  O_17
REMARK    9  A    between atoms: C_18  and  O_19
REMARK   10  A    between atoms: C_25  and  O_26
REMARK                            x       y       z     vdW  Elec       q    Type
REMARK                         _______ _______ _______ _____ _____    ______ ____
ROOT
ATOM      1  C   UNL     1       2.588   7.506  18.509  0.00  0.00    +0.000 C 
ATOM      2  O   UNL     1       3.507   7.486  17.695  0.00  0.00    +0.000 OA
ATOM      3  N   UNL     1       2.229   6.386  19.211  0.00  0.00    +0.000 N 
ATOM      4  H   UNL     1       1.482   6.462  19.889  0.00  0.00    +0.000 HD
ENDROOT
BRANCH   3   5
ATOM      5  C   UNL     1       2.847   5.049  19.059  0.00  0.00    +0.000 C 
ATOM      6  C   UNL     1       2.601   4.397  17.664  0.00  0.00    +0.000 C 
ATOM      7  C   UNL     1       3.360   3.067  17.549  0.00  0.00    +0.000 C 
ATOM      8  C   UNL     1       2.920   2.104  18.683  0.00  0.00    +0.000 C 
ATOM      9  O   UNL     1       3.775   0.948  18.707  0.00  0.00    +0.000 OA
ATOM     10  C   UNL     1       4.798   1.261  19.659  0.00  0.00    +0.000 C 
ATOM     11  O   UNL     1       4.552   2.581  20.192  0.00  0.00    +0.000 OA
ATOM     12  C   UNL     1       3.124   2.688  20.065  0.00  0.00    +0.000 C 
ATOM     13  C   UNL     1       2.557   4.097  20.253  0.00  0.00    +0.000 C 
BRANCH   6  14
ATOM     14  O   UNL     1       1.236   4.106  17.385  0.00  0.00    +0.000 OA
ATOM     15  H   UNL     1       0.852   3.634  18.152  0.00  0.00    +0.000 HD
ENDBRANCH   6  14
BRANCH   7  16
ATOM     16  O   UNL     1       4.769   3.340  17.518  0.00  0.00    +0.000 OA
ATOM     17  H   UNL     1       4.978   3.788  16.678  0.00  0.00    +0.000 HD
ENDBRANCH   7  16
BRANCH  13  18
ATOM     18  O   UNL     1       1.164   3.948  20.549  0.00  0.00    +0.000 OA
ATOM     19  H   UNL     1       0.875   3.041  20.314  0.00  0.00    +0.000 HD
ENDBRANCH  13  18
ENDBRANCH   3   5
BRANCH   1  21
ATOM     20  C   UNL     1       1.111   8.732  19.944  0.00  0.00    +0.000 C 
ATOM     21  C   UNL     1       1.821   8.757  18.793  0.00  0.00    +0.000 C 
ATOM     22  C   UNL     1       1.983   9.910  17.853  0.00  0.00    +0.000 C 
BRANCH  20  26
ATOM     23  C   UNL     1      -1.376  11.822  21.595  0.00  0.00    +0.000 A 
ATOM     24  C   UNL     1      -1.319  11.601  20.221  0.00  0.00    +0.000 A 
ATOM     25  C   UNL     1      -0.506  10.588  19.699  0.00  0.00    +0.000 A 
ATOM     26  C   UNL     1       0.282   9.790  20.544  0.00  0.00    +0.000 A 
ATOM     27  C   UNL     1       0.287  10.094  21.908  0.00  0.00    +0.000 A 
ATOM     28  F   UNL     1       1.100   9.458  22.759  0.00  0.00    +0.000 F 
ATOM     29  C   UNL     1      -0.539  11.092  22.434  0.00  0.00    +0.000 A 
BRANCH  23  30
ATOM     30  O   UNL     1      -2.254  12.781  22.019  0.00  0.00    +0.000 OA
BRANCH  30  31
ATOM     31  C   UNL     1      -2.327  12.936  23.438  0.00  0.00    +0.000 C 
BRANCH  31  33
ATOM     32  C   UNL     1      -4.751  13.159  24.039  0.00  0.00    +0.000 C 
ATOM     33  C   UNL     1      -3.651  12.408  23.894  0.00  0.00    +0.000 C 
ENDBRANCH  31  33
ENDBRANCH  30  31
ENDBRANCH  23  30
ENDBRANCH  20  26
ENDBRANCH   1  21
TORSDOF 9
ENDMDL
MODEL 8
REMARK VINA RESULT:      -7.2      1.601      2.542
REMARK  Name = 
REMARK  10 active torsions:
REMARK  status: ('A' for Active; 'I' for Inactive)
REMARK    1  A    between atoms: C_2  and  C_3
REMARK    2  A    between atoms: C_3  and  O_4
REMARK    3  A    between atoms: O_4  and  C_5
REMARK    4  A    between atoms: C_8  and  C_9
REMARK    5  A    between atoms: C_10  and  C_11
REMARK    6  A    between atoms: C_10  and  C_12
REMARK    7  A    between atoms: N_14  and  C_15
REMARK    8  A    between atoms: C_16  and  O_17
REMARK    9  A    between atoms: C_18  and  O_19
REMARK   10  A    between atoms: C_25  and  O_26
REMARK                            x       y       z     vdW  Elec       q    Type
REMARK                         _______ _______ _______ _____ _____    ______ ____
ROOT
ATOM      1  C   UNL     1       0.857   9.531  19.287  0.00  0.00    +0.000 C 
ATOM      2  O   UNL     1       0.535  10.123  18.260  0.00  0.00    +0.000 OA
ATOM      3  N   UNL     1       0.439   9.956  20.520  0.00  0.00    +0.000 N 
ATOM      4  H   UNL     1       0.711   9.418  21.333  0.00  0.00    +0.000 HD
ENDROOT
BRANCH   3   5
ATOM      5  C   UNL     1      -0.386  11.160  20.774  0.00  0.00    +0.000 C 
ATOM      6  C   UNL     1       0.352  12.501  20.482  0.00  0.00    +0.000 C 
ATOM      7  C   UNL     1      -0.600  13.692  20.666  0.00  0.00    +0.000 C 
ATOM      8  C   UNL     1      -1.179  13.692  22.105  0.00  0.00    +0.000 C 
ATOM      9  O   UNL     1      -2.226  14.673  22.215  0.00  0.00    +0.000 OA
ATOM     10  C   UNL     1      -3.437  13.953  21.957  0.00  0.00    +0.000 C 
ATOM     11  O   UNL     1      -3.112  12.568  21.700  0.00  0.00    +0.000 OA
ATOM     12  C   UNL     1      -1.899  12.407  22.453  0.00  0.00    +0.000 C 
ATOM     13  C   UNL     1      -1.109  11.131  22.149  0.00  0.00    +0.000 C 
BRANCH   6  14
ATOM     14  O   UNL     1       1.473  12.750  21.324  0.00  0.00    +0.000 OA
ATOM     15  H   UNL     1       1.528  13.712  21.497  0.00  0.00    +0.000 HD
ENDBRANCH   6  14
BRANCH   7  16
ATOM     16  O   UNL     1      -1.593  13.654  19.630  0.00  0.00    +0.000 OA
ATOM     17  H   UNL     1      -2.371  13.171  19.965  0.00  0.00    +0.000 HD
ENDBRANCH   7  16
BRANCH  13  18
ATOM     18  O   UNL     1      -0.233  10.911  23.260  0.00  0.00    +0.000 OA
ATOM     19  H   UNL     1       0.307  11.714  23.414  0.00  0.00    +0.000 HD
ENDBRANCH  13  18
ENDBRANCH   3   5
BRANCH   1  21
ATOM     20  C   UNL     1       2.286   8.057  18.051  0.00  0.00    +0.000 C 
ATOM     21  C   UNL     1       1.707   8.302  19.248  0.00  0.00    +0.000 C 
ATOM     22  C   UNL     1       1.900   7.541  20.522  0.00  0.00    +0.000 C 
BRANCH  20  26
ATOM     23  C   UNL     1       5.053   4.959  16.950  0.00  0.00    +0.000 A 
ATOM     24  C   UNL     1       5.374   6.305  16.780  0.00  0.00    +0.000 A 
ATOM     25  C   UNL     1       4.462   7.302  17.147  0.00  0.00    +0.000 A 
ATOM     26  C   UNL     1       3.202   6.969  17.672  0.00  0.00    +0.000 A 
ATOM     27  C   UNL     1       2.863   5.615  17.740  0.00  0.00    +0.000 A 
ATOM     28  F   UNL     1       1.640   5.223  18.116  0.00  0.00    +0.000 F 
ATOM     29  C   UNL     1       3.779   4.617  17.393  0.00  0.00    +0.000 A 
BRANCH  23  30
ATOM     30  O   UNL     1       6.033   4.059  16.635  0.00  0.00    +0.000 OA
BRANCH  30  31
ATOM     31  C   UNL     1       6.775   4.376  15.455  0.00  0.00    +0.000 C 
BRANCH  31  33
ATOM     32  C   UNL     1       6.186   3.631  13.134  0.00  0.00    +0.000 C 
ATOM     33  C   UNL     1       5.857   4.241  14.281  0.00  0.00    +0.000 C 
ENDBRANCH  31  33
ENDBRANCH  30  31
ENDBRANCH  23  30
ENDBRANCH  20  26
ENDBRANCH   1  21
TORSDOF 9
ENDMDL
MODEL 9
REMARK VINA RESULT:      -7.1      3.032      9.669
REMARK  Name = 
REMARK  10 active torsions:
REMARK  status: ('A' for Active; 'I' for Inactive)
REMARK    1  A    between atoms: C_2  and  C_3
REMARK    2  A    between atoms: C_3  and  O_4
REMARK    3  A    between atoms: O_4  and  C_5
REMARK    4  A    between atoms: C_8  and  C_9
REMARK    5  A    between atoms: C_10  and  C_11
REMARK    6  A    between atoms: C_10  and  C_12
REMARK    7  A    between atoms: N_14  and  C_15
REMARK    8  A    between atoms: C_16  and  O_17
REMARK    9  A    between atoms: C_18  and  O_19
REMARK   10  A    between atoms: C_25  and  O_26
REMARK                            x       y       z     vdW  Elec       q    Type
REMARK                         _______ _______ _______ _____ _____    ______ ____
ROOT
ATOM      1  C   UNL     1       2.376   7.495  18.830  0.00  0.00    +0.000 C 
ATOM      2  O   UNL     1       3.008   7.476  17.777  0.00  0.00    +0.000 OA
ATOM      3  N   UNL     1       2.290   6.388  19.634  0.00  0.00    +0.000 N 
ATOM      4  H   UNL     1       1.779   6.463  20.503  0.00  0.00    +0.000 HD
ENDROOT
BRANCH   3   5
ATOM      5  C   UNL     1       2.885   5.066  19.332  0.00  0.00    +0.000 C 
ATOM      6  C   UNL     1       2.601   4.564  17.884  0.00  0.00    +0.000 C 
ATOM      7  C   UNL     1       3.338   3.243  17.616  0.00  0.00    +0.000 C 
ATOM      8  C   UNL     1       2.909   2.175  18.656  0.00  0.00    +0.000 C 
ATOM      9  O   UNL     1       3.747   1.011  18.543  0.00  0.00    +0.000 OA
ATOM     10  C   UNL     1       4.794   1.214  19.499  0.00  0.00    +0.000 C 
ATOM     11  O   UNL     1       4.578   2.475  20.169  0.00  0.00    +0.000 OA
ATOM     12  C   UNL     1       3.150   2.611  20.086  0.00  0.00    +0.000 C 
ATOM     13  C   UNL     1       2.606   4.001  20.429  0.00  0.00    +0.000 C 
BRANCH   6  14
ATOM     14  O   UNL     1       1.226   4.319  17.607  0.00  0.00    +0.000 OA
ATOM     15  H   UNL     1       0.807   5.158  17.328  0.00  0.00    +0.000 HD
ENDBRANCH   6  14
BRANCH   7  16
ATOM     16  O   UNL     1       4.750   3.500  17.582  0.00  0.00    +0.000 OA
ATOM     17  H   UNL     1       5.042   3.738  18.481  0.00  0.00    +0.000 HD
ENDBRANCH   7  16
BRANCH  13  18
ATOM     18  O   UNL     1       1.218   3.839  20.739  0.00  0.00    +0.000 OA
ATOM     19  H   UNL     1       0.932   2.934  20.494  0.00  0.00    +0.000 HD
ENDBRANCH  13  18
ENDBRANCH   3   5
BRANCH   1  21
ATOM     20  C   UNL     1       1.588   9.712  18.382  0.00  0.00    +0.000 C 
ATOM     21  C   UNL     1       1.682   8.730  19.305  0.00  0.00    +0.000 C 
ATOM     22  C   UNL     1       1.096   8.721  20.682  0.00  0.00    +0.000 C 
BRANCH  20  26
ATOM     23  C   UNL     1      -0.186  13.614  18.685  0.00  0.00    +0.000 A 
ATOM     24  C   UNL     1       1.192  13.439  18.795  0.00  0.00    +0.000 A 
ATOM     25  C   UNL     1       1.755  12.161  18.691  0.00  0.00    +0.000 A 
ATOM     26  C   UNL     1       0.944  11.031  18.495  0.00  0.00    +0.000 A 
ATOM     27  C   UNL     1      -0.441  11.218  18.487  0.00  0.00    +0.000 A 
ATOM     28  F   UNL     1      -1.282  10.179  18.425  0.00  0.00    +0.000 F 
ATOM     29  C   UNL     1      -1.005  12.495  18.571  0.00  0.00    +0.000 A 
BRANCH  23  30
ATOM     30  O   UNL     1      -0.637  14.905  18.724  0.00  0.00    +0.000 OA
BRANCH  30  31
ATOM     31  C   UNL     1       0.392  15.893  18.815  0.00  0.00    +0.000 C 
BRANCH  31  33
ATOM     32  C   UNL     1      -0.459  17.784  17.407  0.00  0.00    +0.000 C 
ATOM     33  C   UNL     1      -0.236  17.236  18.609  0.00  0.00    +0.000 C 
ENDBRANCH  31  33
ENDBRANCH  30  31
ENDBRANCH  23  30
ENDBRANCH  20  26
ENDBRANCH   1  21
TORSDOF 9
ENDMDL
