MODEL 1
REMARK VINA RESULT:      -8.5      0.000      0.000
REMARK  Name = 
REMARK  5 active torsions:
REMARK  status: ('A' for Active; 'I' for Inactive)
REMARK    1  A    between atoms: C_1  and  O_2
REMARK    2  A    between atoms: O_2  and  C_3
REMARK    3  A    between atoms: C_6  and  N_7
REMARK    4  A    between atoms: C_15  and  C_16
REMARK    5  A    between atoms: N_26  and  C_27
REMARK                            x       y       z     vdW  Elec       q    Type
REMARK                         _______ _______ _______ _____ _____    ______ ____
ROOT
ATOM      1  N   UNL     1       0.247   9.247  21.803  0.00  0.00    +0.000 N 
ATOM      2  C   UNL     1       0.976   8.659  20.753  0.00  0.00    +0.000 A 
ATOM      3  C   UNL     1       1.423   7.351  20.915  0.00  0.00    +0.000 A 
ATOM      4  C   UNL     1       2.249   6.777  19.949  0.00  0.00    +0.000 A 
ATOM      5  C   UNL     1       2.577   7.516  18.810  0.00  0.00    +0.000 A 
ATOM      6  C   UNL     1       2.050   8.784  18.698  0.00  0.00    +0.000 A 
ATOM      7  N   UNL     1       1.279   9.358  19.643  0.00  0.00    +0.000 NA
ATOM      8  C   UNL     1       3.457   6.968  17.793  0.00  0.00    +0.000 A 
ATOM      9  C   UNL     1       4.041   5.778  17.993  0.00  0.00    +0.000 A 
ATOM     10  C   UNL     1       3.770   4.985  19.231  0.00  0.00    +0.000 A 
ATOM     11  O   UNL     1       4.377   3.925  19.414  0.00  0.00    +0.000 OA
ATOM     12  N   UNL     1       2.817   5.480  20.115  0.00  0.00    +0.000 N 
ATOM     13  C   UNL     1       2.470   4.687  21.283  0.00  0.00    +0.000 C 
ATOM     14  H   UNL     1      -0.009   8.591  22.528  0.00  0.00    +0.000 HD
ENDROOT
BRANCH   9  15
ATOM     15  C   UNL     1       4.952   5.242  16.959  0.00  0.00    +0.000 A 
ATOM     16  C   UNL     1       6.206   5.832  16.714  0.00  0.00    +0.000 A 
ATOM     17 CL   UNL     1       6.776   7.189  17.628  0.00  0.00    +0.000 Cl
ATOM     18  C   UNL     1       7.043   5.339  15.708  0.00  0.00    +0.000 A 
ATOM     19  C   UNL     1       6.654   4.238  14.949  0.00  0.00    +0.000 A 
ATOM     20  C   UNL     1       5.427   3.626  15.198  0.00  0.00    +0.000 A 
ATOM     21  C   UNL     1       4.580   4.125  16.189  0.00  0.00    +0.000 A 
ATOM     22 CL   UNL     1       3.059   3.325  16.414  0.00  0.00    +0.000 Cl
ENDBRANCH   9  15
BRANCH   1  26
ATOM     23  C   UNL     1      -2.377  12.561  21.810  0.00  0.00    +0.000 A 
ATOM     24  C   UNL     1      -2.066  11.885  22.989  0.00  0.00    +0.000 A 
ATOM     25  C   UNL     1      -1.161  10.821  22.975  0.00  0.00    +0.000 A 
ATOM     26  C   UNL     1      -0.593  10.376  21.776  0.00  0.00    +0.000 A 
ATOM     27  C   UNL     1      -0.893  11.088  20.613  0.00  0.00    +0.000 A 
ATOM     28  C   UNL     1      -1.790  12.160  20.619  0.00  0.00    +0.000 A 
BRANCH  23  30
ATOM     29  C   UNL     1      -4.287  13.372  22.918  0.00  0.00    +0.000 C 
ATOM     30  O   UNL     1      -3.279  13.578  21.934  0.00  0.00    +0.000 OA
ENDBRANCH  23  30
ENDBRANCH   1  26
TORSDOF 3
ENDMDL
MODEL 2
REMARK VINA RESULT:      -8.4      0.206      1.711
REMARK  Name = 
REMARK  5 active torsions:
REMARK  status: ('A' for Active; 'I' for Inactive)
REMARK    1  A    between atoms: C_1  and  O_2
REMARK    2  A    between atoms: O_2  and  C_3
REMARK    3  A    between atoms: C_6  and  N_7
REMARK    4  A    between atoms: C_15  and  C_16
REMARK    5  A    between atoms: N_26  and  C_27
REMARK                            x       y       z     vdW  Elec       q    Type
REMARK                         _______ _______ _______ _____ _____    ______ ____
ROOT
ATOM      1  N   UNL     1       0.229   9.345  21.757  0.00  0.00    +0.000 N 
ATOM      2  C   UNL     1       0.953   8.748  20.709  0.00  0.00    +0.000 A 
ATOM      3  C   UNL     1       1.409   7.445  20.885  0.00  0.00    +0.000 A 
ATOM      4  C   UNL     1       2.232   6.862  19.920  0.00  0.00    +0.000 A 
ATOM      5  C   UNL     1       2.546   7.588  18.769  0.00  0.00    +0.000 A 
ATOM      6  C   UNL     1       2.010   8.851  18.644  0.00  0.00    +0.000 A 
ATOM      7  N   UNL     1       1.243   9.433  19.588  0.00  0.00    +0.000 NA
ATOM      8  C   UNL     1       3.421   7.032  17.752  0.00  0.00    +0.000 A 
ATOM      9  C   UNL     1       4.014   5.849  17.963  0.00  0.00    +0.000 A 
ATOM     10  C   UNL     1       3.758   5.070  19.214  0.00  0.00    +0.000 A 
ATOM     11  O   UNL     1       4.373   4.017  19.406  0.00  0.00    +0.000 OA
ATOM     12  N   UNL     1       2.809   5.572  20.099  0.00  0.00    +0.000 N 
ATOM     13  C   UNL     1       2.476   4.793  21.281  0.00  0.00    +0.000 C 
ATOM     14  H   UNL     1      -0.017   8.698  22.493  0.00  0.00    +0.000 HD
ENDROOT
BRANCH   9  15
ATOM     15  C   UNL     1       4.920   5.304  16.930  0.00  0.00    +0.000 A 
ATOM     16  C   UNL     1       4.583   4.151  16.197  0.00  0.00    +0.000 A 
ATOM     17 CL   UNL     1       3.077   3.326  16.426  0.00  0.00    +0.000 Cl
ATOM     18  C   UNL     1       5.466   3.624  15.250  0.00  0.00    +0.000 A 
ATOM     19  C   UNL     1       6.686   4.249  15.002  0.00  0.00    +0.000 A 
ATOM     20  C   UNL     1       7.022   5.406  15.701  0.00  0.00    +0.000 A 
ATOM     21  C   UNL     1       6.152   5.928  16.660  0.00  0.00    +0.000 A 
ATOM     22 CL   UNL     1       6.660   7.352  17.506  0.00  0.00    +0.000 Cl
ENDBRANCH   9  15
BRANCH   1  26
ATOM     23  C   UNL     1      -2.412  12.646  21.747  0.00  0.00    +0.000 A 
ATOM     24  C   UNL     1      -2.037  12.026  22.939  0.00  0.00    +0.000 A 
ATOM     25  C   UNL     1      -1.127  10.966  22.927  0.00  0.00    +0.000 A 
ATOM     26  C   UNL     1      -0.618  10.469  21.721  0.00  0.00    +0.000 A 
ATOM     27  C   UNL     1      -0.983  11.125  20.544  0.00  0.00    +0.000 A 
ATOM     28  C   UNL     1      -1.885  12.192  20.547  0.00  0.00    +0.000 A 
BRANCH  23  30
ATOM     29  C   UNL     1      -4.665  13.253  22.049  0.00  0.00    +0.000 C 
ATOM     30  O   UNL     1      -3.313  13.663  21.871  0.00  0.00    +0.000 OA
ENDBRANCH  23  30
ENDBRANCH   1  26
TORSDOF 3
ENDMDL
MODEL 3
REMARK VINA RESULT:      -8.2      0.600      1.059
REMARK  Name = 
REMARK  5 active torsions:
REMARK  status: ('A' for Active; 'I' for Inactive)
REMARK    1  A    between atoms: C_1  and  O_2
REMARK    2  A    between atoms: O_2  and  C_3
REMARK    3  A    between atoms: C_6  and  N_7
REMARK    4  A    between atoms: C_15  and  C_16
REMARK    5  A    between atoms: N_26  and  C_27
REMARK                            x       y       z     vdW  Elec       q    Type
REMARK                         _______ _______ _______ _____ _____    ______ ____
ROOT
ATOM      1  N   UNL     1       0.183   9.557  21.495  0.00  0.00    +0.000 N 
ATOM      2  C   UNL     1       0.938   8.921  20.492  0.00  0.00    +0.000 A 
ATOM      3  C   UNL     1       1.372   7.618  20.721  0.00  0.00    +0.000 A 
ATOM      4  C   UNL     1       2.221   6.999  19.805  0.00  0.00    +0.000 A 
ATOM      5  C   UNL     1       2.587   7.687  18.646  0.00  0.00    +0.000 A 
ATOM      6  C   UNL     1       2.072   8.952  18.465  0.00  0.00    +0.000 A 
ATOM      7  N   UNL     1       1.278   9.571  19.363  0.00  0.00    +0.000 NA
ATOM      8  C   UNL     1       3.491   7.093  17.679  0.00  0.00    +0.000 A 
ATOM      9  C   UNL     1       4.061   5.909  17.945  0.00  0.00    +0.000 A 
ATOM     10  C   UNL     1       3.750   5.170  19.207  0.00  0.00    +0.000 A 
ATOM     11  O   UNL     1       4.345   4.115  19.452  0.00  0.00    +0.000 OA
ATOM     12  N   UNL     1       2.775   5.708  20.042  0.00  0.00    +0.000 N 
ATOM     13  C   UNL     1       2.390   4.967  21.232  0.00  0.00    +0.000 C 
ATOM     14  H   UNL     1      -0.098   8.933  22.239  0.00  0.00    +0.000 HD
ENDROOT
BRANCH   9  15
ATOM     15  C   UNL     1       4.999   5.324  16.962  0.00  0.00    +0.000 A 
ATOM     16  C   UNL     1       6.254   5.909  16.713  0.00  0.00    +0.000 A 
ATOM     17 CL   UNL     1       6.797   7.316  17.566  0.00  0.00    +0.000 Cl
ATOM     18  C   UNL     1       7.116   5.368  15.754  0.00  0.00    +0.000 A 
ATOM     19  C   UNL     1       6.749   4.226  15.045  0.00  0.00    +0.000 A 
ATOM     20  C   UNL     1       5.520   3.621  15.299  0.00  0.00    +0.000 A 
ATOM     21  C   UNL     1       4.649   4.166  16.244  0.00  0.00    +0.000 A 
ATOM     22 CL   UNL     1       3.128   3.370  16.477  0.00  0.00    +0.000 Cl
ENDBRANCH   9  15
BRANCH   1  26
ATOM     23  C   UNL     1      -2.225  13.005  21.079  0.00  0.00    +0.000 A 
ATOM     24  C   UNL     1      -1.863  12.240  19.971  0.00  0.00    +0.000 A 
ATOM     25  C   UNL     1      -1.106  11.078  20.132  0.00  0.00    +0.000 A 
ATOM     26  C   UNL     1      -0.648  10.688  21.396  0.00  0.00    +0.000 A 
ATOM     27  C   UNL     1      -1.049  11.451  22.494  0.00  0.00    +0.000 A 
ATOM     28  C   UNL     1      -1.815  12.610  22.344  0.00  0.00    +0.000 A 
BRANCH  23  30
ATOM     29  C   UNL     1      -4.368  13.960  20.903  0.00  0.00    +0.000 C 
ATOM     30  O   UNL     1      -2.957  14.125  20.809  0.00  0.00    +0.000 OA
ENDBRANCH  23  30
ENDBRANCH   1  26
TORSDOF 3
ENDMDL
MODEL 4
REMARK VINA RESULT:      -8.1      3.460      9.765
REMARK  Name = 
REMARK  5 active torsions:
REMARK  status: ('A' for Active; 'I' for Inactive)
REMARK    1  A    between atoms: C_1  and  O_2
REMARK    2  A    between atoms: O_2  and  C_3
REMARK    3  A    between atoms: C_6  and  N_7
REMARK    4  A    between atoms: C_15  and  C_16
REMARK    5  A    between atoms: N_26  and  C_27
REMARK                            x       y       z     vdW  Elec       q    Type
REMARK                         _______ _______ _______ _____ _____    ______ ____
ROOT
ATOM      1  N   UNL     1       2.237   6.680  19.413  0.00  0.00    +0.000 N 
ATOM      2  C   UNL     1       1.813   8.017  19.533  0.00  0.00    +0.000 A 
ATOM      3  C   UNL     1       1.353   8.452  20.772  0.00  0.00    +0.000 A 
ATOM      4  C   UNL     1       0.813   9.732  20.900  0.00  0.00    +0.000 A 
ATOM      5  C   UNL     1       0.787  10.572  19.785  0.00  0.00    +0.000 A 
ATOM      6  C   UNL     1       1.312  10.087  18.607  0.00  0.00    +0.000 A 
ATOM      7  N   UNL     1       1.804   8.839  18.467  0.00  0.00    +0.000 NA
ATOM      8  C   UNL     1       0.209  11.901  19.865  0.00  0.00    +0.000 A 
ATOM      9  C   UNL     1      -0.395  12.294  20.996  0.00  0.00    +0.000 A 
ATOM     10  C   UNL     1      -0.450  11.398  22.192  0.00  0.00    +0.000 A 
ATOM     11  O   UNL     1      -1.073  11.765  23.193  0.00  0.00    +0.000 OA
ATOM     12  N   UNL     1       0.234  10.189  22.120  0.00  0.00    +0.000 N 
ATOM     13  C   UNL     1       0.272   9.337  23.297  0.00  0.00    +0.000 C 
ATOM     14  H   UNL     1       2.301   6.200  20.301  0.00  0.00    +0.000 HD
ENDROOT
BRANCH   9  15
ATOM     15  C   UNL     1      -1.000  13.642  21.058  0.00  0.00    +0.000 A 
ATOM     16  C   UNL     1      -0.244  14.763  21.448  0.00  0.00    +0.000 A 
ATOM     17 CL   UNL     1       1.440  14.646  21.838  0.00  0.00    +0.000 Cl
ATOM     18  C   UNL     1      -0.838  16.026  21.540  0.00  0.00    +0.000 A 
ATOM     19  C   UNL     1      -2.184  16.195  21.222  0.00  0.00    +0.000 A 
ATOM     20  C   UNL     1      -2.937  15.099  20.809  0.00  0.00    +0.000 A 
ATOM     21  C   UNL     1      -2.355  13.832  20.732  0.00  0.00    +0.000 A 
ATOM     22 CL   UNL     1      -3.370  12.518  20.239  0.00  0.00    +0.000 Cl
ENDBRANCH   9  15
BRANCH   1  26
ATOM     23  C   UNL     1       4.674   4.786  16.526  0.00  0.00    +0.000 A 
ATOM     24  C   UNL     1       3.624   4.105  17.142  0.00  0.00    +0.000 A 
ATOM     25  C   UNL     1       2.800   4.761  18.059  0.00  0.00    +0.000 A 
ATOM     26  C   UNL     1       3.043   6.091  18.422  0.00  0.00    +0.000 A 
ATOM     27  C   UNL     1       4.080   6.761  17.770  0.00  0.00    +0.000 A 
ATOM     28  C   UNL     1       4.904   6.116  16.843  0.00  0.00    +0.000 A 
BRANCH  23  30
ATOM     29  C   UNL     1       6.739   4.542  15.425  0.00  0.00    +0.000 C 
ATOM     30  O   UNL     1       5.423   4.049  15.654  0.00  0.00    +0.000 OA
ENDBRANCH  23  30
ENDBRANCH   1  26
TORSDOF 3
ENDMDL
MODEL 5
REMARK VINA RESULT:      -8.0      3.416      9.841
REMARK  Name = 
REMARK  5 active torsions:
REMARK  status: ('A' for Active; 'I' for Inactive)
REMARK    1  A    between atoms: C_1  and  O_2
REMARK    2  A    between atoms: O_2  and  C_3
REMARK    3  A    between atoms: C_6  and  N_7
REMARK    4  A    between atoms: C_15  and  C_16
REMARK    5  A    between atoms: N_26  and  C_27
REMARK                            x       y       z     vdW  Elec       q    Type
REMARK                         _______ _______ _______ _____ _____    ______ ____
ROOT
ATOM      1  N   UNL     1       2.329   6.526  19.417  0.00  0.00    +0.000 N 
ATOM      2  C   UNL     1       1.914   7.867  19.513  0.00  0.00    +0.000 A 
ATOM      3  C   UNL     1       1.454   8.326  20.743  0.00  0.00    +0.000 A 
ATOM      4  C   UNL     1       0.923   9.612  20.848  0.00  0.00    +0.000 A 
ATOM      5  C   UNL     1       0.903  10.433  19.719  0.00  0.00    +0.000 A 
ATOM      6  C   UNL     1       1.428   9.924  18.551  0.00  0.00    +0.000 A 
ATOM      7  N   UNL     1       1.911   8.671  18.433  0.00  0.00    +0.000 NA
ATOM      8  C   UNL     1       0.334  11.767  19.775  0.00  0.00    +0.000 A 
ATOM      9  C   UNL     1      -0.269  12.183  20.898  0.00  0.00    +0.000 A 
ATOM     10  C   UNL     1      -0.331  11.309  22.109  0.00  0.00    +0.000 A 
ATOM     11  O   UNL     1      -0.953  11.696  23.103  0.00  0.00    +0.000 OA
ATOM     12  N   UNL     1       0.345  10.094  22.059  0.00  0.00    +0.000 N 
ATOM     13  C   UNL     1       0.376   9.262  23.251  0.00  0.00    +0.000 C 
ATOM     14  H   UNL     1       2.388   6.061  20.312  0.00  0.00    +0.000 HD
ENDROOT
BRANCH   9  15
ATOM     15  C   UNL     1      -0.865  13.536  20.936  0.00  0.00    +0.000 A 
ATOM     16  C   UNL     1      -2.214  13.749  20.600  0.00  0.00    +0.000 A 
ATOM     17 CL   UNL     1      -3.269  12.445  20.164  0.00  0.00    +0.000 Cl
ATOM     18  C   UNL     1      -2.756  15.038  20.602  0.00  0.00    +0.000 A 
ATOM     19  C   UNL     1      -1.968  16.130  20.962  0.00  0.00    +0.000 A 
ATOM     20  C   UNL     1      -0.637  15.931  21.322  0.00  0.00    +0.000 A 
ATOM     21  C   UNL     1      -0.087  14.649  21.305  0.00  0.00    +0.000 A 
ATOM     22 CL   UNL     1       1.584  14.493  21.738  0.00  0.00    +0.000 Cl
ENDBRANCH   9  15
BRANCH   1  26
ATOM     23  C   UNL     1       4.743   4.560  16.558  0.00  0.00    +0.000 A 
ATOM     24  C   UNL     1       3.607   3.947  17.087  0.00  0.00    +0.000 A 
ATOM     25  C   UNL     1       2.796   4.630  17.995  0.00  0.00    +0.000 A 
ATOM     26  C   UNL     1       3.133   5.915  18.437  0.00  0.00    +0.000 A 
ATOM     27  C   UNL     1       4.256   6.520  17.871  0.00  0.00    +0.000 A 
ATOM     28  C   UNL     1       5.069   5.849  16.953  0.00  0.00    +0.000 A 
BRANCH  23  30
ATOM     29  C   UNL     1       6.459   4.512  14.949  0.00  0.00    +0.000 C 
ATOM     30  O   UNL     1       5.471   3.801  15.687  0.00  0.00    +0.000 OA
ENDBRANCH  23  30
ENDBRANCH   1  26
TORSDOF 3
ENDMDL
MODEL 6
REMARK VINA RESULT:      -7.8      3.947     10.496
REMARK  Name = 
REMARK  5 active torsions:
REMARK  status: ('A' for Active; 'I' for Inactive)
REMARK    1  A    between atoms: C_1  and  O_2
REMARK    2  A    between atoms: O_2  and  C_3
REMARK    3  A    between atoms: C_6  and  N_7
REMARK    4  A    between atoms: C_15  and  C_16
REMARK    5  A    between atoms: N_26  and  C_27
REMARK                            x       y       z     vdW  Elec       q    Type
REMARK                         _______ _______ _______ _____ _____    ______ ____
ROOT
ATOM      1  N   UNL     1       1.818   7.896  19.455  0.00  0.00    +0.000 N 
ATOM      2  C   UNL     1       1.131   8.794  20.292  0.00  0.00    +0.000 A 
ATOM      3  C   UNL     1       0.445   9.851  19.701  0.00  0.00    +0.000 A 
ATOM      4  C   UNL     1      -0.146  10.828  20.502  0.00  0.00    +0.000 A 
ATOM      5  C   UNL     1      -0.074  10.701  21.890  0.00  0.00    +0.000 A 
ATOM      6  C   UNL     1       0.575   9.598  22.399  0.00  0.00    +0.000 A 
ATOM      7  N   UNL     1       1.178   8.667  21.631  0.00  0.00    +0.000 NA
ATOM      8  C   UNL     1      -0.651  11.709  22.763  0.00  0.00    +0.000 A 
ATOM      9  C   UNL     1      -1.172  12.824  22.232  0.00  0.00    +0.000 A 
ATOM     10  C   UNL     1      -1.207  13.031  20.752  0.00  0.00    +0.000 A 
ATOM     11  O   UNL     1      -1.632  14.099  20.300  0.00  0.00    +0.000 OA
ATOM     12  N   UNL     1      -0.770  11.983  19.947  0.00  0.00    +0.000 N 
ATOM     13  C   UNL     1      -0.873  12.122  18.504  0.00  0.00    +0.000 C 
ATOM     14  H   UNL     1       1.617   8.031  18.473  0.00  0.00    +0.000 HD
ENDROOT
BRANCH   9  15
ATOM     15  C   UNL     1      -1.736  13.853  23.132  0.00  0.00    +0.000 A 
ATOM     16  C   UNL     1      -2.997  13.686  23.733  0.00  0.00    +0.000 A 
ATOM     17 CL   UNL     1      -3.945  12.256  23.494  0.00  0.00    +0.000 Cl
ATOM     18  C   UNL     1      -3.536  14.684  24.552  0.00  0.00    +0.000 A 
ATOM     19  C   UNL     1      -2.817  15.851  24.801  0.00  0.00    +0.000 A 
ATOM     20  C   UNL     1      -1.556  16.019  24.234  0.00  0.00    +0.000 A 
ATOM     21  C   UNL     1      -1.020  15.034  23.403  0.00  0.00    +0.000 A 
ATOM     22 CL   UNL     1       0.540  15.336  22.713  0.00  0.00    +0.000 Cl
ENDBRANCH   9  15
BRANCH   1  26
ATOM     23  C   UNL     1       3.226   3.972  20.150  0.00  0.00    +0.000 A 
ATOM     24  C   UNL     1       3.906   4.841  19.298  0.00  0.00    +0.000 A 
ATOM     25  C   UNL     1       3.452   6.150  19.117  0.00  0.00    +0.000 A 
ATOM     26  C   UNL     1       2.280   6.597  19.737  0.00  0.00    +0.000 A 
ATOM     27  C   UNL     1       1.634   5.719  20.610  0.00  0.00    +0.000 A 
ATOM     28  C   UNL     1       2.086   4.412  20.806  0.00  0.00    +0.000 A 
BRANCH  23  30
ATOM     29  C   UNL     1       3.750   1.966  19.037  0.00  0.00    +0.000 C 
ATOM     30  O   UNL     1       3.749   2.714  20.248  0.00  0.00    +0.000 OA
ENDBRANCH  23  30
ENDBRANCH   1  26
TORSDOF 3
ENDMDL
MODEL 7
REMARK VINA RESULT:      -7.8      3.934     10.385
REMARK  Name = 
REMARK  5 active torsions:
REMARK  status: ('A' for Active; 'I' for Inactive)
REMARK    1  A    between atoms: C_1  and  O_2
REMARK    2  A    between atoms: O_2  and  C_3
REMARK    3  A    between atoms: C_6  and  N_7
REMARK    4  A    between atoms: C_15  and  C_16
REMARK    5  A    between atoms: N_26  and  C_27
REMARK                            x       y       z     vdW  Elec       q    Type
REMARK                         _______ _______ _______ _____ _____    ______ ____
ROOT
ATOM      1  N   UNL     1       1.818   8.001  19.389  0.00  0.00    +0.000 N 
ATOM      2  C   UNL     1       1.123   8.890  20.230  0.00  0.00    +0.000 A 
ATOM      3  C   UNL     1       0.424   9.940  19.643  0.00  0.00    +0.000 A 
ATOM      4  C   UNL     1      -0.175  10.909  20.448  0.00  0.00    +0.000 A 
ATOM      5  C   UNL     1      -0.099  10.780  21.836  0.00  0.00    +0.000 A 
ATOM      6  C   UNL     1       0.564   9.683  22.341  0.00  0.00    +0.000 A 
ATOM      7  N   UNL     1       1.176   8.761  21.569  0.00  0.00    +0.000 NA
ATOM      8  C   UNL     1      -0.683  11.780  22.712  0.00  0.00    +0.000 A 
ATOM      9  C   UNL     1      -1.219  12.890  22.185  0.00  0.00    +0.000 A 
ATOM     10  C   UNL     1      -1.260  13.099  20.706  0.00  0.00    +0.000 A 
ATOM     11  O   UNL     1      -1.698  14.164  20.258  0.00  0.00    +0.000 OA
ATOM     12  N   UNL     1      -0.814  12.057  19.898  0.00  0.00    +0.000 N 
ATOM     13  C   UNL     1      -0.924  12.198  18.455  0.00  0.00    +0.000 C 
ATOM     14  H   UNL     1       1.612   8.135  18.409  0.00  0.00    +0.000 HD
ENDROOT
BRANCH   9  15
ATOM     15  C   UNL     1      -1.791  13.911  23.089  0.00  0.00    +0.000 A 
ATOM     16  C   UNL     1      -1.065  15.064  23.441  0.00  0.00    +0.000 A 
ATOM     17 CL   UNL     1       0.518  15.380  22.810  0.00  0.00    +0.000 Cl
ATOM     18  C   UNL     1      -1.602  16.003  24.326  0.00  0.00    +0.000 A 
ATOM     19  C   UNL     1      -2.878  15.820  24.856  0.00  0.00    +0.000 A 
ATOM     20  C   UNL     1      -3.619  14.697  24.496  0.00  0.00    +0.000 A 
ATOM     21  C   UNL     1      -3.081  13.748  23.626  0.00  0.00    +0.000 A 
ATOM     22 CL   UNL     1      -4.057  12.365  23.254  0.00  0.00    +0.000 Cl
ENDBRANCH   9  15
BRANCH   1  26
ATOM     23  C   UNL     1       3.269   4.090  20.073  0.00  0.00    +0.000 A 
ATOM     24  C   UNL     1       3.926   4.962  19.204  0.00  0.00    +0.000 A 
ATOM     25  C   UNL     1       3.458   6.266  19.026  0.00  0.00    +0.000 A 
ATOM     26  C   UNL     1       2.295   6.706  19.668  0.00  0.00    +0.000 A 
ATOM     27  C   UNL     1       1.672   5.828  20.556  0.00  0.00    +0.000 A 
ATOM     28  C   UNL     1       2.138   4.524  20.748  0.00  0.00    +0.000 A 
BRANCH  23  30
ATOM     29  C   UNL     1       3.630   2.022  19.011  0.00  0.00    +0.000 C 
ATOM     30  O   UNL     1       3.803   2.837  20.165  0.00  0.00    +0.000 OA
ENDBRANCH  23  30
ENDBRANCH   1  26
TORSDOF 3
ENDMDL
