MODEL 1
REMARK VINA RESULT:      -8.3      0.000      0.000
REMARK  Name = 
REMARK  4 active torsions:
REMARK  status: ('A' for Active; 'I' for Inactive)
REMARK    1  A    between atoms: C_1  and  C_2
REMARK    2  A    between atoms: C_6  and  C_8
REMARK    3  A    between atoms: C_8  and  N_9
REMARK    4  A    between atoms: N_14  and  C_15
REMARK                            x       y       z     vdW  Elec       q    Type
REMARK                         _______ _______ _______ _____ _____    ______ ____
ROOT
ATOM      1  N   UNL     1       4.039   4.988  19.402  0.00  0.00    +0.000 NA
ATOM      2  C   UNL     1       2.884   4.472  20.168  0.00  0.00    +0.000 C 
ATOM      3  C   UNL     1       2.270   5.613  20.968  0.00  0.00    +0.000 C 
ATOM      4  C   UNL     1       2.005   6.851  20.135  0.00  0.00    +0.000 A 
ATOM      5  N   UNL     1       1.239   7.764  20.649  0.00  0.00    +0.000 NA
ATOM      6  N   UNL     1       1.049   8.921  19.931  0.00  0.00    +0.000 N 
ATOM      7  C   UNL     1       0.195   9.930  20.524  0.00  0.00    +0.000 C 
ATOM      8  C   UNL     1       1.644   9.187  18.709  0.00  0.00    +0.000 A 
ATOM      9  O   UNL     1       1.501  10.222  18.063  0.00  0.00    +0.000 OA
ATOM     10  C   UNL     1       2.504   8.121  18.165  0.00  0.00    +0.000 A 
ATOM     11  C   UNL     1       2.682   6.971  18.822  0.00  0.00    +0.000 A 
ATOM     12  C   UNL     1       3.515   5.839  18.317  0.00  0.00    +0.000 C 
ENDROOT
BRANCH   1  13
ATOM     13  C   UNL     1       4.825   3.880  18.813  0.00  0.00    +0.000 C 
BRANCH  13  19
ATOM     14  C   UNL     1       7.436   4.661  11.894  0.00  0.00    +0.000 C 
ATOM     15  C   UNL     1       7.053   4.607  13.316  0.00  0.00    +0.000 A 
ATOM     16  C   UNL     1       6.090   3.954  14.046  0.00  0.00    +0.000 A 
ATOM     17  C   UNL     1       6.314   4.360  15.391  0.00  0.00    +0.000 A 
ATOM     18  N   UNL     1       5.576   3.951  16.485  0.00  0.00    +0.000 N 
ATOM     19  C   UNL     1       5.823   4.385  17.771  0.00  0.00    +0.000 C 
ATOM     20  O   UNL     1       6.748   5.111  18.134  0.00  0.00    +0.000 OA
ATOM     21  N   UNL     1       7.347   5.208  15.442  0.00  0.00    +0.000 NA
ATOM     22  O   UNL     1       7.804   5.363  14.156  0.00  0.00    +0.000 OA
ATOM     23  H   UNL     1       4.767   3.361  16.323  0.00  0.00    +0.000 HD
ENDBRANCH  13  19
ENDBRANCH   1  13
TORSDOF 2
ENDMDL
MODEL 2
REMARK VINA RESULT:      -7.7      1.757      8.123
REMARK  Name = 
REMARK  4 active torsions:
REMARK  status: ('A' for Active; 'I' for Inactive)
REMARK    1  A    between atoms: C_1  and  C_2
REMARK    2  A    between atoms: C_6  and  C_8
REMARK    3  A    between atoms: C_8  and  N_9
REMARK    4  A    between atoms: N_14  and  C_15
REMARK                            x       y       z     vdW  Elec       q    Type
REMARK                         _______ _______ _______ _____ _____    ______ ____
ROOT
ATOM      1  N   UNL     1       3.320   5.519  18.704  0.00  0.00    +0.000 NA
ATOM      2  C   UNL     1       3.047   4.076  18.533  0.00  0.00    +0.000 C 
ATOM      3  C   UNL     1       3.218   3.709  17.065  0.00  0.00    +0.000 C 
ATOM      4  C   UNL     1       4.522   4.206  16.474  0.00  0.00    +0.000 A 
ATOM      5  N   UNL     1       4.884   3.713  15.328  0.00  0.00    +0.000 NA
ATOM      6  N   UNL     1       6.030   4.207  14.751  0.00  0.00    +0.000 N 
ATOM      7  C   UNL     1       6.415   3.649  13.471  0.00  0.00    +0.000 C 
ATOM      8  C   UNL     1       6.807   5.216  15.298  0.00  0.00    +0.000 A 
ATOM      9  O   UNL     1       7.821   5.683  14.787  0.00  0.00    +0.000 OA
ATOM     10  C   UNL     1       6.356   5.744  16.599  0.00  0.00    +0.000 A 
ATOM     11  C   UNL     1       5.266   5.261  17.202  0.00  0.00    +0.000 A 
ATOM     12  C   UNL     1       4.770   5.727  18.532  0.00  0.00    +0.000 C 
ENDROOT
BRANCH   1  13
ATOM     13  C   UNL     1       2.920   5.981  20.053  0.00  0.00    +0.000 C 
BRANCH  13  19
ATOM     14  C   UNL     1      -1.220  11.429  22.964  0.00  0.00    +0.000 C 
ATOM     15  C   UNL     1      -0.403  10.441  22.237  0.00  0.00    +0.000 A 
ATOM     16  C   UNL     1       0.126   9.208  22.526  0.00  0.00    +0.000 A 
ATOM     17  C   UNL     1       0.802   8.813  21.338  0.00  0.00    +0.000 A 
ATOM     18  N   UNL     1       1.490   7.628  21.163  0.00  0.00    +0.000 N 
ATOM     19  C   UNL     1       2.144   7.297  19.995  0.00  0.00    +0.000 C 
ATOM     20  O   UNL     1       2.147   7.945  18.948  0.00  0.00    +0.000 OA
ATOM     21  N   UNL     1       0.680   9.768  20.409  0.00  0.00    +0.000 NA
ATOM     22  O   UNL     1      -0.065  10.778  20.967  0.00  0.00    +0.000 OA
ATOM     23  H   UNL     1       1.581   7.006  21.959  0.00  0.00    +0.000 HD
ENDBRANCH  13  19
ENDBRANCH   1  13
TORSDOF 2
ENDMDL
MODEL 3
REMARK VINA RESULT:      -7.5      1.763      2.577
REMARK  Name = 
REMARK  4 active torsions:
REMARK  status: ('A' for Active; 'I' for Inactive)
REMARK    1  A    between atoms: C_1  and  C_2
REMARK    2  A    between atoms: C_6  and  C_8
REMARK    3  A    between atoms: C_8  and  N_9
REMARK    4  A    between atoms: N_14  and  C_15
REMARK                            x       y       z     vdW  Elec       q    Type
REMARK                         _______ _______ _______ _____ _____    ______ ____
ROOT
ATOM      1  N   UNL     1       2.157   6.363  18.891  0.00  0.00    +0.000 NA
ATOM      2  C   UNL     1       2.771   7.385  18.016  0.00  0.00    +0.000 C 
ATOM      3  C   UNL     1       1.877   8.616  17.987  0.00  0.00    +0.000 C 
ATOM      4  C   UNL     1       1.469   9.092  19.366  0.00  0.00    +0.000 A 
ATOM      5  N   UNL     1       0.947  10.277  19.459  0.00  0.00    +0.000 NA
ATOM      6  N   UNL     1       0.511  10.691  20.696  0.00  0.00    +0.000 N 
ATOM      7  C   UNL     1      -0.073  12.014  20.778  0.00  0.00    +0.000 C 
ATOM      8  C   UNL     1       0.566   9.915  21.842  0.00  0.00    +0.000 A 
ATOM      9  O   UNL     1       0.164  10.260  22.950  0.00  0.00    +0.000 OA
ATOM     10  C   UNL     1       1.168   8.578  21.687  0.00  0.00    +0.000 A 
ATOM     11  C   UNL     1       1.632   8.159  20.506  0.00  0.00    +0.000 A 
ATOM     12  C   UNL     1       2.279   6.831  20.284  0.00  0.00    +0.000 C 
ENDROOT
BRANCH   1  13
ATOM     13  C   UNL     1       2.846   5.060  18.754  0.00  0.00    +0.000 C 
BRANCH  13  19
ATOM     14  C   UNL     1       7.701   4.925  13.123  0.00  0.00    +0.000 C 
ATOM     15  C   UNL     1       6.873   5.005  14.339  0.00  0.00    +0.000 A 
ATOM     16  C   UNL     1       5.574   4.696  14.660  0.00  0.00    +0.000 A 
ATOM     17  C   UNL     1       5.453   5.020  16.040  0.00  0.00    +0.000 A 
ATOM     18  N   UNL     1       4.308   4.873  16.800  0.00  0.00    +0.000 N 
ATOM     19  C   UNL     1       4.235   5.216  18.134  0.00  0.00    +0.000 C 
ATOM     20  O   UNL     1       5.162   5.616  18.840  0.00  0.00    +0.000 OA
ATOM     21  N   UNL     1       6.615   5.498  16.497  0.00  0.00    +0.000 NA
ATOM     22  O   UNL     1       7.495   5.492  15.442  0.00  0.00    +0.000 OA
ATOM     23  H   UNL     1       3.460   4.568  16.334  0.00  0.00    +0.000 HD
ENDBRANCH  13  19
ENDBRANCH   1  13
TORSDOF 2
ENDMDL
MODEL 4
REMARK VINA RESULT:      -7.4      4.395      5.833
REMARK  Name = 
REMARK  4 active torsions:
REMARK  status: ('A' for Active; 'I' for Inactive)
REMARK    1  A    between atoms: C_1  and  C_2
REMARK    2  A    between atoms: C_6  and  C_8
REMARK    3  A    between atoms: C_8  and  N_9
REMARK    4  A    between atoms: N_14  and  C_15
REMARK                            x       y       z     vdW  Elec       q    Type
REMARK                         _______ _______ _______ _____ _____    ______ ____
ROOT
ATOM      1  N   UNL     1       6.040   5.961  17.418  0.00  0.00    +0.000 NA
ATOM      2  C   UNL     1       5.596   4.900  16.489  0.00  0.00    +0.000 C 
ATOM      3  C   UNL     1       4.889   3.809  17.282  0.00  0.00    +0.000 C 
ATOM      4  C   UNL     1       3.828   4.345  18.221  0.00  0.00    +0.000 A 
ATOM      5  N   UNL     1       2.991   3.491  18.727  0.00  0.00    +0.000 NA
ATOM      6  N   UNL     1       2.068   3.957  19.633  0.00  0.00    +0.000 N 
ATOM      7  C   UNL     1       1.146   2.988  20.190  0.00  0.00    +0.000 C 
ATOM      8  C   UNL     1       1.992   5.272  20.064  0.00  0.00    +0.000 A 
ATOM      9  O   UNL     1       1.188   5.702  20.887  0.00  0.00    +0.000 OA
ATOM     10  C   UNL     1       2.963   6.204  19.462  0.00  0.00    +0.000 A 
ATOM     11  C   UNL     1       3.850   5.790  18.553  0.00  0.00    +0.000 A 
ATOM     12  C   UNL     1       4.841   6.684  17.882  0.00  0.00    +0.000 C 
ENDROOT
BRANCH   1  13
ATOM     13  C   UNL     1       6.951   6.913  16.744  0.00  0.00    +0.000 C 
BRANCH  13  19
ATOM     14  C   UNL     1      10.036  13.111  19.458  0.00  0.00    +0.000 C 
ATOM     15  C   UNL     1       9.493  11.800  19.059  0.00  0.00    +0.000 A 
ATOM     16  C   UNL     1       8.798  11.318  17.978  0.00  0.00    +0.000 A 
ATOM     17  C   UNL     1       8.613   9.934  18.252  0.00  0.00    +0.000 A 
ATOM     18  N   UNL     1       7.957   9.036  17.432  0.00  0.00    +0.000 N 
ATOM     19  C   UNL     1       7.789   7.704  17.749  0.00  0.00    +0.000 C 
ATOM     20  O   UNL     1       8.247   7.121  18.732  0.00  0.00    +0.000 OA
ATOM     21  N   UNL     1       9.164   9.627  19.431  0.00  0.00    +0.000 NA
ATOM     22  O   UNL     1       9.708  10.785  19.933  0.00  0.00    +0.000 OA
ATOM     23  H   UNL     1       7.512   9.391  16.592  0.00  0.00    +0.000 HD
ENDBRANCH  13  19
ENDBRANCH   1  13
TORSDOF 2
ENDMDL
MODEL 5
REMARK VINA RESULT:      -7.3      3.265      8.359
REMARK  Name = 
REMARK  4 active torsions:
REMARK  status: ('A' for Active; 'I' for Inactive)
REMARK    1  A    between atoms: C_1  and  C_2
REMARK    2  A    between atoms: C_6  and  C_8
REMARK    3  A    between atoms: C_8  and  N_9
REMARK    4  A    between atoms: N_14  and  C_15
REMARK                            x       y       z     vdW  Elec       q    Type
REMARK                         _______ _______ _______ _____ _____    ______ ____
ROOT
ATOM      1  N   UNL     1       1.782   8.455  18.525  0.00  0.00    +0.000 NA
ATOM      2  C   UNL     1       1.910   8.349  19.994  0.00  0.00    +0.000 C 
ATOM      3  C   UNL     1       1.625   6.914  20.414  0.00  0.00    +0.000 C 
ATOM      4  C   UNL     1       2.404   5.891  19.613  0.00  0.00    +0.000 A 
ATOM      5  N   UNL     1       2.444   4.677  20.071  0.00  0.00    +0.000 NA
ATOM      6  N   UNL     1       3.089   3.727  19.316  0.00  0.00    +0.000 N 
ATOM      7  C   UNL     1       3.119   2.377  19.842  0.00  0.00    +0.000 C 
ATOM      8  C   UNL     1       3.674   3.974  18.084  0.00  0.00    +0.000 A 
ATOM      9  O   UNL     1       4.237   3.134  17.387  0.00  0.00    +0.000 OA
ATOM     10  C   UNL     1       3.603   5.367  17.605  0.00  0.00    +0.000 A 
ATOM     11  C   UNL     1       3.014   6.320  18.332  0.00  0.00    +0.000 A 
ATOM     12  C   UNL     1       2.931   7.755  17.922  0.00  0.00    +0.000 C 
ENDROOT
BRANCH   1  13
ATOM     13  C   UNL     1       1.795   9.871  18.090  0.00  0.00    +0.000 C 
BRANCH  13  19
ATOM     14  C   UNL     1      -5.534  11.091  17.767  0.00  0.00    +0.000 C 
ATOM     15  C   UNL     1      -4.077  10.976  17.952  0.00  0.00    +0.000 A 
ATOM     16  C   UNL     1      -3.070  10.252  17.363  0.00  0.00    +0.000 A 
ATOM     17  C   UNL     1      -1.886  10.655  18.041  0.00  0.00    +0.000 A 
ATOM     18  N   UNL     1      -0.614  10.182  17.782  0.00  0.00    +0.000 N 
ATOM     19  C   UNL     1       0.504  10.593  18.478  0.00  0.00    +0.000 C 
ATOM     20  O   UNL     1       0.547  11.465  19.346  0.00  0.00    +0.000 OA
ATOM     21  N   UNL     1      -2.186  11.560  18.978  0.00  0.00    +0.000 NA
ATOM     22  O   UNL     1      -3.545  11.758  18.925  0.00  0.00    +0.000 OA
ATOM     23  H   UNL     1      -0.509   9.441  17.097  0.00  0.00    +0.000 HD
ENDBRANCH  13  19
ENDBRANCH   1  13
TORSDOF 2
ENDMDL
MODEL 6
REMARK VINA RESULT:      -7.2      8.325      9.189
REMARK  Name = 
REMARK  4 active torsions:
REMARK  status: ('A' for Active; 'I' for Inactive)
REMARK    1  A    between atoms: C_1  and  C_2
REMARK    2  A    between atoms: C_6  and  C_8
REMARK    3  A    between atoms: C_8  and  N_9
REMARK    4  A    between atoms: N_14  and  C_15
REMARK                            x       y       z     vdW  Elec       q    Type
REMARK                         _______ _______ _______ _____ _____    ______ ____
ROOT
ATOM      1  N   UNL     1      10.165  11.653  19.146  0.00  0.00    +0.000 NA
ATOM      2  C   UNL     1      11.511  11.827  19.733  0.00  0.00    +0.000 C 
ATOM      3  C   UNL     1      12.261  12.894  18.948  0.00  0.00    +0.000 C 
ATOM      4  C   UNL     1      11.461  14.165  18.753  0.00  0.00    +0.000 A 
ATOM      5  N   UNL     1      12.102  15.219  18.347  0.00  0.00    +0.000 NA
ATOM      6  N   UNL     1      11.374  16.358  18.101  0.00  0.00    +0.000 N 
ATOM      7  C   UNL     1      12.107  17.521  17.644  0.00  0.00    +0.000 C 
ATOM      8  C   UNL     1       9.997  16.447  18.229  0.00  0.00    +0.000 A 
ATOM      9  O   UNL     1       9.328  17.451  17.994  0.00  0.00    +0.000 OA
ATOM     10  C   UNL     1       9.313  15.226  18.693  0.00  0.00    +0.000 A 
ATOM     11  C   UNL     1       9.996  14.113  18.974  0.00  0.00    +0.000 A 
ATOM     12  C   UNL     1       9.371  12.852  19.475  0.00  0.00    +0.000 C 
ENDROOT
BRANCH   1  13
ATOM     13  C   UNL     1       9.491  10.457  19.702  0.00  0.00    +0.000 C 
BRANCH  13  19
ATOM     14  C   UNL     1       6.375   4.347  16.829  0.00  0.00    +0.000 C 
ATOM     15  C   UNL     1       6.937   5.641  17.253  0.00  0.00    +0.000 A 
ATOM     16  C   UNL     1       7.699   6.077  18.309  0.00  0.00    +0.000 A 
ATOM     17  C   UNL     1       7.889   7.468  18.073  0.00  0.00    +0.000 A 
ATOM     18  N   UNL     1       8.601   8.329  18.885  0.00  0.00    +0.000 N 
ATOM     19  C   UNL     1       8.744   9.675  18.621  0.00  0.00    +0.000 C 
ATOM     20  O   UNL     1       8.342  10.273  17.623  0.00  0.00    +0.000 OA
ATOM     21  N   UNL     1       7.266   7.824  16.944  0.00  0.00    +0.000 NA
ATOM     22  O   UNL     1       6.674   6.693  16.437  0.00  0.00    +0.000 OA
ATOM     23  H   UNL     1       8.973   7.966  19.756  0.00  0.00    +0.000 HD
ENDBRANCH  13  19
ENDBRANCH   1  13
TORSDOF 2
ENDMDL
MODEL 7
REMARK VINA RESULT:      -7.1      4.730      6.268
REMARK  Name = 
REMARK  4 active torsions:
REMARK  status: ('A' for Active; 'I' for Inactive)
REMARK    1  A    between atoms: C_1  and  C_2
REMARK    2  A    between atoms: C_6  and  C_8
REMARK    3  A    between atoms: C_8  and  N_9
REMARK    4  A    between atoms: N_14  and  C_15
REMARK                            x       y       z     vdW  Elec       q    Type
REMARK                         _______ _______ _______ _____ _____    ______ ____
ROOT
ATOM      1  N   UNL     1       6.204   6.327  17.800  0.00  0.00    +0.000 NA
ATOM      2  C   UNL     1       6.925   5.095  18.187  0.00  0.00    +0.000 C 
ATOM      3  C   UNL     1       6.082   4.321  19.191  0.00  0.00    +0.000 C 
ATOM      4  C   UNL     1       4.647   4.129  18.744  0.00  0.00    +0.000 A 
ATOM      5  N   UNL     1       3.932   3.257  19.388  0.00  0.00    +0.000 NA
ATOM      6  N   UNL     1       2.610   3.125  19.036  0.00  0.00    +0.000 N 
ATOM      7  C   UNL     1       1.828   2.151  19.769  0.00  0.00    +0.000 C 
ATOM      8  C   UNL     1       1.984   3.882  18.059  0.00  0.00    +0.000 A 
ATOM      9  O   UNL     1       0.800   3.791  17.744  0.00  0.00    +0.000 OA
ATOM     10  C   UNL     1       2.836   4.858  17.355  0.00  0.00    +0.000 A 
ATOM     11  C   UNL     1       4.132   4.987  17.650  0.00  0.00    +0.000 A 
ATOM     12  C   UNL     1       5.059   5.933  16.958  0.00  0.00    +0.000 C 
ENDROOT
BRANCH   1  13
ATOM     13  C   UNL     1       7.081   7.238  17.030  0.00  0.00    +0.000 C 
BRANCH  13  19
ATOM     14  C   UNL     1      10.244  13.555  19.351  0.00  0.00    +0.000 C 
ATOM     15  C   UNL     1       9.699  12.225  19.026  0.00  0.00    +0.000 A 
ATOM     16  C   UNL     1       8.930  11.704  18.015  0.00  0.00    +0.000 A 
ATOM     17  C   UNL     1       8.796  10.324  18.333  0.00  0.00    +0.000 A 
ATOM     18  N   UNL     1       8.095   9.394  17.589  0.00  0.00    +0.000 N 
ATOM     19  C   UNL     1       7.980   8.067  17.947  0.00  0.00    +0.000 C 
ATOM     20  O   UNL     1       8.527   7.517  18.903  0.00  0.00    +0.000 OA
ATOM     21  N   UNL     1       9.445  10.056  19.471  0.00  0.00    +0.000 NA
ATOM     22  O   UNL     1      10.004  11.235  19.902  0.00  0.00    +0.000 OA
ATOM     23  H   UNL     1       7.578   9.721  16.779  0.00  0.00    +0.000 HD
ENDBRANCH  13  19
ENDBRANCH   1  13
TORSDOF 2
ENDMDL
MODEL 8
REMARK VINA RESULT:      -7.0      3.641      8.151
REMARK  Name = 
REMARK  4 active torsions:
REMARK  status: ('A' for Active; 'I' for Inactive)
REMARK    1  A    between atoms: C_1  and  C_2
REMARK    2  A    between atoms: C_6  and  C_8
REMARK    3  A    between atoms: C_8  and  N_9
REMARK    4  A    between atoms: N_14  and  C_15
REMARK                            x       y       z     vdW  Elec       q    Type
REMARK                         _______ _______ _______ _____ _____    ______ ____
ROOT
ATOM      1  N   UNL     1       0.549   9.652  19.532  0.00  0.00    +0.000 NA
ATOM      2  C   UNL     1       0.916   9.288  20.917  0.00  0.00    +0.000 C 
ATOM      3  C   UNL     1       1.108   7.781  21.000  0.00  0.00    +0.000 C 
ATOM      4  C   UNL     1       2.015   7.234  19.916  0.00  0.00    +0.000 A 
ATOM      5  N   UNL     1       2.460   6.023  20.063  0.00  0.00    +0.000 NA
ATOM      6  N   UNL     1       3.226   5.494  19.052  0.00  0.00    +0.000 N 
ATOM      7  C   UNL     1       3.709   4.140  19.233  0.00  0.00    +0.000 C 
ATOM      8  C   UNL     1       3.531   6.157  17.875  0.00  0.00    +0.000 A 
ATOM      9  O   UNL     1       4.197   5.693  16.953  0.00  0.00    +0.000 OA
ATOM     10  C   UNL     1       3.004   7.529  17.753  0.00  0.00    +0.000 A 
ATOM     11  C   UNL     1       2.285   8.085  18.732  0.00  0.00    +0.000 A 
ATOM     12  C   UNL     1       1.746   9.477  18.688  0.00  0.00    +0.000 C 
ENDROOT
BRANCH   1  13
ATOM     13  C   UNL     1       0.101  11.061  19.452  0.00  0.00    +0.000 C 
BRANCH  13  19
ATOM     14  C   UNL     1      -4.402   9.826  13.665  0.00  0.00    +0.000 C 
ATOM     15  C   UNL     1      -3.644  10.158  14.884  0.00  0.00    +0.000 A 
ATOM     16  C   UNL     1      -2.352   9.978  15.311  0.00  0.00    +0.000 A 
ATOM     17  C   UNL     1      -2.310  10.569  16.605  0.00  0.00    +0.000 A 
ATOM     18  N   UNL     1      -1.199  10.624  17.425  0.00  0.00    +0.000 N 
ATOM     19  C   UNL     1      -1.212  11.195  18.680  0.00  0.00    +0.000 C 
ATOM     20  O   UNL     1      -2.155  11.787  19.207  0.00  0.00    +0.000 OA
ATOM     21  N   UNL     1      -3.513  11.060  16.918  0.00  0.00    +0.000 NA
ATOM     22  O   UNL     1      -4.342  10.804  15.851  0.00  0.00    +0.000 OA
ATOM     23  H   UNL     1      -0.354  10.155  17.118  0.00  0.00    +0.000 HD
ENDBRANCH  13  19
ENDBRANCH   1  13
TORSDOF 2
ENDMDL
MODEL 9
REMARK VINA RESULT:      -7.0      3.757      9.258
REMARK  Name = 
REMARK  4 active torsions:
REMARK  status: ('A' for Active; 'I' for Inactive)
REMARK    1  A    between atoms: C_1  and  C_2
REMARK    2  A    between atoms: C_6  and  C_8
REMARK    3  A    between atoms: C_8  and  N_9
REMARK    4  A    between atoms: N_14  and  C_15
REMARK                            x       y       z     vdW  Elec       q    Type
REMARK                         _______ _______ _______ _____ _____    ______ ____
ROOT
ATOM      1  N   UNL     1       0.622   9.410  19.060  0.00  0.00    +0.000 NA
ATOM      2  C   UNL     1       1.038   9.213  20.466  0.00  0.00    +0.000 C 
ATOM      3  C   UNL     1       1.395   7.748  20.677  0.00  0.00    +0.000 C 
ATOM      4  C   UNL     1       2.347   7.208  19.629  0.00  0.00    +0.000 A 
ATOM      5  N   UNL     1       2.923   6.070  19.875  0.00  0.00    +0.000 NA
ATOM      6  N   UNL     1       3.735   5.539  18.901  0.00  0.00    +0.000 N 
ATOM      7  C   UNL     1       4.364   4.267  19.191  0.00  0.00    +0.000 C 
ATOM      8  C   UNL     1       3.955   6.124  17.665  0.00  0.00    +0.000 A 
ATOM      9  O   UNL     1       4.661   5.654  16.776  0.00  0.00    +0.000 OA
ATOM     10  C   UNL     1       3.281   7.414  17.432  0.00  0.00    +0.000 A 
ATOM     11  C   UNL     1       2.513   7.974  18.371  0.00  0.00    +0.000 A 
ATOM     12  C   UNL     1       1.825   9.291  18.215  0.00  0.00    +0.000 C 
ENDROOT
BRANCH   1  13
ATOM     13  C   UNL     1       0.022  10.749  18.865  0.00  0.00    +0.000 C 
BRANCH  13  19
ATOM     14  C   UNL     1      -7.172  12.457  18.074  0.00  0.00    +0.000 C 
ATOM     15  C   UNL     1      -5.764  12.021  18.085  0.00  0.00    +0.000 A 
ATOM     16  C   UNL     1      -4.697  12.186  18.932  0.00  0.00    +0.000 A 
ATOM     17  C   UNL     1      -3.631  11.470  18.319  0.00  0.00    +0.000 A 
ATOM     18  N   UNL     1      -2.348  11.358  18.821  0.00  0.00    +0.000 N 
ATOM     19  C   UNL     1      -1.343  10.664  18.181  0.00  0.00    +0.000 C 
ATOM     20  O   UNL     1      -1.452  10.002  17.148  0.00  0.00    +0.000 OA
ATOM     21  N   UNL     1      -4.052  10.923  17.174  0.00  0.00    +0.000 NA
ATOM     22  O   UNL     1      -5.375  11.266  17.028  0.00  0.00    +0.000 OA
ATOM     23  H   UNL     1      -2.117  11.874  19.663  0.00  0.00    +0.000 HD
ENDBRANCH  13  19
ENDBRANCH   1  13
TORSDOF 2
ENDMDL
