MODEL 1
REMARK VINA RESULT:      -6.5      0.000      0.000
REMARK  Name = 
REMARK  10 active torsions:
REMARK  status: ('A' for Active; 'I' for Inactive)
REMARK    1  A    between atoms: C_1  and  O_2
REMARK    2  A    between atoms: O_2  and  C_3
REMARK    3  A    between atoms: C_21  and  C_23
REMARK    4  A    between atoms: C_23  and  C_25
REMARK    5  A    between atoms: C_27  and  O_28
REMARK    6  A    between atoms: O_28  and  C_29
REMARK    7  A    between atoms: C_30  and  O_31
REMARK    8  A    between atoms: O_31  and  C_32
REMARK    9  A    between atoms: C_33  and  O_34
REMARK   10  A    between atoms: O_34  and  C_35
REMARK                            x       y       z     vdW  Elec       q    Type
REMARK                         _______ _______ _______ _____ _____    ______ ____
ROOT
ATOM      1  C   UNL     1       9.412  10.489  18.909  0.00  0.00    +0.000 A 
ATOM      2  C   UNL     1       9.891  11.119  17.767  0.00  0.00    +0.000 A 
ATOM      3  C   UNL     1      10.247  12.493  17.801  0.00  0.00    +0.000 A 
ATOM      4  C   UNL     1      10.125  13.258  18.981  0.00  0.00    +0.000 A 
ATOM      5  C   UNL     1       9.651  12.588  20.121  0.00  0.00    +0.000 A 
ATOM      6  C   UNL     1       9.277  11.235  20.070  0.00  0.00    +0.000 A 
ATOM      7  C   UNL     1       9.466  13.288  21.427  0.00  0.00    +0.000 C 
ATOM      8  C   UNL     1      10.431  14.434  21.609  0.00  0.00    +0.000 C 
ATOM      9  N   UNL     1      10.567  15.277  20.440  0.00  0.00    +0.000 N 
ATOM     10  C   UNL     1      10.381  16.617  20.713  0.00  0.00    +0.000 C 
ATOM     11  O   UNL     1      10.977  17.195  21.620  0.00  0.00    +0.000 OA
ATOM     12  C   UNL     1       9.228  17.266  19.936  0.00  0.00    +0.000 C 
ATOM     13  C   UNL     1       9.820  18.490  19.234  0.00  0.00    +0.000 C 
ATOM     14  C   UNL     1       9.838  18.279  17.726  0.00  0.00    +0.000 C 
ATOM     15  C   UNL     1      10.382  16.870  17.366  0.00  0.00    +0.000 C 
ATOM     16  C   UNL     1       9.653  15.697  18.112  0.00  0.00    +0.000 C 
ATOM     17  C   UNL     1      10.533  14.748  19.035  0.00  0.00    +0.000 C 
ATOM     18  N   UNL     1       8.640  16.318  18.957  0.00  0.00    +0.000 N 
ATOM     19  C   UNL     1       7.315  16.240  18.569  0.00  0.00    +0.000 C 
ATOM     20  O   UNL     1       6.920  15.650  17.569  0.00  0.00    +0.000 OA
ENDROOT
BRANCH   1  22
ATOM     21  C   UNL     1       8.142   8.664  18.053  0.00  0.00    +0.000 C 
ATOM     22  O   UNL     1       9.008   9.191  19.036  0.00  0.00    +0.000 OA
ENDBRANCH   1  22
BRANCH  19  23
ATOM     23  C   UNL     1       6.278  16.856  19.484  0.00  0.00    +0.000 C 
ATOM     24  O   UNL     1       5.840  17.970  19.223  0.00  0.00    +0.000 OA
BRANCH  23  25
ATOM     25  C   UNL     1       5.865  16.103  20.699  0.00  0.00    +0.000 A 
ATOM     26  C   UNL     1       4.786  15.217  20.677  0.00  0.00    +0.000 A 
ATOM     27  C   UNL     1       4.478  14.457  21.806  0.00  0.00    +0.000 A 
ATOM     28  C   UNL     1       5.303  14.536  22.948  0.00  0.00    +0.000 A 
ATOM     29  C   UNL     1       6.342  15.490  23.002  0.00  0.00    +0.000 A 
ATOM     30  C   UNL     1       6.621  16.256  21.867  0.00  0.00    +0.000 A 
BRANCH  27  31
ATOM     31  O   UNL     1       3.421  13.578  21.837  0.00  0.00    +0.000 OA
ATOM     32  C   UNL     1       2.684  13.452  20.618  0.00  0.00    +0.000 C 
ENDBRANCH  27  31
BRANCH  28  33
ATOM     33  O   UNL     1       4.984  13.679  23.979  0.00  0.00    +0.000 OA
ATOM     34  C   UNL     1       5.843  12.560  24.154  0.00  0.00    +0.000 C 
ENDBRANCH  28  33
BRANCH  29  35
ATOM     35  O   UNL     1       7.046  15.589  24.171  0.00  0.00    +0.000 OA
ATOM     36  C   UNL     1       7.240  16.874  24.746  0.00  0.00    +0.000 C 
ENDBRANCH  29  35
ENDBRANCH  23  25
ENDBRANCH  19  23
TORSDOF 6
ENDMDL
MODEL 2
REMARK VINA RESULT:      -6.4      1.184      2.637
REMARK  Name = 
REMARK  10 active torsions:
REMARK  status: ('A' for Active; 'I' for Inactive)
REMARK    1  A    between atoms: C_1  and  O_2
REMARK    2  A    between atoms: O_2  and  C_3
REMARK    3  A    between atoms: C_21  and  C_23
REMARK    4  A    between atoms: C_23  and  C_25
REMARK    5  A    between atoms: C_27  and  O_28
REMARK    6  A    between atoms: O_28  and  C_29
REMARK    7  A    between atoms: C_30  and  O_31
REMARK    8  A    between atoms: O_31  and  C_32
REMARK    9  A    between atoms: C_33  and  O_34
REMARK   10  A    between atoms: O_34  and  C_35
REMARK                            x       y       z     vdW  Elec       q    Type
REMARK                         _______ _______ _______ _____ _____    ______ ____
ROOT
ATOM      1  C   UNL     1       9.332  10.393  18.938  0.00  0.00    +0.000 A 
ATOM      2  C   UNL     1       9.940  11.026  17.860  0.00  0.00    +0.000 A 
ATOM      3  C   UNL     1      10.287  12.400  17.938  0.00  0.00    +0.000 A 
ATOM      4  C   UNL     1      10.027  13.163  19.096  0.00  0.00    +0.000 A 
ATOM      5  C   UNL     1       9.425  12.490  20.172  0.00  0.00    +0.000 A 
ATOM      6  C   UNL     1       9.062  11.137  20.076  0.00  0.00    +0.000 A 
ATOM      7  C   UNL     1       9.088  13.187  21.450  0.00  0.00    +0.000 C 
ATOM      8  C   UNL     1      10.024  14.335  21.745  0.00  0.00    +0.000 C 
ATOM      9  N   UNL     1      10.293  15.180  20.600  0.00  0.00    +0.000 N 
ATOM     10  C   UNL     1      10.075  16.519  20.852  0.00  0.00    +0.000 C 
ATOM     11  O   UNL     1      10.560  17.096  21.824  0.00  0.00    +0.000 OA
ATOM     12  C   UNL     1       9.020  17.168  19.947  0.00  0.00    +0.000 C 
ATOM     13  C   UNL     1       9.687  18.394  19.321  0.00  0.00    +0.000 C 
ATOM     14  C   UNL     1       9.882  18.186  17.825  0.00  0.00    +0.000 C 
ATOM     15  C   UNL     1      10.465  16.778  17.529  0.00  0.00    +0.000 C 
ATOM     16  C   UNL     1       9.656  15.604  18.182  0.00  0.00    +0.000 C 
ATOM     17  C   UNL     1      10.424  14.654  19.200  0.00  0.00    +0.000 C 
ATOM     18  N   UNL     1       8.551  16.222  18.905  0.00  0.00    +0.000 N 
ATOM     19  C   UNL     1       7.280  16.142  18.365  0.00  0.00    +0.000 C 
ATOM     20  O   UNL     1       7.005  15.553  17.325  0.00  0.00    +0.000 OA
ENDROOT
BRANCH   1  22
ATOM     21  C   UNL     1       8.128   8.584  17.960  0.00  0.00    +0.000 C 
ATOM     22  O   UNL     1       8.918   9.095  19.014  0.00  0.00    +0.000 OA
ENDBRANCH   1  22
BRANCH  19  23
ATOM     23  C   UNL     1       6.143  16.755  19.155  0.00  0.00    +0.000 C 
ATOM     24  O   UNL     1       6.155  17.960  19.377  0.00  0.00    +0.000 OA
BRANCH  23  25
ATOM     25  C   UNL     1       5.076  15.860  19.676  0.00  0.00    +0.000 A 
ATOM     26  C   UNL     1       5.281  15.057  20.800  0.00  0.00    +0.000 A 
ATOM     27  C   UNL     1       4.233  14.296  21.321  0.00  0.00    +0.000 A 
ATOM     28  C   UNL     1       2.948  14.393  20.748  0.00  0.00    +0.000 A 
ATOM     29  C   UNL     1       2.757  15.138  19.564  0.00  0.00    +0.000 A 
ATOM     30  C   UNL     1       3.825  15.877  19.047  0.00  0.00    +0.000 A 
BRANCH  27  31
ATOM     31  O   UNL     1       4.388  13.484  22.420  0.00  0.00    +0.000 OA
ATOM     32  C   UNL     1       5.610  13.647  23.144  0.00  0.00    +0.000 C 
ENDBRANCH  27  31
BRANCH  28  33
ATOM     33  O   UNL     1       1.952  13.685  21.386  0.00  0.00    +0.000 OA
ATOM     34  C   UNL     1       1.519  12.493  20.744  0.00  0.00    +0.000 C 
ENDBRANCH  28  33
BRANCH  29  35
ATOM     35  O   UNL     1       1.512  15.116  19.000  0.00  0.00    +0.000 OA
ATOM     36  C   UNL     1       0.707  16.285  19.075  0.00  0.00    +0.000 C 
ENDBRANCH  29  35
ENDBRANCH  23  25
ENDBRANCH  19  23
TORSDOF 6
ENDMDL
MODEL 3
REMARK VINA RESULT:      -6.3      6.170     10.393
REMARK  Name = 
REMARK  10 active torsions:
REMARK  status: ('A' for Active; 'I' for Inactive)
REMARK    1  A    between atoms: C_1  and  O_2
REMARK    2  A    between atoms: O_2  and  C_3
REMARK    3  A    between atoms: C_21  and  C_23
REMARK    4  A    between atoms: C_23  and  C_25
REMARK    5  A    between atoms: C_27  and  O_28
REMARK    6  A    between atoms: O_28  and  C_29
REMARK    7  A    between atoms: C_30  and  O_31
REMARK    8  A    between atoms: O_31  and  C_32
REMARK    9  A    between atoms: C_33  and  O_34
REMARK   10  A    between atoms: O_34  and  C_35
REMARK                            x       y       z     vdW  Elec       q    Type
REMARK                         _______ _______ _______ _____ _____    ______ ____
ROOT
ATOM      1  C   UNL     1       0.645   9.500  21.813  0.00  0.00    +0.000 A 
ATOM      2  C   UNL     1       0.089   9.697  23.071  0.00  0.00    +0.000 A 
ATOM      3  C   UNL     1      -0.966  10.629  23.251  0.00  0.00    +0.000 A 
ATOM      4  C   UNL     1      -1.478  11.382  22.173  0.00  0.00    +0.000 A 
ATOM      5  C   UNL     1      -0.904  11.148  20.912  0.00  0.00    +0.000 A 
ATOM      6  C   UNL     1       0.157  10.243  20.750  0.00  0.00    +0.000 A 
ATOM      7  C   UNL     1      -1.349  11.888  19.693  0.00  0.00    +0.000 C 
ATOM      8  C   UNL     1      -2.801  12.296  19.764  0.00  0.00    +0.000 C 
ATOM      9  N   UNL     1      -3.189  12.861  21.039  0.00  0.00    +0.000 N 
ATOM     10  C   UNL     1      -3.821  14.083  20.920  0.00  0.00    +0.000 C 
ATOM     11  O   UNL     1      -4.773  14.263  20.164  0.00  0.00    +0.000 OA
ATOM     12  C   UNL     1      -3.111  15.234  21.645  0.00  0.00    +0.000 C 
ATOM     13  C   UNL     1      -4.158  15.877  22.557  0.00  0.00    +0.000 C 
ATOM     14  C   UNL     1      -3.814  15.625  24.019  0.00  0.00    +0.000 C 
ATOM     15  C   UNL     1      -3.423  14.140  24.253  0.00  0.00    +0.000 C 
ATOM     16  C   UNL     1      -2.299  13.620  23.290  0.00  0.00    +0.000 C 
ATOM     17  C   UNL     1      -2.643  12.382  22.353  0.00  0.00    +0.000 C 
ATOM     18  N   UNL     1      -1.949  14.741  22.426  0.00  0.00    +0.000 N 
ATOM     19  C   UNL     1      -0.759  15.408  22.656  0.00  0.00    +0.000 C 
ATOM     20  O   UNL     1       0.050  15.099  23.524  0.00  0.00    +0.000 OA
ENDROOT
BRANCH   1  22
ATOM     21  C   UNL     1       1.378   7.531  20.689  0.00  0.00    +0.000 C 
ATOM     22  O   UNL     1       1.672   8.664  21.479  0.00  0.00    +0.000 OA
ENDBRANCH   1  22
BRANCH  19  23
ATOM     23  C   UNL     1      -0.398  16.542  21.720  0.00  0.00    +0.000 C 
ATOM     24  O   UNL     1      -0.886  17.649  21.912  0.00  0.00    +0.000 OA
BRANCH  23  25
ATOM     25  C   UNL     1       0.499  16.256  20.569  0.00  0.00    +0.000 A 
ATOM     26  C   UNL     1       0.842  17.247  19.647  0.00  0.00    +0.000 A 
ATOM     27  C   UNL     1       1.757  16.973  18.630  0.00  0.00    +0.000 A 
ATOM     28  C   UNL     1       2.387  15.713  18.577  0.00  0.00    +0.000 A 
ATOM     29  C   UNL     1       1.982  14.685  19.456  0.00  0.00    +0.000 A 
ATOM     30  C   UNL     1       1.048  14.974  20.455  0.00  0.00    +0.000 A 
BRANCH  27  31
ATOM     31  O   UNL     1       2.120  17.913  17.693  0.00  0.00    +0.000 OA
ATOM     32  C   UNL     1       1.092  18.306  16.780  0.00  0.00    +0.000 C 
ENDBRANCH  27  31
BRANCH  28  33
ATOM     33  O   UNL     1       3.349  15.563  17.601  0.00  0.00    +0.000 OA
ATOM     34  C   UNL     1       4.700  15.658  18.032  0.00  0.00    +0.000 C 
ENDBRANCH  28  33
BRANCH  29  35
ATOM     35  O   UNL     1       2.558  13.455  19.294  0.00  0.00    +0.000 OA
ATOM     36  C   UNL     1       1.978  12.543  18.372  0.00  0.00    +0.000 C 
ENDBRANCH  29  35
ENDBRANCH  23  25
ENDBRANCH  19  23
TORSDOF 6
ENDMDL
MODEL 4
REMARK VINA RESULT:      -6.3      7.891     11.621
REMARK  Name = 
REMARK  10 active torsions:
REMARK  status: ('A' for Active; 'I' for Inactive)
REMARK    1  A    between atoms: C_1  and  O_2
REMARK    2  A    between atoms: O_2  and  C_3
REMARK    3  A    between atoms: C_21  and  C_23
REMARK    4  A    between atoms: C_23  and  C_25
REMARK    5  A    between atoms: C_27  and  O_28
REMARK    6  A    between atoms: O_28  and  C_29
REMARK    7  A    between atoms: C_30  and  O_31
REMARK    8  A    between atoms: O_31  and  C_32
REMARK    9  A    between atoms: C_33  and  O_34
REMARK   10  A    between atoms: O_34  and  C_35
REMARK                            x       y       z     vdW  Elec       q    Type
REMARK                         _______ _______ _______ _____ _____    ______ ____
ROOT
ATOM      1  C   UNL     1      -1.595  14.633  23.860  0.00  0.00    +0.000 A 
ATOM      2  C   UNL     1      -0.372  14.953  23.282  0.00  0.00    +0.000 A 
ATOM      3  C   UNL     1       0.011  14.372  22.045  0.00  0.00    +0.000 A 
ATOM      4  C   UNL     1      -0.825  13.458  21.368  0.00  0.00    +0.000 A 
ATOM      5  C   UNL     1      -2.060  13.167  21.972  0.00  0.00    +0.000 A 
ATOM      6  C   UNL     1      -2.418  13.727  23.209  0.00  0.00    +0.000 A 
ATOM      7  C   UNL     1      -3.029  12.207  21.363  0.00  0.00    +0.000 C 
ATOM      8  C   UNL     1      -2.931  12.167  19.857  0.00  0.00    +0.000 C 
ATOM      9  N   UNL     1      -1.572  12.114  19.360  0.00  0.00    +0.000 N 
ATOM     10  C   UNL     1      -1.362  11.082  18.467  0.00  0.00    +0.000 C 
ATOM     11  O   UNL     1      -2.088  10.892  17.494  0.00  0.00    +0.000 OA
ATOM     12  C   UNL     1      -0.284  10.080  18.903  0.00  0.00    +0.000 C 
ATOM     13  C   UNL     1       0.710   9.988  17.744  0.00  0.00    +0.000 C 
ATOM     14  C   UNL     1       2.049  10.591  18.146  0.00  0.00    +0.000 C 
ATOM     15  C   UNL     1       1.855  11.954  18.864  0.00  0.00    +0.000 C 
ATOM     16  C   UNL     1       0.853  11.900  20.070  0.00  0.00    +0.000 C 
ATOM     17  C   UNL     1      -0.429  12.839  20.008  0.00  0.00    +0.000 C 
ATOM     18  N   UNL     1       0.385  10.521  20.151  0.00  0.00    +0.000 N 
ATOM     19  C   UNL     1       0.877   9.714  21.161  0.00  0.00    +0.000 C 
ATOM     20  O   UNL     1       1.663  10.088  22.026  0.00  0.00    +0.000 OA
ENDROOT
BRANCH   1  22
ATOM     21  C   UNL     1      -2.127  16.478  25.271  0.00  0.00    +0.000 C 
ATOM     22  O   UNL     1      -2.097  15.083  25.046  0.00  0.00    +0.000 OA
ENDBRANCH   1  22
BRANCH  19  23
ATOM     23  C   UNL     1       0.345   8.299  21.250  0.00  0.00    +0.000 C 
ATOM     24  O   UNL     1      -0.689   8.091  21.873  0.00  0.00    +0.000 OA
BRANCH  23  25
ATOM     25  C   UNL     1       1.128   7.204  20.619  0.00  0.00    +0.000 A 
ATOM     26  C   UNL     1       2.242   7.470  19.819  0.00  0.00    +0.000 A 
ATOM     27  C   UNL     1       3.010   6.421  19.314  0.00  0.00    +0.000 A 
ATOM     28  C   UNL     1       2.699   5.092  19.670  0.00  0.00    +0.000 A 
ATOM     29  C   UNL     1       1.528   4.816  20.408  0.00  0.00    +0.000 A 
ATOM     30  C   UNL     1       0.760   5.881  20.888  0.00  0.00    +0.000 A 
BRANCH  27  31
ATOM     31  O   UNL     1       4.110   6.631  18.515  0.00  0.00    +0.000 OA
ATOM     32  C   UNL     1       3.871   7.365  17.312  0.00  0.00    +0.000 C 
ENDBRANCH  27  31
BRANCH  28  33
ATOM     33  O   UNL     1       3.568   4.127  19.208  0.00  0.00    +0.000 OA
ATOM     34  C   UNL     1       3.217   3.501  17.982  0.00  0.00    +0.000 C 
ENDBRANCH  28  33
BRANCH  29  35
ATOM     35  O   UNL     1       1.224   3.503  20.641  0.00  0.00    +0.000 OA
ATOM     36  C   UNL     1       1.800   2.857  21.769  0.00  0.00    +0.000 C 
ENDBRANCH  29  35
ENDBRANCH  23  25
ENDBRANCH  19  23
TORSDOF 6
ENDMDL
MODEL 5
REMARK VINA RESULT:      -6.2      6.562     11.351
REMARK  Name = 
REMARK  10 active torsions:
REMARK  status: ('A' for Active; 'I' for Inactive)
REMARK    1  A    between atoms: C_1  and  O_2
REMARK    2  A    between atoms: O_2  and  C_3
REMARK    3  A    between atoms: C_21  and  C_23
REMARK    4  A    between atoms: C_23  and  C_25
REMARK    5  A    between atoms: C_27  and  O_28
REMARK    6  A    between atoms: O_28  and  C_29
REMARK    7  A    between atoms: C_30  and  O_31
REMARK    8  A    between atoms: O_31  and  C_32
REMARK    9  A    between atoms: C_33  and  O_34
REMARK   10  A    between atoms: O_34  and  C_35
REMARK                            x       y       z     vdW  Elec       q    Type
REMARK                         _______ _______ _______ _____ _____    ______ ____
ROOT
ATOM      1  C   UNL     1      -3.278  16.151  24.291  0.00  0.00    +0.000 A 
ATOM      2  C   UNL     1      -2.007  16.061  24.844  0.00  0.00    +0.000 A 
ATOM      3  C   UNL     1      -0.861  16.012  24.007  0.00  0.00    +0.000 A 
ATOM      4  C   UNL     1      -0.973  16.048  22.601  0.00  0.00    +0.000 A 
ATOM      5  C   UNL     1      -2.271  16.154  22.074  0.00  0.00    +0.000 A 
ATOM      6  C   UNL     1      -3.398  16.176  22.910  0.00  0.00    +0.000 A 
ATOM      7  C   UNL     1      -2.524  16.191  20.602  0.00  0.00    +0.000 C 
ATOM      8  C   UNL     1      -1.377  16.805  19.835  0.00  0.00    +0.000 C 
ATOM      9  N   UNL     1      -0.074  16.334  20.254  0.00  0.00    +0.000 N 
ATOM     10  C   UNL     1       0.699  15.874  19.206  0.00  0.00    +0.000 C 
ATOM     11  O   UNL     1       0.886  16.533  18.185  0.00  0.00    +0.000 OA
ATOM     12  C   UNL     1       1.125  14.406  19.332  0.00  0.00    +0.000 C 
ATOM     13  C   UNL     1       2.648  14.387  19.185  0.00  0.00    +0.000 C 
ATOM     14  C   UNL     1       3.303  14.000  20.504  0.00  0.00    +0.000 C 
ATOM     15  C   UNL     1       2.671  14.778  21.691  0.00  0.00    +0.000 C 
ATOM     16  C   UNL     1       1.107  14.671  21.761  0.00  0.00    +0.000 C 
ATOM     17  C   UNL     1       0.269  16.020  21.681  0.00  0.00    +0.000 C 
ATOM     18  N   UNL     1       0.704  13.835  20.636  0.00  0.00    +0.000 N 
ATOM     19  C   UNL     1       0.314  12.532  20.886  0.00  0.00    +0.000 C 
ATOM     20  O   UNL     1       0.248  12.031  22.003  0.00  0.00    +0.000 OA
ENDROOT
BRANCH   1  22
ATOM     21  C   UNL     1      -5.082  17.442  25.161  0.00  0.00    +0.000 C 
ATOM     22  O   UNL     1      -4.472  16.185  24.951  0.00  0.00    +0.000 OA
ENDBRANCH   1  22
BRANCH  19  23
ATOM     23  C   UNL     1      -0.141  11.698  19.707  0.00  0.00    +0.000 C 
ATOM     24  O   UNL     1       0.694  11.067  19.069  0.00  0.00    +0.000 OA
BRANCH  23  25
ATOM     25  C   UNL     1      -1.580  11.715  19.336  0.00  0.00    +0.000 A 
ATOM     26  C   UNL     1      -2.524  12.400  20.104  0.00  0.00    +0.000 A 
ATOM     27  C   UNL     1      -3.852  12.475  19.683  0.00  0.00    +0.000 A 
ATOM     28  C   UNL     1      -4.225  11.915  18.443  0.00  0.00    +0.000 A 
ATOM     29  C   UNL     1      -3.294  11.152  17.706  0.00  0.00    +0.000 A 
ATOM     30  C   UNL     1      -1.972  11.072  18.156  0.00  0.00    +0.000 A 
BRANCH  27  31
ATOM     31  O   UNL     1      -4.820  13.130  20.409  0.00  0.00    +0.000 OA
ATOM     32  C   UNL     1      -4.838  12.851  21.811  0.00  0.00    +0.000 C 
ENDBRANCH  27  31
BRANCH  28  33
ATOM     33  O   UNL     1      -5.532  12.121  18.060  0.00  0.00    +0.000 OA
ATOM     34  C   UNL     1      -6.445  11.069  18.346  0.00  0.00    +0.000 C 
ENDBRANCH  28  33
BRANCH  29  35
ATOM     35  O   UNL     1      -3.738  10.552  16.560  0.00  0.00    +0.000 OA
ATOM     36  C   UNL     1      -2.958  10.673  15.378  0.00  0.00    +0.000 C 
ENDBRANCH  29  35
ENDBRANCH  23  25
ENDBRANCH  19  23
TORSDOF 6
ENDMDL
MODEL 6
REMARK VINA RESULT:      -6.1      6.551     11.221
REMARK  Name = 
REMARK  10 active torsions:
REMARK  status: ('A' for Active; 'I' for Inactive)
REMARK    1  A    between atoms: C_1  and  O_2
REMARK    2  A    between atoms: O_2  and  C_3
REMARK    3  A    between atoms: C_21  and  C_23
REMARK    4  A    between atoms: C_23  and  C_25
REMARK    5  A    between atoms: C_27  and  O_28
REMARK    6  A    between atoms: O_28  and  C_29
REMARK    7  A    between atoms: C_30  and  O_31
REMARK    8  A    between atoms: O_31  and  C_32
REMARK    9  A    between atoms: C_33  and  O_34
REMARK   10  A    between atoms: O_34  and  C_35
REMARK                            x       y       z     vdW  Elec       q    Type
REMARK                         _______ _______ _______ _____ _____    ______ ____
ROOT
ATOM      1  C   UNL     1      -3.257  15.994  24.274  0.00  0.00    +0.000 A 
ATOM      2  C   UNL     1      -1.988  15.851  24.823  0.00  0.00    +0.000 A 
ATOM      3  C   UNL     1      -0.841  15.843  23.987  0.00  0.00    +0.000 A 
ATOM      4  C   UNL     1      -0.948  15.975  22.585  0.00  0.00    +0.000 A 
ATOM      5  C   UNL     1      -2.243  16.132  22.064  0.00  0.00    +0.000 A 
ATOM      6  C   UNL     1      -3.373  16.112  22.898  0.00  0.00    +0.000 A 
ATOM      7  C   UNL     1      -2.492  16.270  20.598  0.00  0.00    +0.000 C 
ATOM      8  C   UNL     1      -1.336  16.919  19.876  0.00  0.00    +0.000 C 
ATOM      9  N   UNL     1      -0.039  16.406  20.264  0.00  0.00    +0.000 N 
ATOM     10  C   UNL     1       0.730  16.007  19.190  0.00  0.00    +0.000 C 
ATOM     11  O   UNL     1       0.929  16.730  18.215  0.00  0.00    +0.000 OA
ATOM     12  C   UNL     1       1.138  14.528  19.219  0.00  0.00    +0.000 C 
ATOM     13  C   UNL     1       2.661  14.501  19.074  0.00  0.00    +0.000 C 
ATOM     14  C   UNL     1       3.307  14.019  20.365  0.00  0.00    +0.000 C 
ATOM     15  C   UNL     1       2.682  14.724  21.600  0.00  0.00    +0.000 C 
ATOM     16  C   UNL     1       1.117  14.631  21.659  0.00  0.00    +0.000 C 
ATOM     17  C   UNL     1       0.296  15.993  21.668  0.00  0.00    +0.000 C 
ATOM     18  N   UNL     1       0.707  13.877  20.480  0.00  0.00    +0.000 N 
ATOM     19  C   UNL     1       0.300  12.566  20.643  0.00  0.00    +0.000 C 
ATOM     20  O   UNL     1       0.225  11.992  21.724  0.00  0.00    +0.000 OA
ENDROOT
BRANCH   1  22
ATOM     21  C   UNL     1      -5.625  16.231  24.181  0.00  0.00    +0.000 C 
ATOM     22  O   UNL     1      -4.452  15.999  24.933  0.00  0.00    +0.000 OA
ENDBRANCH   1  22
BRANCH  19  23
ATOM     23  C   UNL     1      -0.162  11.817  19.410  0.00  0.00    +0.000 C 
ATOM     24  O   UNL     1       0.663  11.202  18.745  0.00  0.00    +0.000 OA
BRANCH  23  25
ATOM     25  C   UNL     1      -1.595  11.899  19.023  0.00  0.00    +0.000 A 
ATOM     26  C   UNL     1      -2.036  11.489  17.762  0.00  0.00    +0.000 A 
ATOM     27  C   UNL     1      -3.397  11.492  17.459  0.00  0.00    +0.000 A 
ATOM     28  C   UNL     1      -4.334  11.845  18.453  0.00  0.00    +0.000 A 
ATOM     29  C   UNL     1      -3.888  12.337  19.698  0.00  0.00    +0.000 A 
ATOM     30  C   UNL     1      -2.518  12.345  19.975  0.00  0.00    +0.000 A 
BRANCH  27  31
ATOM     31  O   UNL     1      -3.879  11.106  16.229  0.00  0.00    +0.000 OA
ATOM     32  C   UNL     1      -2.906  10.595  15.315  0.00  0.00    +0.000 C 
ENDBRANCH  27  31
BRANCH  28  33
ATOM     33  O   UNL     1      -5.660  11.724  18.098  0.00  0.00    +0.000 OA
ATOM     34  C   UNL     1      -6.338  10.572  18.582  0.00  0.00    +0.000 C 
ENDBRANCH  28  33
BRANCH  29  35
ATOM     35  O   UNL     1      -4.840  12.756  20.587  0.00  0.00    +0.000 OA
ATOM     36  C   UNL     1      -5.324  14.089  20.494  0.00  0.00    +0.000 C 
ENDBRANCH  29  35
ENDBRANCH  23  25
ENDBRANCH  19  23
TORSDOF 6
ENDMDL
MODEL 7
REMARK VINA RESULT:      -6.1      1.123      1.816
REMARK  Name = 
REMARK  10 active torsions:
REMARK  status: ('A' for Active; 'I' for Inactive)
REMARK    1  A    between atoms: C_1  and  O_2
REMARK    2  A    between atoms: O_2  and  C_3
REMARK    3  A    between atoms: C_21  and  C_23
REMARK    4  A    between atoms: C_23  and  C_25
REMARK    5  A    between atoms: C_27  and  O_28
REMARK    6  A    between atoms: O_28  and  C_29
REMARK    7  A    between atoms: C_30  and  O_31
REMARK    8  A    between atoms: O_31  and  C_32
REMARK    9  A    between atoms: C_33  and  O_34
REMARK   10  A    between atoms: O_34  and  C_35
REMARK                            x       y       z     vdW  Elec       q    Type
REMARK                         _______ _______ _______ _____ _____    ______ ____
ROOT
ATOM      1  C   UNL     1       9.348  10.341  18.952  0.00  0.00    +0.000 A 
ATOM      2  C   UNL     1       9.956  10.930  17.850  0.00  0.00    +0.000 A 
ATOM      3  C   UNL     1      10.369  12.287  17.899  0.00  0.00    +0.000 A 
ATOM      4  C   UNL     1      10.174  13.077  19.052  0.00  0.00    +0.000 A 
ATOM      5  C   UNL     1       9.570  12.448  20.153  0.00  0.00    +0.000 A 
ATOM      6  C   UNL     1       9.142  11.112  20.086  0.00  0.00    +0.000 A 
ATOM      7  C   UNL     1       9.298  13.177  21.428  0.00  0.00    +0.000 C 
ATOM      8  C   UNL     1      10.294  14.284  21.682  0.00  0.00    +0.000 C 
ATOM      9  N   UNL     1      10.572  15.100  20.519  0.00  0.00    +0.000 N 
ATOM     10  C   UNL     1      10.422  16.451  20.757  0.00  0.00    +0.000 C 
ATOM     11  O   UNL     1      10.958  17.018  21.707  0.00  0.00    +0.000 OA
ATOM     12  C   UNL     1       9.374  17.136  19.869  0.00  0.00    +0.000 C 
ATOM     13  C   UNL     1      10.081  18.321  19.208  0.00  0.00    +0.000 C 
ATOM     14  C   UNL     1      10.226  18.084  17.711  0.00  0.00    +0.000 C 
ATOM     15  C   UNL     1      10.737  16.646  17.421  0.00  0.00    +0.000 C 
ATOM     16  C   UNL     1       9.892  15.520  18.112  0.00  0.00    +0.000 C 
ATOM     17  C   UNL     1      10.641  14.549  19.124  0.00  0.00    +0.000 C 
ATOM     18  N   UNL     1       8.835  16.198  18.853  0.00  0.00    +0.000 N 
ATOM     19  C   UNL     1       7.549  16.170  18.347  0.00  0.00    +0.000 C 
ATOM     20  O   UNL     1       7.220  15.581  17.323  0.00  0.00    +0.000 OA
ENDROOT
BRANCH   1  22
ATOM     21  C   UNL     1       8.171   8.521  17.963  0.00  0.00    +0.000 C 
ATOM     22  O   UNL     1       8.877   9.064  19.059  0.00  0.00    +0.000 OA
ENDBRANCH   1  22
BRANCH  19  23
ATOM     23  C   UNL     1       6.462  16.846  19.156  0.00  0.00    +0.000 C 
ATOM     24  O   UNL     1       6.529  18.054  19.351  0.00  0.00    +0.000 OA
BRANCH  23  25
ATOM     25  C   UNL     1       5.376  16.007  19.728  0.00  0.00    +0.000 A 
ATOM     26  C   UNL     1       4.276  15.613  18.963  0.00  0.00    +0.000 A 
ATOM     27  C   UNL     1       3.319  14.752  19.499  0.00  0.00    +0.000 A 
ATOM     28  C   UNL     1       3.501  14.224  20.794  0.00  0.00    +0.000 A 
ATOM     29  C   UNL     1       4.565  14.683  21.599  0.00  0.00    +0.000 A 
ATOM     30  C   UNL     1       5.502  15.563  21.050  0.00  0.00    +0.000 A 
BRANCH  27  31
ATOM     31  O   UNL     1       2.214  14.343  18.787  0.00  0.00    +0.000 OA
ATOM     32  C   UNL     1       2.415  13.224  17.921  0.00  0.00    +0.000 C 
ENDBRANCH  27  31
BRANCH  28  33
ATOM     33  O   UNL     1       2.560  13.304  21.205  0.00  0.00    +0.000 OA
ATOM     34  C   UNL     1       1.286  13.826  21.561  0.00  0.00    +0.000 C 
ENDBRANCH  28  33
BRANCH  29  35
ATOM     35  O   UNL     1       4.636  14.209  22.880  0.00  0.00    +0.000 OA
ATOM     36  C   UNL     1       5.627  13.242  23.199  0.00  0.00    +0.000 C 
ENDBRANCH  29  35
ENDBRANCH  23  25
ENDBRANCH  19  23
TORSDOF 6
ENDMDL
MODEL 8
REMARK VINA RESULT:      -6.1      7.820     11.549
REMARK  Name = 
REMARK  10 active torsions:
REMARK  status: ('A' for Active; 'I' for Inactive)
REMARK    1  A    between atoms: C_1  and  O_2
REMARK    2  A    between atoms: O_2  and  C_3
REMARK    3  A    between atoms: C_21  and  C_23
REMARK    4  A    between atoms: C_23  and  C_25
REMARK    5  A    between atoms: C_27  and  O_28
REMARK    6  A    between atoms: O_28  and  C_29
REMARK    7  A    between atoms: C_30  and  O_31
REMARK    8  A    between atoms: O_31  and  C_32
REMARK    9  A    between atoms: C_33  and  O_34
REMARK   10  A    between atoms: O_34  and  C_35
REMARK                            x       y       z     vdW  Elec       q    Type
REMARK                         _______ _______ _______ _____ _____    ______ ____
ROOT
ATOM      1  C   UNL     1      -1.687  14.589  23.984  0.00  0.00    +0.000 A 
ATOM      2  C   UNL     1      -0.471  14.955  23.418  0.00  0.00    +0.000 A 
ATOM      3  C   UNL     1      -0.074  14.423  22.164  0.00  0.00    +0.000 A 
ATOM      4  C   UNL     1      -0.888  13.511  21.457  0.00  0.00    +0.000 A 
ATOM      5  C   UNL     1      -2.116  13.173  22.050  0.00  0.00    +0.000 A 
ATOM      6  C   UNL     1      -2.488  13.685  23.303  0.00  0.00    +0.000 A 
ATOM      7  C   UNL     1      -3.062  12.211  21.409  0.00  0.00    +0.000 C 
ATOM      8  C   UNL     1      -2.961  12.220  19.902  0.00  0.00    +0.000 C 
ATOM      9  N   UNL     1      -1.601  12.214  19.406  0.00  0.00    +0.000 N 
ATOM     10  C   UNL     1      -1.366  11.216  18.482  0.00  0.00    +0.000 C 
ATOM     11  O   UNL     1      -2.087  11.041  17.501  0.00  0.00    +0.000 OA
ATOM     12  C   UNL     1      -0.265  10.227  18.887  0.00  0.00    +0.000 C 
ATOM     13  C   UNL     1       0.732  10.195  17.728  0.00  0.00    +0.000 C 
ATOM     14  C   UNL     1       2.056  10.816  18.151  0.00  0.00    +0.000 C 
ATOM     15  C   UNL     1       1.829  12.151  18.911  0.00  0.00    +0.000 C 
ATOM     16  C   UNL     1       0.828  12.035  20.113  0.00  0.00    +0.000 C 
ATOM     17  C   UNL     1      -0.476  12.945  20.079  0.00  0.00    +0.000 C 
ATOM     18  N   UNL     1       0.393  10.644  20.150  0.00  0.00    +0.000 N 
ATOM     19  C   UNL     1       0.902   9.817  21.135  0.00  0.00    +0.000 C 
ATOM     20  O   UNL     1       1.678  10.181  22.012  0.00  0.00    +0.000 OA
ENDROOT
BRANCH   1  22
ATOM     21  C   UNL     1      -3.155  16.031  25.184  0.00  0.00    +0.000 C 
ATOM     22  O   UNL     1      -2.201  14.989  25.183  0.00  0.00    +0.000 OA
ENDBRANCH   1  22
BRANCH  19  23
ATOM     23  C   UNL     1       0.403   8.388  21.178  0.00  0.00    +0.000 C 
ATOM     24  O   UNL     1      -0.696   8.157  21.668  0.00  0.00    +0.000 OA
BRANCH  23  25
ATOM     25  C   UNL     1       1.291   7.309  20.669  0.00  0.00    +0.000 A 
ATOM     26  C   UNL     1       1.405   6.084  21.330  0.00  0.00    +0.000 A 
ATOM     27  C   UNL     1       2.174   5.058  20.781  0.00  0.00    +0.000 A 
ATOM     28  C   UNL     1       2.781   5.238  19.520  0.00  0.00    +0.000 A 
ATOM     29  C   UNL     1       2.736   6.500  18.889  0.00  0.00    +0.000 A 
ATOM     30  C   UNL     1       1.976   7.521  19.467  0.00  0.00    +0.000 A 
BRANCH  27  31
ATOM     31  O   UNL     1       2.325   3.838  21.399  0.00  0.00    +0.000 OA
ATOM     32  C   UNL     1       1.227   2.934  21.258  0.00  0.00    +0.000 C 
ENDBRANCH  27  31
BRANCH  28  33
ATOM     33  O   UNL     1       3.438   4.140  19.008  0.00  0.00    +0.000 OA
ATOM     34  C   UNL     1       2.800   3.474  17.926  0.00  0.00    +0.000 C 
ENDBRANCH  28  33
BRANCH  29  35
ATOM     35  O   UNL     1       3.424   6.643  17.716  0.00  0.00    +0.000 OA
ATOM     36  C   UNL     1       3.949   7.920  17.382  0.00  0.00    +0.000 C 
ENDBRANCH  29  35
ENDBRANCH  23  25
ENDBRANCH  19  23
TORSDOF 6
ENDMDL
MODEL 9
REMARK VINA RESULT:      -6.1      5.792     10.161
REMARK  Name = 
REMARK  10 active torsions:
REMARK  status: ('A' for Active; 'I' for Inactive)
REMARK    1  A    between atoms: C_1  and  O_2
REMARK    2  A    between atoms: O_2  and  C_3
REMARK    3  A    between atoms: C_21  and  C_23
REMARK    4  A    between atoms: C_23  and  C_25
REMARK    5  A    between atoms: C_27  and  O_28
REMARK    6  A    between atoms: O_28  and  C_29
REMARK    7  A    between atoms: C_30  and  O_31
REMARK    8  A    between atoms: O_31  and  C_32
REMARK    9  A    between atoms: C_33  and  O_34
REMARK   10  A    between atoms: O_34  and  C_35
REMARK                            x       y       z     vdW  Elec       q    Type
REMARK                         _______ _______ _______ _____ _____    ______ ____
ROOT
ATOM      1  C   UNL     1       0.612   9.357  21.989  0.00  0.00    +0.000 A 
ATOM      2  C   UNL     1       0.025   9.587  23.228  0.00  0.00    +0.000 A 
ATOM      3  C   UNL     1      -1.017  10.541  23.363  0.00  0.00    +0.000 A 
ATOM      4  C   UNL     1      -1.486  11.284  22.258  0.00  0.00    +0.000 A 
ATOM      5  C   UNL     1      -0.881  11.018  21.018  0.00  0.00    +0.000 A 
ATOM      6  C   UNL     1       0.167  10.090  20.900  0.00  0.00    +0.000 A 
ATOM      7  C   UNL     1      -1.278  11.744  19.775  0.00  0.00    +0.000 C 
ATOM      8  C   UNL     1      -2.724  12.179  19.798  0.00  0.00    +0.000 C 
ATOM      9  N   UNL     1      -3.137  12.774  21.052  0.00  0.00    +0.000 N 
ATOM     10  C   UNL     1      -3.742  14.004  20.896  0.00  0.00    +0.000 C 
ATOM     11  O   UNL     1      -4.670  14.189  20.110  0.00  0.00    +0.000 OA
ATOM     12  C   UNL     1      -3.032  15.155  21.621  0.00  0.00    +0.000 C 
ATOM     13  C   UNL     1      -4.091  15.832  22.492  0.00  0.00    +0.000 C 
ATOM     14  C   UNL     1      -3.793  15.599  23.967  0.00  0.00    +0.000 C 
ATOM     15  C   UNL     1      -3.435  14.112  24.236  0.00  0.00    +0.000 C 
ATOM     16  C   UNL     1      -2.295  13.555  23.314  0.00  0.00    +0.000 C 
ATOM     17  C   UNL     1      -2.636  12.307  22.389  0.00  0.00    +0.000 C 
ATOM     18  N   UNL     1      -1.901  14.655  22.442  0.00  0.00    +0.000 N 
ATOM     19  C   UNL     1      -0.706  15.303  22.694  0.00  0.00    +0.000 C 
ATOM     20  O   UNL     1       0.074  14.996  23.589  0.00  0.00    +0.000 OA
ENDROOT
BRANCH   1  22
ATOM     21  C   UNL     1       1.537   7.729  20.517  0.00  0.00    +0.000 C 
ATOM     22  O   UNL     1       1.631   8.498  21.698  0.00  0.00    +0.000 OA
ENDBRANCH   1  22
BRANCH  19  23
ATOM     23  C   UNL     1      -0.298  16.415  21.749  0.00  0.00    +0.000 C 
ATOM     24  O   UNL     1      -0.885  17.489  21.806  0.00  0.00    +0.000 OA
BRANCH  23  25
ATOM     25  C   UNL     1       0.769  16.143  20.750  0.00  0.00    +0.000 A 
ATOM     26  C   UNL     1       0.718  15.027  19.912  0.00  0.00    +0.000 A 
ATOM     27  C   UNL     1       1.686  14.846  18.923  0.00  0.00    +0.000 A 
ATOM     28  C   UNL     1       2.677  15.830  18.727  0.00  0.00    +0.000 A 
ATOM     29  C   UNL     1       2.780  16.915  19.624  0.00  0.00    +0.000 A 
ATOM     30  C   UNL     1       1.812  17.067  20.621  0.00  0.00    +0.000 A 
BRANCH  27  31
ATOM     31  O   UNL     1       1.683  13.759  18.080  0.00  0.00    +0.000 OA
ATOM     32  C   UNL     1       2.096  12.521  18.663  0.00  0.00    +0.000 C 
ENDBRANCH  27  31
BRANCH  28  33
ATOM     33  O   UNL     1       3.530  15.619  17.665  0.00  0.00    +0.000 OA
ATOM     34  C   UNL     1       4.777  15.010  17.973  0.00  0.00    +0.000 C 
ENDBRANCH  28  33
BRANCH  29  35
ATOM     35  O   UNL     1       3.820  17.785  19.443  0.00  0.00    +0.000 OA
ATOM     36  C   UNL     1       4.880  17.790  20.389  0.00  0.00    +0.000 C 
ENDBRANCH  29  35
ENDBRANCH  23  25
ENDBRANCH  19  23
TORSDOF 6
ENDMDL
