MODEL 1
REMARK VINA RESULT:      -7.8      0.000      0.000
REMARK  Name = 
REMARK  2 active torsions:
REMARK  status: ('A' for Active; 'I' for Inactive)
REMARK    1  A    between atoms: C_7  and  N_8
REMARK    2  A    between atoms: C_14  and  C_15
REMARK                            x       y       z     vdW  Elec       q    Type
REMARK                         _______ _______ _______ _____ _____    ______ ____
ROOT
ATOM      1  O   UNL     1       5.245   6.903  14.862  0.00  0.00    +0.000 OA
ATOM      2  C   UNL     1       4.985   6.283  15.872  0.00  0.00    +0.000 C 
ATOM      3  N   UNL     1       4.313   6.787  16.972  0.00  0.00    +0.000 N 
ATOM      4  C   UNL     1       4.126   5.821  17.948  0.00  0.00    +0.000 A 
ATOM      5  C   UNL     1       3.500   6.013  19.164  0.00  0.00    +0.000 A 
ATOM      6  C   UNL     1       3.431   4.920  20.027  0.00  0.00    +0.000 A 
ATOM      7  C   UNL     1       3.993   3.678  19.649  0.00  0.00    +0.000 A 
ATOM      8  C   UNL     1       4.621   3.503  18.397  0.00  0.00    +0.000 A 
ATOM      9  C   UNL     1       4.676   4.596  17.548  0.00  0.00    +0.000 A 
ATOM     10  C   UNL     1       5.251   4.832  16.212  0.00  0.00    +0.000 C 
ATOM     11  C   UNL     1       5.909   3.942  15.450  0.00  0.00    +0.000 C 
ATOM     12  H   UNL     1       4.013   7.749  17.017  0.00  0.00    +0.000 HD
ENDROOT
BRANCH  11  13
ATOM     13  C   UNL     1       6.539   4.320  14.243  0.00  0.00    +0.000 A 
ATOM     14  C   UNL     1       6.364   3.922  12.933  0.00  0.00    +0.000 A 
ATOM     15  C   UNL     1       7.358   4.561  12.152  0.00  0.00    +0.000 A 
ATOM     16  C   UNL     1       8.090   5.363  12.999  0.00  0.00    +0.000 A 
ATOM     17  N   UNL     1       7.577   5.222  14.264  0.00  0.00    +0.000 N 
ATOM     18  H   UNL     1       7.954   5.665  15.092  0.00  0.00    +0.000 HD
ENDBRANCH  11  13
BRANCH   7  19
ATOM     19  N   UNL     1       3.923   2.552  20.591  0.00  0.00    +0.000 N 
ATOM     20  O   UNL     1       4.859   1.741  20.593  0.00  0.00    +0.000 OA
ATOM     21  O   UNL     1       2.928   2.481  21.328  0.00  0.00    +0.000 OA
ENDBRANCH   7  19
TORSDOF 2
ENDMDL
MODEL 2
REMARK VINA RESULT:      -7.8      2.382      6.545
REMARK  Name = 
REMARK  2 active torsions:
REMARK  status: ('A' for Active; 'I' for Inactive)
REMARK    1  A    between atoms: C_7  and  N_8
REMARK    2  A    between atoms: C_14  and  C_15
REMARK                            x       y       z     vdW  Elec       q    Type
REMARK                         _______ _______ _______ _____ _____    ______ ____
ROOT
ATOM      1  O   UNL     1       4.667   4.654  19.668  0.00  0.00    +0.000 OA
ATOM      2  C   UNL     1       4.993   4.577  18.501  0.00  0.00    +0.000 C 
ATOM      3  N   UNL     1       6.143   5.117  17.953  0.00  0.00    +0.000 N 
ATOM      4  C   UNL     1       6.260   4.819  16.605  0.00  0.00    +0.000 A 
ATOM      5  C   UNL     1       7.289   5.220  15.775  0.00  0.00    +0.000 A 
ATOM      6  C   UNL     1       7.217   4.839  14.436  0.00  0.00    +0.000 A 
ATOM      7  C   UNL     1       6.119   4.075  13.971  0.00  0.00    +0.000 A 
ATOM      8  C   UNL     1       5.084   3.669  14.840  0.00  0.00    +0.000 A 
ATOM      9  C   UNL     1       5.173   4.050  16.169  0.00  0.00    +0.000 A 
ATOM     10  C   UNL     1       4.314   3.863  17.351  0.00  0.00    +0.000 C 
ATOM     11  C   UNL     1       3.141   3.210  17.399  0.00  0.00    +0.000 C 
ATOM     12  H   UNL     1       6.792   5.657  18.505  0.00  0.00    +0.000 HD
ENDROOT
BRANCH  11  13
ATOM     13  C   UNL     1       2.335   3.215  18.561  0.00  0.00    +0.000 A 
ATOM     14  C   UNL     1       1.288   4.015  18.968  0.00  0.00    +0.000 A 
ATOM     15  C   UNL     1       0.932   3.624  20.282  0.00  0.00    +0.000 A 
ATOM     16  C   UNL     1       1.746   2.568  20.628  0.00  0.00    +0.000 A 
ATOM     17  N   UNL     1       2.585   2.317  19.572  0.00  0.00    +0.000 N 
ATOM     18  H   UNL     1       3.318   1.620  19.571  0.00  0.00    +0.000 HD
ENDBRANCH  11  13
BRANCH   7  19
ATOM     19  N   UNL     1       6.063   3.709  12.549  0.00  0.00    +0.000 N 
ATOM     20  O   UNL     1       7.109   3.787  11.891  0.00  0.00    +0.000 OA
ATOM     21  O   UNL     1       4.969   3.344  12.094  0.00  0.00    +0.000 OA
ENDBRANCH   7  19
TORSDOF 2
ENDMDL
MODEL 3
REMARK VINA RESULT:      -7.5      2.461      6.568
REMARK  Name = 
REMARK  2 active torsions:
REMARK  status: ('A' for Active; 'I' for Inactive)
REMARK    1  A    between atoms: C_7  and  N_8
REMARK    2  A    between atoms: C_14  and  C_15
REMARK                            x       y       z     vdW  Elec       q    Type
REMARK                         _______ _______ _______ _____ _____    ______ ____
ROOT
ATOM      1  O   UNL     1       4.789   4.677  19.705  0.00  0.00    +0.000 OA
ATOM      2  C   UNL     1       5.086   4.592  18.531  0.00  0.00    +0.000 C 
ATOM      3  N   UNL     1       6.236   5.103  17.956  0.00  0.00    +0.000 N 
ATOM      4  C   UNL     1       6.313   4.802  16.605  0.00  0.00    +0.000 A 
ATOM      5  C   UNL     1       7.331   5.178  15.751  0.00  0.00    +0.000 A 
ATOM      6  C   UNL     1       7.217   4.800  14.414  0.00  0.00    +0.000 A 
ATOM      7  C   UNL     1       6.090   4.065  13.976  0.00  0.00    +0.000 A 
ATOM      8  C   UNL     1       5.066   3.684  14.869  0.00  0.00    +0.000 A 
ATOM      9  C   UNL     1       5.196   4.062  16.195  0.00  0.00    +0.000 A 
ATOM     10  C   UNL     1       4.361   3.896  17.398  0.00  0.00    +0.000 C 
ATOM     11  C   UNL     1       3.174   3.273  17.474  0.00  0.00    +0.000 C 
ATOM     12  H   UNL     1       6.911   5.627  18.491  0.00  0.00    +0.000 HD
ENDROOT
BRANCH  11  13
ATOM     13  C   UNL     1       2.397   3.297  18.655  0.00  0.00    +0.000 A 
ATOM     14  C   UNL     1       2.081   2.328  19.585  0.00  0.00    +0.000 A 
ATOM     15  C   UNL     1       1.169   2.897  20.507  0.00  0.00    +0.000 A 
ATOM     16  C   UNL     1       0.981   4.210  20.139  0.00  0.00    +0.000 A 
ATOM     17  N   UNL     1       1.741   4.449  19.021  0.00  0.00    +0.000 N 
ATOM     18  H   UNL     1       1.759   5.322  18.512  0.00  0.00    +0.000 HD
ENDBRANCH  11  13
BRANCH   7  19
ATOM     19  N   UNL     1       5.990   3.700  12.555  0.00  0.00    +0.000 N 
ATOM     20  O   UNL     1       4.879   3.366  12.122  0.00  0.00    +0.000 OA
ATOM     21  O   UNL     1       7.026   3.748  11.876  0.00  0.00    +0.000 OA
ENDBRANCH   7  19
TORSDOF 2
ENDMDL
MODEL 4
REMARK VINA RESULT:      -7.5      1.217      1.477
REMARK  Name = 
REMARK  2 active torsions:
REMARK  status: ('A' for Active; 'I' for Inactive)
REMARK    1  A    between atoms: C_7  and  N_8
REMARK    2  A    between atoms: C_14  and  C_15
REMARK                            x       y       z     vdW  Elec       q    Type
REMARK                         _______ _______ _______ _____ _____    ______ ____
ROOT
ATOM      1  O   UNL     1       4.941   7.038  15.753  0.00  0.00    +0.000 OA
ATOM      2  C   UNL     1       4.441   6.487  16.712  0.00  0.00    +0.000 C 
ATOM      3  N   UNL     1       3.741   7.119  17.725  0.00  0.00    +0.000 N 
ATOM      4  C   UNL     1       3.250   6.215  18.654  0.00  0.00    +0.000 A 
ATOM      5  C   UNL     1       2.520   6.533  19.782  0.00  0.00    +0.000 A 
ATOM      6  C   UNL     1       2.135   5.480  20.612  0.00  0.00    +0.000 A 
ATOM      7  C   UNL     1       2.496   4.151  20.290  0.00  0.00    +0.000 A 
ATOM      8  C   UNL     1       3.235   3.849  19.126  0.00  0.00    +0.000 A 
ATOM      9  C   UNL     1       3.605   4.904  18.308  0.00  0.00    +0.000 A 
ATOM     10  C   UNL     1       4.382   5.015  17.061  0.00  0.00    +0.000 C 
ATOM     11  C   UNL     1       4.952   4.010  16.376  0.00  0.00    +0.000 C 
ATOM     12  H   UNL     1       3.624   8.121  17.746  0.00  0.00    +0.000 HD
ENDROOT
BRANCH  11  13
ATOM     13  C   UNL     1       5.793   4.251  15.265  0.00  0.00    +0.000 A 
ATOM     14  C   UNL     1       5.658   3.989  13.917  0.00  0.00    +0.000 A 
ATOM     15  C   UNL     1       6.872   4.351  13.284  0.00  0.00    +0.000 A 
ATOM     16  C   UNL     1       7.703   4.863  14.256  0.00  0.00    +0.000 A 
ATOM     17  N   UNL     1       7.035   4.811  15.454  0.00  0.00    +0.000 N 
ATOM     18  H   UNL     1       7.427   5.083  16.345  0.00  0.00    +0.000 HD
ENDBRANCH  11  13
BRANCH   7  19
ATOM     19  N   UNL     1       2.094   3.067  21.198  0.00  0.00    +0.000 N 
ATOM     20  O   UNL     1       2.972   2.542  21.896  0.00  0.00    +0.000 OA
ATOM     21  O   UNL     1       0.897   2.743  21.209  0.00  0.00    +0.000 OA
ENDBRANCH   7  19
TORSDOF 2
ENDMDL
MODEL 5
REMARK VINA RESULT:      -7.3      3.538      6.621
REMARK  Name = 
REMARK  2 active torsions:
REMARK  status: ('A' for Active; 'I' for Inactive)
REMARK    1  A    between atoms: C_7  and  N_8
REMARK    2  A    between atoms: C_14  and  C_15
REMARK                            x       y       z     vdW  Elec       q    Type
REMARK                         _______ _______ _______ _____ _____    ______ ____
ROOT
ATOM      1  O   UNL     1       1.370   7.933  20.348  0.00  0.00    +0.000 OA
ATOM      2  C   UNL     1       2.228   7.356  19.713  0.00  0.00    +0.000 C 
ATOM      3  N   UNL     1       2.906   6.223  20.126  0.00  0.00    +0.000 N 
ATOM      4  C   UNL     1       3.790   5.771  19.159  0.00  0.00    +0.000 A 
ATOM      5  C   UNL     1       4.618   4.671  19.273  0.00  0.00    +0.000 A 
ATOM      6  C   UNL     1       5.459   4.389  18.197  0.00  0.00    +0.000 A 
ATOM      7  C   UNL     1       5.448   5.217  17.049  0.00  0.00    +0.000 A 
ATOM      8  C   UNL     1       4.587   6.331  16.952  0.00  0.00    +0.000 A 
ATOM      9  C   UNL     1       3.753   6.594  18.026  0.00  0.00    +0.000 A 
ATOM     10  C   UNL     1       2.762   7.643  18.325  0.00  0.00    +0.000 C 
ATOM     11  C   UNL     1       2.415   8.672  17.534  0.00  0.00    +0.000 C 
ATOM     12  H   UNL     1       2.746   5.807  21.031  0.00  0.00    +0.000 HD
ENDROOT
BRANCH  11  13
ATOM     13  C   UNL     1       1.552   9.697  17.984  0.00  0.00    +0.000 A 
ATOM     14  C   UNL     1       1.782  10.900  18.619  0.00  0.00    +0.000 A 
ATOM     15  C   UNL     1       0.523  11.470  18.931  0.00  0.00    +0.000 A 
ATOM     16  C   UNL     1      -0.443  10.619  18.443  0.00  0.00    +0.000 A 
ATOM     17  N   UNL     1       0.190   9.551  17.857  0.00  0.00    +0.000 N 
ATOM     18  H   UNL     1      -0.280   8.752  17.455  0.00  0.00    +0.000 HD
ENDBRANCH  11  13
BRANCH   7  19
ATOM     19  N   UNL     1       6.362   4.905  15.942  0.00  0.00    +0.000 N 
ATOM     20  O   UNL     1       6.159   3.864  15.301  0.00  0.00    +0.000 OA
ATOM     21  O   UNL     1       7.284   5.702  15.717  0.00  0.00    +0.000 OA
ENDBRANCH   7  19
TORSDOF 2
ENDMDL
MODEL 6
REMARK VINA RESULT:      -7.3      2.188      2.383
REMARK  Name = 
REMARK  2 active torsions:
REMARK  status: ('A' for Active; 'I' for Inactive)
REMARK    1  A    between atoms: C_7  and  N_8
REMARK    2  A    between atoms: C_14  and  C_15
REMARK                            x       y       z     vdW  Elec       q    Type
REMARK                         _______ _______ _______ _____ _____    ______ ____
ROOT
ATOM      1  O   UNL     1       7.859   4.530  16.210  0.00  0.00    +0.000 OA
ATOM      2  C   UNL     1       6.811   4.332  16.789  0.00  0.00    +0.000 C 
ATOM      3  N   UNL     1       6.669   4.161  18.155  0.00  0.00    +0.000 N 
ATOM      4  C   UNL     1       5.342   4.002  18.519  0.00  0.00    +0.000 A 
ATOM      5  C   UNL     1       4.875   3.803  19.804  0.00  0.00    +0.000 A 
ATOM      6  C   UNL     1       3.500   3.640  19.967  0.00  0.00    +0.000 A 
ATOM      7  C   UNL     1       2.641   3.676  18.844  0.00  0.00    +0.000 A 
ATOM      8  C   UNL     1       3.139   3.890  17.541  0.00  0.00    +0.000 A 
ATOM      9  C   UNL     1       4.507   4.057  17.395  0.00  0.00    +0.000 A 
ATOM     10  C   UNL     1       5.400   4.265  16.242  0.00  0.00    +0.000 C 
ATOM     11  C   UNL     1       5.041   4.352  14.951  0.00  0.00    +0.000 C 
ATOM     12  H   UNL     1       7.464   4.159  18.776  0.00  0.00    +0.000 HD
ENDROOT
BRANCH  11  13
ATOM     13  C   UNL     1       6.001   4.413  13.915  0.00  0.00    +0.000 A 
ATOM     14  C   UNL     1       6.303   3.563  12.870  0.00  0.00    +0.000 A 
ATOM     15  C   UNL     1       7.442   4.083  12.208  0.00  0.00    +0.000 A 
ATOM     16  C   UNL     1       7.782   5.258  12.841  0.00  0.00    +0.000 A 
ATOM     17  N   UNL     1       6.893   5.458  13.868  0.00  0.00    +0.000 N 
ATOM     18  H   UNL     1       6.935   6.225  14.526  0.00  0.00    +0.000 HD
ENDBRANCH  11  13
BRANCH   7  19
ATOM     19  N   UNL     1       1.199   3.478  19.048  0.00  0.00    +0.000 N 
ATOM     20  O   UNL     1       0.679   4.003  20.043  0.00  0.00    +0.000 OA
ATOM     21  O   UNL     1       0.589   2.797  18.211  0.00  0.00    +0.000 OA
ENDBRANCH   7  19
TORSDOF 2
ENDMDL
MODEL 7
REMARK VINA RESULT:      -7.3      3.499      6.766
REMARK  Name = 
REMARK  2 active torsions:
REMARK  status: ('A' for Active; 'I' for Inactive)
REMARK    1  A    between atoms: C_7  and  N_8
REMARK    2  A    between atoms: C_14  and  C_15
REMARK                            x       y       z     vdW  Elec       q    Type
REMARK                         _______ _______ _______ _____ _____    ______ ____
ROOT
ATOM      1  O   UNL     1       1.356   7.694  20.482  0.00  0.00    +0.000 OA
ATOM      2  C   UNL     1       2.221   7.231  19.768  0.00  0.00    +0.000 C 
ATOM      3  N   UNL     1       3.041   6.164  20.091  0.00  0.00    +0.000 N 
ATOM      4  C   UNL     1       3.897   5.839  19.050  0.00  0.00    +0.000 A 
ATOM      5  C   UNL     1       4.839   4.830  19.065  0.00  0.00    +0.000 A 
ATOM      6  C   UNL     1       5.627   4.673  17.925  0.00  0.00    +0.000 A 
ATOM      7  C   UNL     1       5.449   5.530  16.814  0.00  0.00    +0.000 A 
ATOM      8  C   UNL     1       4.473   6.549  16.817  0.00  0.00    +0.000 A 
ATOM      9  C   UNL     1       3.694   6.689  17.955  0.00  0.00    +0.000 A 
ATOM     10  C   UNL     1       2.623   7.617  18.360  0.00  0.00    +0.000 C 
ATOM     11  C   UNL     1       2.116   8.627  17.635  0.00  0.00    +0.000 C 
ATOM     12  H   UNL     1       2.989   5.706  20.988  0.00  0.00    +0.000 HD
ENDROOT
BRANCH  11  13
ATOM     13  C   UNL     1       1.185   9.540  18.181  0.00  0.00    +0.000 A 
ATOM     14  C   UNL     1      -0.170   9.719  17.991  0.00  0.00    +0.000 A 
ATOM     15  C   UNL     1      -0.560  10.867  18.723  0.00  0.00    +0.000 A 
ATOM     16  C   UNL     1       0.559  11.337  19.373  0.00  0.00    +0.000 A 
ATOM     17  N   UNL     1       1.612  10.517  19.050  0.00  0.00    +0.000 N 
ATOM     18  H   UNL     1       2.566  10.656  19.355  0.00  0.00    +0.000 HD
ENDBRANCH  11  13
BRANCH   7  19
ATOM     19  N   UNL     1       6.310   5.352  15.636  0.00  0.00    +0.000 N 
ATOM     20  O   UNL     1       7.459   5.812  15.686  0.00  0.00    +0.000 OA
ATOM     21  O   UNL     1       5.833   4.752  14.662  0.00  0.00    +0.000 OA
ENDBRANCH   7  19
TORSDOF 2
ENDMDL
MODEL 8
REMARK VINA RESULT:      -7.3      2.524      6.504
REMARK  Name = 
REMARK  2 active torsions:
REMARK  status: ('A' for Active; 'I' for Inactive)
REMARK    1  A    between atoms: C_7  and  N_8
REMARK    2  A    between atoms: C_14  and  C_15
REMARK                            x       y       z     vdW  Elec       q    Type
REMARK                         _______ _______ _______ _____ _____    ______ ____
ROOT
ATOM      1  O   UNL     1       6.349   6.277  17.702  0.00  0.00    +0.000 OA
ATOM      2  C   UNL     1       6.285   5.717  16.627  0.00  0.00    +0.000 C 
ATOM      3  N   UNL     1       7.214   5.829  15.608  0.00  0.00    +0.000 N 
ATOM      4  C   UNL     1       6.887   5.031  14.523  0.00  0.00    +0.000 A 
ATOM      5  C   UNL     1       7.609   4.928  13.350  0.00  0.00    +0.000 A 
ATOM      6  C   UNL     1       7.103   4.086  12.360  0.00  0.00    +0.000 A 
ATOM      7  C   UNL     1       5.894   3.382  12.573  0.00  0.00    +0.000 A 
ATOM      8  C   UNL     1       5.178   3.496  13.784  0.00  0.00    +0.000 A 
ATOM      9  C   UNL     1       5.697   4.331  14.761  0.00  0.00    +0.000 A 
ATOM     10  C   UNL     1       5.255   4.737  16.107  0.00  0.00    +0.000 C 
ATOM     11  C   UNL     1       4.141   4.338  16.742  0.00  0.00    +0.000 C 
ATOM     12  H   UNL     1       8.020   6.431  15.686  0.00  0.00    +0.000 HD
ENDROOT
BRANCH  11  13
ATOM     13  C   UNL     1       3.748   4.902  17.978  0.00  0.00    +0.000 A 
ATOM     14  C   UNL     1       3.757   4.419  19.270  0.00  0.00    +0.000 A 
ATOM     15  C   UNL     1       3.139   5.389  20.097  0.00  0.00    +0.000 A 
ATOM     16  C   UNL     1       2.804   6.457  19.294  0.00  0.00    +0.000 A 
ATOM     17  N   UNL     1       3.191   6.159  18.011  0.00  0.00    +0.000 N 
ATOM     18  H   UNL     1       3.026   6.750  17.207  0.00  0.00    +0.000 HD
ENDBRANCH  11  13
BRANCH   7  19
ATOM     19  N   UNL     1       5.377   2.521  11.500  0.00  0.00    +0.000 N 
ATOM     20  O   UNL     1       4.265   2.793  11.027  0.00  0.00    +0.000 OA
ATOM     21  O   UNL     1       6.085   1.572  11.135  0.00  0.00    +0.000 OA
ENDBRANCH   7  19
TORSDOF 2
ENDMDL
MODEL 9
REMARK VINA RESULT:      -7.2      2.575      6.468
REMARK  Name = 
REMARK  2 active torsions:
REMARK  status: ('A' for Active; 'I' for Inactive)
REMARK    1  A    between atoms: C_7  and  N_8
REMARK    2  A    between atoms: C_14  and  C_15
REMARK                            x       y       z     vdW  Elec       q    Type
REMARK                         _______ _______ _______ _____ _____    ______ ____
ROOT
ATOM      1  O   UNL     1       6.177   6.356  17.646  0.00  0.00    +0.000 OA
ATOM      2  C   UNL     1       6.159   5.777  16.579  0.00  0.00    +0.000 C 
ATOM      3  N   UNL     1       7.134   5.865  15.602  0.00  0.00    +0.000 N 
ATOM      4  C   UNL     1       6.852   5.049  14.517  0.00  0.00    +0.000 A 
ATOM      5  C   UNL     1       7.626   4.921  13.381  0.00  0.00    +0.000 A 
ATOM      6  C   UNL     1       7.160   4.065  12.383  0.00  0.00    +0.000 A 
ATOM      7  C   UNL     1       5.938   3.372  12.553  0.00  0.00    +0.000 A 
ATOM      8  C   UNL     1       5.169   3.511  13.728  0.00  0.00    +0.000 A 
ATOM      9  C   UNL     1       5.648   4.361  14.713  0.00  0.00    +0.000 A 
ATOM     10  C   UNL     1       5.147   4.793  16.029  0.00  0.00    +0.000 C 
ATOM     11  C   UNL     1       4.003   4.412  16.620  0.00  0.00    +0.000 C 
ATOM     12  H   UNL     1       7.940   6.463  15.706  0.00  0.00    +0.000 HD
ENDROOT
BRANCH  11  13
ATOM     13  C   UNL     1       3.557   5.001  17.826  0.00  0.00    +0.000 A 
ATOM     14  C   UNL     1       2.751   6.089  18.092  0.00  0.00    +0.000 A 
ATOM     15  C   UNL     1       2.738   6.282  19.495  0.00  0.00    +0.000 A 
ATOM     16  C   UNL     1       3.505   5.284  20.052  0.00  0.00    +0.000 A 
ATOM     17  N   UNL     1       3.987   4.501  19.033  0.00  0.00    +0.000 N 
ATOM     18  H   UNL     1       4.616   3.719  19.154  0.00  0.00    +0.000 HD
ENDBRANCH  11  13
BRANCH   7  19
ATOM     19  N   UNL     1       5.465   2.494  11.474  0.00  0.00    +0.000 N 
ATOM     20  O   UNL     1       6.224   1.594  11.087  0.00  0.00    +0.000 OA
ATOM     21  O   UNL     1       4.335   2.709  11.013  0.00  0.00    +0.000 OA
ENDBRANCH   7  19
TORSDOF 2
ENDMDL
