MODEL 1
REMARK VINA RESULT:      -7.1      0.000      0.000
REMARK  Name = 
REMARK  3 active torsions:
REMARK  status: ('A' for Active; 'I' for Inactive)
REMARK    1  A    between atoms: N_1  and  C_2
REMARK    2  A    between atoms: C_10  and  S_11
REMARK    3  A    between atoms: S_11  and  N_12
REMARK                            x       y       z     vdW  Elec       q    Type
REMARK                         _______ _______ _______ _____ _____    ______ ____
ROOT
ATOM      1  C   UNL     1       2.532   4.918  20.436  0.00  0.00    +0.000 C 
ATOM      2  C   UNL     1       2.066   6.148  20.160  0.00  0.00    +0.000 C 
ATOM      3 CL   UNL     1       0.825   6.861  21.140  0.00  0.00    +0.000 Cl
ATOM      4  C   UNL     1       2.572   6.979  19.034  0.00  0.00    +0.000 C 
ATOM      5  O   UNL     1       2.138   8.097  18.787  0.00  0.00    +0.000 OA
ATOM      6  C   UNL     1       3.649   6.415  18.202  0.00  0.00    +0.000 A 
ATOM      7  C   UNL     1       4.209   7.183  17.167  0.00  0.00    +0.000 A 
ATOM      8  C   UNL     1       5.238   6.662  16.379  0.00  0.00    +0.000 A 
ATOM      9  C   UNL     1       5.698   5.367  16.627  0.00  0.00    +0.000 A 
ATOM     10  C   UNL     1       5.133   4.589  17.642  0.00  0.00    +0.000 A 
ATOM     11  C   UNL     1       4.118   5.125  18.439  0.00  0.00    +0.000 A 
ATOM     12  C   UNL     1       3.568   4.315  19.534  0.00  0.00    +0.000 C 
ATOM     13  O   UNL     1       3.938   3.156  19.701  0.00  0.00    +0.000 OA
ENDROOT
BRANCH   1  14
ATOM     14  N   UNL     1       2.128   4.107  21.492  0.00  0.00    +0.000 N 
ATOM     15  H   UNL     1       2.177   4.550  22.407  0.00  0.00    +0.000 HD
ATOM     16  H   UNL     1       1.240   3.637  21.296  0.00  0.00    +0.000 HD
ENDBRANCH   1  14
BRANCH   9  17
ATOM     17  S   UNL     1       7.047   4.696  15.705  0.00  0.00    +0.000 S 
ATOM     18  O   UNL     1       7.411   5.639  14.674  0.00  0.00    +0.000 OA
ATOM     19  O   UNL     1       8.005   4.121  16.619  0.00  0.00    +0.000 OA
BRANCH  17  20
ATOM     20  N   UNL     1       6.311   3.397  14.942  0.00  0.00    +0.000 NA
ATOM     21  H   UNL     1       6.098   3.628  13.970  0.00  0.00    +0.000 HD
ATOM     22  H   UNL     1       6.875   2.554  15.054  0.00  0.00    +0.000 HD
ENDBRANCH  17  20
ENDBRANCH   9  17
TORSDOF 3
ENDMDL
MODEL 2
REMARK VINA RESULT:      -6.8      0.846      1.046
REMARK  Name = 
REMARK  3 active torsions:
REMARK  status: ('A' for Active; 'I' for Inactive)
REMARK    1  A    between atoms: N_1  and  C_2
REMARK    2  A    between atoms: C_10  and  S_11
REMARK    3  A    between atoms: S_11  and  N_12
REMARK                            x       y       z     vdW  Elec       q    Type
REMARK                         _______ _______ _______ _____ _____    ______ ____
ROOT
ATOM      1  C   UNL     1       2.473   4.916  20.443  0.00  0.00    +0.000 C 
ATOM      2  C   UNL     1       2.079   6.171  20.171  0.00  0.00    +0.000 C 
ATOM      3 CL   UNL     1       0.897   6.960  21.167  0.00  0.00    +0.000 Cl
ATOM      4  C   UNL     1       2.617   6.968  19.035  0.00  0.00    +0.000 C 
ATOM      5  O   UNL     1       2.247   8.110  18.790  0.00  0.00    +0.000 OA
ATOM      6  C   UNL     1       3.646   6.338  18.189  0.00  0.00    +0.000 A 
ATOM      7  C   UNL     1       4.235   7.070  17.144  0.00  0.00    +0.000 A 
ATOM      8  C   UNL     1       5.219   6.486  16.341  0.00  0.00    +0.000 A 
ATOM      9  C   UNL     1       5.604   5.165  16.587  0.00  0.00    +0.000 A 
ATOM     10  C   UNL     1       5.009   4.426  17.613  0.00  0.00    +0.000 A 
ATOM     11  C   UNL     1       4.039   5.023  18.423  0.00  0.00    +0.000 A 
ATOM     12  C   UNL     1       3.458   4.250  19.529  0.00  0.00    +0.000 C 
ATOM     13  O   UNL     1       3.760   3.071  19.693  0.00  0.00    +0.000 OA
ENDROOT
BRANCH   1  14
ATOM     14  N   UNL     1       2.038   4.133  21.508  0.00  0.00    +0.000 N 
ATOM     15  H   UNL     1       2.093   3.129  21.344  0.00  0.00    +0.000 HD
ATOM     16  H   UNL     1       2.439   4.440  22.398  0.00  0.00    +0.000 HD
ENDBRANCH   1  14
BRANCH   9  17
ATOM     17  S   UNL     1       6.896   4.412  15.648  0.00  0.00    +0.000 S 
ATOM     18  O   UNL     1       7.998   4.123  16.535  0.00  0.00    +0.000 OA
ATOM     19  O   UNL     1       6.325   3.430  14.757  0.00  0.00    +0.000 OA
BRANCH  17  20
ATOM     20  N   UNL     1       7.379   5.686  14.671  0.00  0.00    +0.000 NA
ATOM     21  H   UNL     1       6.637   6.384  14.601  0.00  0.00    +0.000 HD
ATOM     22  H   UNL     1       8.272   6.061  14.992  0.00  0.00    +0.000 HD
ENDBRANCH  17  20
ENDBRANCH   9  17
TORSDOF 3
ENDMDL
MODEL 3
REMARK VINA RESULT:      -6.6      1.467      1.525
REMARK  Name = 
REMARK  3 active torsions:
REMARK  status: ('A' for Active; 'I' for Inactive)
REMARK    1  A    between atoms: N_1  and  C_2
REMARK    2  A    between atoms: C_10  and  S_11
REMARK    3  A    between atoms: S_11  and  N_12
REMARK                            x       y       z     vdW  Elec       q    Type
REMARK                         _______ _______ _______ _____ _____    ______ ____
ROOT
ATOM      1  C   UNL     1       2.238   3.301  19.186  0.00  0.00    +0.000 C 
ATOM      2  C   UNL     1       1.908   4.564  19.506  0.00  0.00    +0.000 C 
ATOM      3 CL   UNL     1       0.735   4.882  20.745  0.00  0.00    +0.000 Cl
ATOM      4  C   UNL     1       2.512   5.756  18.852  0.00  0.00    +0.000 C 
ATOM      5  O   UNL     1       2.200   6.905  19.146  0.00  0.00    +0.000 OA
ATOM      6  C   UNL     1       3.535   5.521  17.818  0.00  0.00    +0.000 A 
ATOM      7  C   UNL     1       4.185   6.612  17.216  0.00  0.00    +0.000 A 
ATOM      8  C   UNL     1       5.164   6.400  16.241  0.00  0.00    +0.000 A 
ATOM      9  C   UNL     1       5.482   5.092  15.868  0.00  0.00    +0.000 A 
ATOM     10  C   UNL     1       4.827   4.003  16.449  0.00  0.00    +0.000 A 
ATOM     11  C   UNL     1       3.863   4.223  17.437  0.00  0.00    +0.000 A 
ATOM     12  C   UNL     1       3.217   3.067  18.074  0.00  0.00    +0.000 C 
ATOM     13  O   UNL     1       3.462   1.925  17.693  0.00  0.00    +0.000 OA
ENDROOT
BRANCH   1  14
ATOM     14  N   UNL     1       1.739   2.148  19.783  0.00  0.00    +0.000 N 
ATOM     15  H   UNL     1       1.695   2.184  20.800  0.00  0.00    +0.000 HD
ATOM     16  H   UNL     1       0.878   1.826  19.332  0.00  0.00    +0.000 HD
ENDBRANCH   1  14
BRANCH   9  17
ATOM     17  S   UNL     1       6.765   4.774  14.697  0.00  0.00    +0.000 S 
ATOM     18  O   UNL     1       6.668   5.749  13.637  0.00  0.00    +0.000 OA
ATOM     19  O   UNL     1       7.994   4.499  15.403  0.00  0.00    +0.000 OA
BRANCH  17  20
ATOM     20  N   UNL     1       6.271   3.306  14.057  0.00  0.00    +0.000 NA
ATOM     21  H   UNL     1       5.817   3.445  13.153  0.00  0.00    +0.000 HD
ATOM     22  H   UNL     1       7.051   2.649  14.032  0.00  0.00    +0.000 HD
ENDBRANCH  17  20
ENDBRANCH   9  17
TORSDOF 3
ENDMDL
MODEL 4
REMARK VINA RESULT:      -6.5      2.969      4.459
REMARK  Name = 
REMARK  3 active torsions:
REMARK  status: ('A' for Active; 'I' for Inactive)
REMARK    1  A    between atoms: N_1  and  C_2
REMARK    2  A    between atoms: C_10  and  S_11
REMARK    3  A    between atoms: S_11  and  N_12
REMARK                            x       y       z     vdW  Elec       q    Type
REMARK                         _______ _______ _______ _____ _____    ______ ____
ROOT
ATOM      1  C   UNL     1       1.714   9.455  18.546  0.00  0.00    +0.000 C 
ATOM      2  C   UNL     1       1.199   9.395  19.786  0.00  0.00    +0.000 C 
ATOM      3 CL   UNL     1       0.401  10.772  20.478  0.00  0.00    +0.000 Cl
ATOM      4  C   UNL     1       1.260   8.176  20.637  0.00  0.00    +0.000 C 
ATOM      5  O   UNL     1       0.794   8.132  21.770  0.00  0.00    +0.000 OA
ATOM      6  C   UNL     1       1.904   6.979  20.067  0.00  0.00    +0.000 A 
ATOM      7  C   UNL     1       1.929   5.782  20.803  0.00  0.00    +0.000 A 
ATOM      8  C   UNL     1       2.528   4.638  20.267  0.00  0.00    +0.000 A 
ATOM      9  C   UNL     1       3.106   4.702  18.997  0.00  0.00    +0.000 A 
ATOM     10  C   UNL     1       3.101   5.894  18.268  0.00  0.00    +0.000 A 
ATOM     11  C   UNL     1       2.483   7.028  18.803  0.00  0.00    +0.000 A 
ATOM     12  C   UNL     1       2.442   8.261  18.004  0.00  0.00    +0.000 C 
ATOM     13  O   UNL     1       3.008   8.321  16.916  0.00  0.00    +0.000 OA
ENDROOT
BRANCH   1  14
ATOM     14  N   UNL     1       1.658  10.549  17.689  0.00  0.00    +0.000 N 
ATOM     15  H   UNL     1       0.722  10.923  17.542  0.00  0.00    +0.000 HD
ATOM     16  H   UNL     1       2.365  11.253  17.920  0.00  0.00    +0.000 HD
ENDBRANCH   1  14
BRANCH   9  17
ATOM     17  S   UNL     1       3.806   3.263  18.251  0.00  0.00    +0.000 S 
ATOM     18  O   UNL     1       2.879   2.167  18.412  0.00  0.00    +0.000 OA
ATOM     19  O   UNL     1       4.385   3.622  16.978  0.00  0.00    +0.000 OA
BRANCH  17  20
ATOM     20  N   UNL     1       5.102   2.959  19.270  0.00  0.00    +0.000 NA
ATOM     21  H   UNL     1       5.909   2.638  18.735  0.00  0.00    +0.000 HD
ATOM     22  H   UNL     1       5.290   3.773  19.857  0.00  0.00    +0.000 HD
ENDBRANCH  17  20
ENDBRANCH   9  17
TORSDOF 3
ENDMDL
MODEL 5
REMARK VINA RESULT:      -6.5      2.435      2.888
REMARK  Name = 
REMARK  3 active torsions:
REMARK  status: ('A' for Active; 'I' for Inactive)
REMARK    1  A    between atoms: N_1  and  C_2
REMARK    2  A    between atoms: C_10  and  S_11
REMARK    3  A    between atoms: S_11  and  N_12
REMARK                            x       y       z     vdW  Elec       q    Type
REMARK                         _______ _______ _______ _____ _____    ______ ____
ROOT
ATOM      1  C   UNL     1       1.736   2.493  18.915  0.00  0.00    +0.000 C 
ATOM      2  C   UNL     1       1.839   3.135  20.091  0.00  0.00    +0.000 C 
ATOM      3 CL   UNL     1       0.763   2.756  21.399  0.00  0.00    +0.000 Cl
ATOM      4  C   UNL     1       2.861   4.181  20.364  0.00  0.00    +0.000 C 
ATOM      5  O   UNL     1       2.943   4.766  21.437  0.00  0.00    +0.000 OA
ATOM      6  C   UNL     1       3.810   4.504  19.284  0.00  0.00    +0.000 A 
ATOM      7  C   UNL     1       4.836   5.437  19.510  0.00  0.00    +0.000 A 
ATOM      8  C   UNL     1       5.749   5.742  18.497  0.00  0.00    +0.000 A 
ATOM      9  C   UNL     1       5.623   5.115  17.255  0.00  0.00    +0.000 A 
ATOM     10  C   UNL     1       4.594   4.200  17.016  0.00  0.00    +0.000 A 
ATOM     11  C   UNL     1       3.697   3.886  18.042  0.00  0.00    +0.000 A 
ATOM     12  C   UNL     1       2.650   2.886  17.792  0.00  0.00    +0.000 C 
ATOM     13  O   UNL     1       2.514   2.389  16.677  0.00  0.00    +0.000 OA
ENDROOT
BRANCH   1  14
ATOM     14  N   UNL     1       0.830   1.483  18.609  0.00  0.00    +0.000 N 
ATOM     15  H   UNL     1       0.335   1.612  17.728  0.00  0.00    +0.000 HD
ATOM     16  H   UNL     1       1.237   0.552  18.734  0.00  0.00    +0.000 HD
ENDBRANCH   1  14
BRANCH   9  17
ATOM     17  S   UNL     1       6.798   5.413  15.970  0.00  0.00    +0.000 S 
ATOM     18  O   UNL     1       7.793   4.368  16.009  0.00  0.00    +0.000 OA
ATOM     19  O   UNL     1       6.098   5.789  14.765  0.00  0.00    +0.000 OA
BRANCH  17  20
ATOM     20  N   UNL     1       7.539   6.813  16.520  0.00  0.00    +0.000 NA
ATOM     21  H   UNL     1       8.485   6.611  16.848  0.00  0.00    +0.000 HD
ATOM     22  H   UNL     1       7.494   7.541  15.807  0.00  0.00    +0.000 HD
ENDBRANCH  17  20
ENDBRANCH   9  17
TORSDOF 3
ENDMDL
MODEL 6
REMARK VINA RESULT:      -6.4      3.716      5.955
REMARK  Name = 
REMARK  3 active torsions:
REMARK  status: ('A' for Active; 'I' for Inactive)
REMARK    1  A    between atoms: N_1  and  C_2
REMARK    2  A    between atoms: C_10  and  S_11
REMARK    3  A    between atoms: S_11  and  N_12
REMARK                            x       y       z     vdW  Elec       q    Type
REMARK                         _______ _______ _______ _____ _____    ______ ____
ROOT
ATOM      1  C   UNL     1       4.045   4.194  18.817  0.00  0.00    +0.000 C 
ATOM      2  C   UNL     1       4.467   4.835  17.714  0.00  0.00    +0.000 C 
ATOM      3 CL   UNL     1       5.513   4.041  16.579  0.00  0.00    +0.000 Cl
ATOM      4  C   UNL     1       4.074   6.230  17.379  0.00  0.00    +0.000 C 
ATOM      5  O   UNL     1       4.469   6.809  16.374  0.00  0.00    +0.000 OA
ATOM      6  C   UNL     1       3.161   6.921  18.307  0.00  0.00    +0.000 A 
ATOM      7  C   UNL     1       2.705   8.216  18.005  0.00  0.00    +0.000 A 
ATOM      8  C   UNL     1       1.831   8.876  18.872  0.00  0.00    +0.000 A 
ATOM      9  C   UNL     1       1.422   8.237  20.045  0.00  0.00    +0.000 A 
ATOM     10  C   UNL     1       1.886   6.957  20.361  0.00  0.00    +0.000 A 
ATOM     11  C   UNL     1       2.745   6.296  19.479  0.00  0.00    +0.000 A 
ATOM     12  C   UNL     1       3.185   4.931  19.800  0.00  0.00    +0.000 C 
ATOM     13  O   UNL     1       2.867   4.406  20.864  0.00  0.00    +0.000 OA
ENDROOT
BRANCH   1  14
ATOM     14  N   UNL     1       4.346   2.882  19.168  0.00  0.00    +0.000 N 
ATOM     15  H   UNL     1       3.864   2.175  18.614  0.00  0.00    +0.000 HD
ATOM     16  H   UNL     1       5.355   2.732  19.260  0.00  0.00    +0.000 HD
ENDBRANCH   1  14
BRANCH   9  17
ATOM     17  S   UNL     1       0.260   9.003  21.132  0.00  0.00    +0.000 S 
ATOM     18  O   UNL     1      -0.240  10.199  20.498  0.00  0.00    +0.000 OA
ATOM     19  O   UNL     1      -0.603   7.990  21.692  0.00  0.00    +0.000 OA
BRANCH  17  20
ATOM     20  N   UNL     1       1.256   9.496  22.387  0.00  0.00    +0.000 NA
ATOM     21  H   UNL     1       1.381  10.509  22.367  0.00  0.00    +0.000 HD
ATOM     22  H   UNL     1       0.909   9.138  23.277  0.00  0.00    +0.000 HD
ENDBRANCH  17  20
ENDBRANCH   9  17
TORSDOF 3
ENDMDL
MODEL 7
REMARK VINA RESULT:      -6.4      3.448      5.622
REMARK  Name = 
REMARK  3 active torsions:
REMARK  status: ('A' for Active; 'I' for Inactive)
REMARK    1  A    between atoms: N_1  and  C_2
REMARK    2  A    between atoms: C_10  and  S_11
REMARK    3  A    between atoms: S_11  and  N_12
REMARK                            x       y       z     vdW  Elec       q    Type
REMARK                         _______ _______ _______ _____ _____    ______ ____
ROOT
ATOM      1  C   UNL     1       4.478   4.420  18.247  0.00  0.00    +0.000 C 
ATOM      2  C   UNL     1       3.951   3.893  19.365  0.00  0.00    +0.000 C 
ATOM      3 CL   UNL     1       4.420   2.312  19.902  0.00  0.00    +0.000 Cl
ATOM      4  C   UNL     1       2.961   4.608  20.216  0.00  0.00    +0.000 C 
ATOM      5  O   UNL     1       2.480   4.118  21.231  0.00  0.00    +0.000 OA
ATOM      6  C   UNL     1       2.565   5.967  19.805  0.00  0.00    +0.000 A 
ATOM      7  C   UNL     1       1.684   6.711  20.608  0.00  0.00    +0.000 A 
ATOM      8  C   UNL     1       1.310   8.004  20.233  0.00  0.00    +0.000 A 
ATOM      9  C   UNL     1       1.816   8.544  19.048  0.00  0.00    +0.000 A 
ATOM     10  C   UNL     1       2.678   7.802  18.235  0.00  0.00    +0.000 A 
ATOM     11  C   UNL     1       3.062   6.517  18.627  0.00  0.00    +0.000 A 
ATOM     12  C   UNL     1       4.007   5.768  17.788  0.00  0.00    +0.000 C 
ATOM     13  O   UNL     1       4.395   6.230  16.718  0.00  0.00    +0.000 OA
ENDROOT
BRANCH   1  14
ATOM     14  N   UNL     1       5.431   3.820  17.430  0.00  0.00    +0.000 N 
ATOM     15  H   UNL     1       5.085   3.535  16.516  0.00  0.00    +0.000 HD
ATOM     16  H   UNL     1       6.304   4.355  17.404  0.00  0.00    +0.000 HD
ENDBRANCH   1  14
BRANCH   9  17
ATOM     17  S   UNL     1       1.431  10.201  18.574  0.00  0.00    +0.000 S 
ATOM     18  O   UNL     1       1.109  10.954  19.763  0.00  0.00    +0.000 OA
ATOM     19  O   UNL     1       2.393  10.650  17.596  0.00  0.00    +0.000 OA
BRANCH  17  20
ATOM     20  N   UNL     1      -0.002   9.979  17.734  0.00  0.00    +0.000 NA
ATOM     21  H   UNL     1      -0.380  10.877  17.428  0.00  0.00    +0.000 HD
ATOM     22  H   UNL     1       0.130   9.306  16.979  0.00  0.00    +0.000 HD
ENDBRANCH  17  20
ENDBRANCH   9  17
TORSDOF 3
ENDMDL
MODEL 8
REMARK VINA RESULT:      -6.4      3.843      5.986
REMARK  Name = 
REMARK  3 active torsions:
REMARK  status: ('A' for Active; 'I' for Inactive)
REMARK    1  A    between atoms: N_1  and  C_2
REMARK    2  A    between atoms: C_10  and  S_11
REMARK    3  A    between atoms: S_11  and  N_12
REMARK                            x       y       z     vdW  Elec       q    Type
REMARK                         _______ _______ _______ _____ _____    ______ ____
ROOT
ATOM      1  C   UNL     1       3.740   4.220  19.017  0.00  0.00    +0.000 C 
ATOM      2  C   UNL     1       4.215   4.765  17.885  0.00  0.00    +0.000 C 
ATOM      3 CL   UNL     1       5.209   3.837  16.807  0.00  0.00    +0.000 Cl
ATOM      4  C   UNL     1       3.926   6.164  17.469  0.00  0.00    +0.000 C 
ATOM      5  O   UNL     1       4.368   6.656  16.437  0.00  0.00    +0.000 OA
ATOM      6  C   UNL     1       3.059   6.970  18.346  0.00  0.00    +0.000 A 
ATOM      7  C   UNL     1       2.700   8.275  17.968  0.00  0.00    +0.000 A 
ATOM      8  C   UNL     1       1.869   9.044  18.788  0.00  0.00    +0.000 A 
ATOM      9  C   UNL     1       1.407   8.503  19.990  0.00  0.00    +0.000 A 
ATOM     10  C   UNL     1       1.775   7.212  20.382  0.00  0.00    +0.000 A 
ATOM     11  C   UNL     1       2.590   6.443  19.547  0.00  0.00    +0.000 A 
ATOM     12  C   UNL     1       2.929   5.070  19.948  0.00  0.00    +0.000 C 
ATOM     13  O   UNL     1       2.567   4.630  21.036  0.00  0.00    +0.000 OA
ENDROOT
BRANCH   1  14
ATOM     14  N   UNL     1       3.944   2.911  19.443  0.00  0.00    +0.000 N 
ATOM     15  H   UNL     1       4.293   2.281  18.723  0.00  0.00    +0.000 HD
ATOM     16  H   UNL     1       4.460   2.872  20.327  0.00  0.00    +0.000 HD
ENDBRANCH   1  14
BRANCH   9  17
ATOM     17  S   UNL     1       0.296   9.409  21.020  0.00  0.00    +0.000 S 
ATOM     18  O   UNL     1      -0.584   8.473  21.679  0.00  0.00    +0.000 OA
ATOM     19  O   UNL     1       1.030  10.431  21.727  0.00  0.00    +0.000 OA
BRANCH  17  20
ATOM     20  N   UNL     1      -0.625  10.221  19.877  0.00  0.00    +0.000 NA
ATOM     21  H   UNL     1      -0.298  10.002  18.935  0.00  0.00    +0.000 HD
ATOM     22  H   UNL     1      -1.617  10.035  20.025  0.00  0.00    +0.000 HD
ENDBRANCH  17  20
ENDBRANCH   9  17
TORSDOF 3
ENDMDL
MODEL 9
REMARK VINA RESULT:      -6.4      2.614      3.322
REMARK  Name = 
REMARK  3 active torsions:
REMARK  status: ('A' for Active; 'I' for Inactive)
REMARK    1  A    between atoms: N_1  and  C_2
REMARK    2  A    between atoms: C_10  and  S_11
REMARK    3  A    between atoms: S_11  and  N_12
REMARK                            x       y       z     vdW  Elec       q    Type
REMARK                         _______ _______ _______ _____ _____    ______ ____
ROOT
ATOM      1  C   UNL     1       1.329   3.202  19.447  0.00  0.00    +0.000 C 
ATOM      2  C   UNL     1       2.198   2.817  20.398  0.00  0.00    +0.000 C 
ATOM      3 CL   UNL     1       1.634   2.058  21.853  0.00  0.00    +0.000 Cl
ATOM      4  C   UNL     1       3.670   2.994  20.278  0.00  0.00    +0.000 C 
ATOM      5  O   UNL     1       4.455   2.646  21.152  0.00  0.00    +0.000 OA
ATOM      6  C   UNL     1       4.184   3.606  19.040  0.00  0.00    +0.000 A 
ATOM      7  C   UNL     1       5.570   3.736  18.847  0.00  0.00    +0.000 A 
ATOM      8  C   UNL     1       6.068   4.306  17.672  0.00  0.00    +0.000 A 
ATOM      9  C   UNL     1       5.172   4.751  16.697  0.00  0.00    +0.000 A 
ATOM     10  C   UNL     1       3.792   4.643  16.890  0.00  0.00    +0.000 A 
ATOM     11  C   UNL     1       3.303   4.054  18.060  0.00  0.00    +0.000 A 
ATOM     12  C   UNL     1       1.851   3.901  18.228  0.00  0.00    +0.000 C 
ATOM     13  O   UNL     1       1.074   4.354  17.391  0.00  0.00    +0.000 OA
ENDROOT
BRANCH   1  14
ATOM     14  N   UNL     1      -0.051   3.033  19.483  0.00  0.00    +0.000 N 
ATOM     15  H   UNL     1      -0.357   2.133  19.850  0.00  0.00    +0.000 HD
ATOM     16  H   UNL     1      -0.526   3.842  19.894  0.00  0.00    +0.000 HD
ENDBRANCH   1  14
BRANCH   9  17
ATOM     17  S   UNL     1       5.758   5.407  15.166  0.00  0.00    +0.000 S 
ATOM     18  O   UNL     1       5.579   4.406  14.141  0.00  0.00    +0.000 OA
ATOM     19  O   UNL     1       5.296   6.768  15.025  0.00  0.00    +0.000 OA
BRANCH  17  20
ATOM     20  N   UNL     1       7.404   5.515  15.461  0.00  0.00    +0.000 NA
ATOM     21  H   UNL     1       7.722   4.713  16.007  0.00  0.00    +0.000 HD
ATOM     22  H   UNL     1       7.913   5.650  14.587  0.00  0.00    +0.000 HD
ENDBRANCH  17  20
ENDBRANCH   9  17
TORSDOF 3
ENDMDL
