MODEL 1
REMARK VINA RESULT:      -7.8      0.000      0.000
REMARK  Name = 
REMARK  7 active torsions:
REMARK  status: ('A' for Active; 'I' for Inactive)
REMARK    1  A    between atoms: C_1  and  C_2
REMARK    2  A    between atoms: C_5  and  C_6
REMARK    3  A    between atoms: C_9  and  S_10
REMARK    4  A    between atoms: S_10  and  N_13
REMARK    5  A    between atoms: N_13  and  C_14
REMARK    6  A    between atoms: C_14  and  C_15
REMARK    7  A    between atoms: C_22  and  C_23
REMARK                            x       y       z     vdW  Elec       q    Type
REMARK                         _______ _______ _______ _____ _____    ______ ____
ROOT
ATOM      1  C   UNL     1       2.131   5.821  20.063  0.00  0.00    +0.000 A 
ATOM      2  C   UNL     1       2.194   4.927  21.114  0.00  0.00    +0.000 A 
ATOM      3  C   UNL     1       2.584   3.683  20.570  0.00  0.00    +0.000 A 
ATOM      4  C   UNL     1       2.766   3.851  19.209  0.00  0.00    +0.000 A 
ATOM      5  O   UNL     1       2.465   5.163  18.907  0.00  0.00    +0.000 OA
ENDROOT
BRANCH   1  10
ATOM      6  C   UNL     1       1.113  10.688  19.179  0.00  0.00    +0.000 C 
ATOM      7  C   UNL     1       1.281   9.336  19.758  0.00  0.00    +0.000 A 
ATOM      8  N   UNL     1       0.800   9.059  20.973  0.00  0.00    +0.000 NA
ATOM      9  O   UNL     1       1.091   7.730  21.195  0.00  0.00    +0.000 OA
ATOM     10  C   UNL     1       1.747   7.200  20.116  0.00  0.00    +0.000 A 
ATOM     11  C   UNL     1       1.897   8.196  19.169  0.00  0.00    +0.000 A 
ATOM     12  C   UNL     1       2.508   8.106  17.823  0.00  0.00    +0.000 C 
ENDBRANCH   1  10
BRANCH   4  13
ATOM     13  S   UNL     1       3.254   2.683  17.926  0.00  0.00    +0.000 S 
ATOM     14  O   UNL     1       3.201   1.386  18.554  0.00  0.00    +0.000 OA
ATOM     15  O   UNL     1       2.414   3.037  16.800  0.00  0.00    +0.000 OA
BRANCH  13  16
ATOM     16  N   UNL     1       4.856   3.039  17.510  0.00  0.00    +0.000 NA
ATOM     17  H   UNL     1       5.277   2.291  16.964  0.00  0.00    +0.000 HD
BRANCH  16  18
ATOM     18  C   UNL     1       4.994   4.346  16.832  0.00  0.00    +0.000 C 
BRANCH  18  19
ATOM     19  C   UNL     1       6.055   5.226  17.456  0.00  0.00    +0.000 A 
ATOM     20  C   UNL     1       6.354   6.457  16.879  0.00  0.00    +0.000 A 
ATOM     21  C   UNL     1       7.349   7.245  17.449  0.00  0.00    +0.000 A 
ATOM     22  C   UNL     1       8.003   6.798  18.589  0.00  0.00    +0.000 A 
ATOM     23  C   UNL     1       7.628   5.571  19.118  0.00  0.00    +0.000 A 
ATOM     24  N   UNL     1       6.675   4.776  18.579  0.00  0.00    +0.000 NA
ENDBRANCH  18  19
ENDBRANCH  16  18
ENDBRANCH  13  16
ENDBRANCH   4  13
TORSDOF 5
ENDMDL
MODEL 2
REMARK VINA RESULT:      -7.7      4.532      7.082
REMARK  Name = 
REMARK  7 active torsions:
REMARK  status: ('A' for Active; 'I' for Inactive)
REMARK    1  A    between atoms: C_1  and  C_2
REMARK    2  A    between atoms: C_5  and  C_6
REMARK    3  A    between atoms: C_9  and  S_10
REMARK    4  A    between atoms: S_10  and  N_13
REMARK    5  A    between atoms: N_13  and  C_14
REMARK    6  A    between atoms: C_14  and  C_15
REMARK    7  A    between atoms: C_22  and  C_23
REMARK                            x       y       z     vdW  Elec       q    Type
REMARK                         _______ _______ _______ _____ _____    ______ ____
ROOT
ATOM      1  C   UNL     1       8.700   9.265  18.742  0.00  0.00    +0.000 A 
ATOM      2  C   UNL     1       8.031   9.335  17.536  0.00  0.00    +0.000 A 
ATOM      3  C   UNL     1       7.537   8.038  17.267  0.00  0.00    +0.000 A 
ATOM      4  C   UNL     1       7.901   7.217  18.320  0.00  0.00    +0.000 A 
ATOM      5  O   UNL     1       8.632   7.978  19.208  0.00  0.00    +0.000 OA
ENDROOT
BRANCH   1  10
ATOM      6  C   UNL     1      11.478  13.272  20.055  0.00  0.00    +0.000 C 
ATOM      7  C   UNL     1      10.602  12.080  20.018  0.00  0.00    +0.000 A 
ATOM      8  N   UNL     1       9.980  11.666  21.125  0.00  0.00    +0.000 NA
ATOM      9  O   UNL     1       9.233  10.572  20.746  0.00  0.00    +0.000 OA
ATOM     10  C   UNL     1       9.398  10.322  19.410  0.00  0.00    +0.000 A 
ATOM     11  C   UNL     1      10.274  11.263  18.900  0.00  0.00    +0.000 A 
ATOM     12  C   UNL     1      10.738  11.431  17.504  0.00  0.00    +0.000 C 
ENDBRANCH   1  10
BRANCH   4  13
ATOM     13  S   UNL     1       7.602   5.463  18.612  0.00  0.00    +0.000 S 
ATOM     14  O   UNL     1       7.937   4.810  17.371  0.00  0.00    +0.000 OA
ATOM     15  O   UNL     1       8.307   5.195  19.848  0.00  0.00    +0.000 OA
BRANCH  13  16
ATOM     16  N   UNL     1       5.945   5.283  18.910  0.00  0.00    +0.000 NA
ATOM     17  H   UNL     1       5.591   6.019  19.519  0.00  0.00    +0.000 HD
BRANCH  16  18
ATOM     18  C   UNL     1       5.147   5.178  17.669  0.00  0.00    +0.000 C 
BRANCH  18  19
ATOM     19  C   UNL     1       3.914   4.317  17.831  0.00  0.00    +0.000 A 
ATOM     20  C   UNL     1       2.669   4.920  17.986  0.00  0.00    +0.000 A 
ATOM     21  C   UNL     1       1.547   4.116  18.159  0.00  0.00    +0.000 A 
ATOM     22  C   UNL     1       1.690   2.736  18.149  0.00  0.00    +0.000 A 
ATOM     23  C   UNL     1       2.961   2.212  17.962  0.00  0.00    +0.000 A 
ATOM     24  N   UNL     1       4.074   2.967  17.806  0.00  0.00    +0.000 NA
ENDBRANCH  18  19
ENDBRANCH  16  18
ENDBRANCH  13  16
ENDBRANCH   4  13
TORSDOF 5
ENDMDL
MODEL 3
REMARK VINA RESULT:      -7.6      2.324      4.199
REMARK  Name = 
REMARK  7 active torsions:
REMARK  status: ('A' for Active; 'I' for Inactive)
REMARK    1  A    between atoms: C_1  and  C_2
REMARK    2  A    between atoms: C_5  and  C_6
REMARK    3  A    between atoms: C_9  and  S_10
REMARK    4  A    between atoms: S_10  and  N_13
REMARK    5  A    between atoms: N_13  and  C_14
REMARK    6  A    between atoms: C_14  and  C_15
REMARK    7  A    between atoms: C_22  and  C_23
REMARK                            x       y       z     vdW  Elec       q    Type
REMARK                         _______ _______ _______ _____ _____    ______ ____
ROOT
ATOM      1  C   UNL     1       3.169   7.228  18.594  0.00  0.00    +0.000 A 
ATOM      2  C   UNL     1       3.396   7.387  17.241  0.00  0.00    +0.000 A 
ATOM      3  C   UNL     1       4.495   6.562  16.911  0.00  0.00    +0.000 A 
ATOM      4  C   UNL     1       4.898   5.909  18.063  0.00  0.00    +0.000 A 
ATOM      5  O   UNL     1       4.090   6.343  19.092  0.00  0.00    +0.000 OA
ENDROOT
BRANCH   1  10
ATOM      6  C   UNL     1      -0.427  10.215  20.504  0.00  0.00    +0.000 C 
ATOM      7  C   UNL     1       0.596   9.174  20.255  0.00  0.00    +0.000 A 
ATOM      8  N   UNL     1       0.773   8.181  21.131  0.00  0.00    +0.000 NA
ATOM      9  O   UNL     1       1.759   7.382  20.593  0.00  0.00    +0.000 OA
ATOM     10  C   UNL     1       2.179   7.887  19.392  0.00  0.00    +0.000 A 
ATOM     11  C   UNL     1       1.464   9.042  19.135  0.00  0.00    +0.000 A 
ATOM     12  C   UNL     1       1.532   9.926  17.949  0.00  0.00    +0.000 C 
ENDBRANCH   1  10
BRANCH   4  13
ATOM     13  S   UNL     1       6.230   4.728  18.350  0.00  0.00    +0.000 S 
ATOM     14  O   UNL     1       6.795   4.471  17.049  0.00  0.00    +0.000 OA
ATOM     15  O   UNL     1       6.994   5.325  19.427  0.00  0.00    +0.000 OA
BRANCH  13  16
ATOM     16  N   UNL     1       5.519   3.310  18.943  0.00  0.00    +0.000 NA
ATOM     17  H   UNL     1       5.498   3.298  19.960  0.00  0.00    +0.000 HD
BRANCH  16  18
ATOM     18  C   UNL     1       4.178   3.059  18.371  0.00  0.00    +0.000 C 
BRANCH  18  19
ATOM     19  C   UNL     1       3.085   3.039  19.416  0.00  0.00    +0.000 A 
ATOM     20  C   UNL     1       1.815   3.511  19.093  0.00  0.00    +0.000 A 
ATOM     21  C   UNL     1       0.827   3.509  20.071  0.00  0.00    +0.000 A 
ATOM     22  C   UNL     1       1.119   3.018  21.335  0.00  0.00    +0.000 A 
ATOM     23  C   UNL     1       2.401   2.541  21.571  0.00  0.00    +0.000 A 
ATOM     24  N   UNL     1       3.389   2.543  20.645  0.00  0.00    +0.000 NA
ENDBRANCH  18  19
ENDBRANCH  16  18
ENDBRANCH  13  16
ENDBRANCH   4  13
TORSDOF 5
ENDMDL
MODEL 4
REMARK VINA RESULT:      -7.5      1.456      1.820
REMARK  Name = 
REMARK  7 active torsions:
REMARK  status: ('A' for Active; 'I' for Inactive)
REMARK    1  A    between atoms: C_1  and  C_2
REMARK    2  A    between atoms: C_5  and  C_6
REMARK    3  A    between atoms: C_9  and  S_10
REMARK    4  A    between atoms: S_10  and  N_13
REMARK    5  A    between atoms: N_13  and  C_14
REMARK    6  A    between atoms: C_14  and  C_15
REMARK    7  A    between atoms: C_22  and  C_23
REMARK                            x       y       z     vdW  Elec       q    Type
REMARK                         _______ _______ _______ _____ _____    ______ ____
ROOT
ATOM      1  C   UNL     1       2.003   6.929  19.308  0.00  0.00    +0.000 A 
ATOM      2  C   UNL     1       1.835   6.405  20.576  0.00  0.00    +0.000 A 
ATOM      3  C   UNL     1       2.044   5.011  20.473  0.00  0.00    +0.000 A 
ATOM      4  C   UNL     1       2.351   4.723  19.155  0.00  0.00    +0.000 A 
ATOM      5  O   UNL     1       2.302   5.906  18.447  0.00  0.00    +0.000 OA
ENDROOT
BRANCH   1  10
ATOM      6  C   UNL     1       0.942  11.847  18.872  0.00  0.00    +0.000 C 
ATOM      7  C   UNL     1       1.416  10.456  18.690  0.00  0.00    +0.000 A 
ATOM      8  N   UNL     1       2.229  10.149  17.676  0.00  0.00    +0.000 NA
ATOM      9  O   UNL     1       2.502   8.805  17.811  0.00  0.00    +0.000 OA
ATOM     10  C   UNL     1       1.858   8.296  18.908  0.00  0.00    +0.000 A 
ATOM     11  C   UNL     1       1.143   9.319  19.502  0.00  0.00    +0.000 A 
ATOM     12  C   UNL     1       0.317   9.277  20.731  0.00  0.00    +0.000 C 
ENDBRANCH   1  10
BRANCH   4  13
ATOM     13  S   UNL     1       2.723   3.158  18.341  0.00  0.00    +0.000 S 
ATOM     14  O   UNL     1       2.364   2.139  19.296  0.00  0.00    +0.000 OA
ATOM     15  O   UNL     1       2.076   3.278  17.050  0.00  0.00    +0.000 OA
BRANCH  13  16
ATOM     16  N   UNL     1       4.396   3.117  18.081  0.00  0.00    +0.000 NA
ATOM     17  H   UNL     1       4.642   3.491  17.167  0.00  0.00    +0.000 HD
BRANCH  16  18
ATOM     18  C   UNL     1       5.160   3.779  19.159  0.00  0.00    +0.000 C 
BRANCH  18  19
ATOM     19  C   UNL     1       6.005   4.931  18.663  0.00  0.00    +0.000 A 
ATOM     20  C   UNL     1       5.604   5.643  17.536  0.00  0.00    +0.000 A 
ATOM     21  C   UNL     1       6.404   6.684  17.077  0.00  0.00    +0.000 A 
ATOM     22  C   UNL     1       7.568   7.003  17.761  0.00  0.00    +0.000 A 
ATOM     23  C   UNL     1       7.885   6.263  18.892  0.00  0.00    +0.000 A 
ATOM     24  N   UNL     1       7.135   5.235  19.356  0.00  0.00    +0.000 NA
ENDBRANCH  18  19
ENDBRANCH  16  18
ENDBRANCH  13  16
ENDBRANCH   4  13
TORSDOF 5
ENDMDL
MODEL 5
REMARK VINA RESULT:      -7.5      1.890      2.562
REMARK  Name = 
REMARK  7 active torsions:
REMARK  status: ('A' for Active; 'I' for Inactive)
REMARK    1  A    between atoms: C_1  and  C_2
REMARK    2  A    between atoms: C_5  and  C_6
REMARK    3  A    between atoms: C_9  and  S_10
REMARK    4  A    between atoms: S_10  and  N_13
REMARK    5  A    between atoms: N_13  and  C_14
REMARK    6  A    between atoms: C_14  and  C_15
REMARK    7  A    between atoms: C_22  and  C_23
REMARK                            x       y       z     vdW  Elec       q    Type
REMARK                         _______ _______ _______ _____ _____    ______ ____
ROOT
ATOM      1  C   UNL     1       1.531   7.733  20.495  0.00  0.00    +0.000 A 
ATOM      2  C   UNL     1       2.221   7.875  19.307  0.00  0.00    +0.000 A 
ATOM      3  C   UNL     1       2.598   6.576  18.896  0.00  0.00    +0.000 A 
ATOM      4  C   UNL     1       2.115   5.676  19.830  0.00  0.00    +0.000 A 
ATOM      5  O   UNL     1       1.480   6.401  20.817  0.00  0.00    +0.000 OA
ENDROOT
BRANCH   1  10
ATOM      6  C   UNL     1      -1.047  11.605  22.460  0.00  0.00    +0.000 C 
ATOM      7  C   UNL     1      -0.139  10.465  22.203  0.00  0.00    +0.000 A 
ATOM      8  N   UNL     1       0.596   9.953  23.193  0.00  0.00    +0.000 NA
ATOM      9  O   UNL     1       1.293   8.903  22.636  0.00  0.00    +0.000 OA
ATOM     10  C   UNL     1       0.980   8.774  21.309  0.00  0.00    +0.000 A 
ATOM     11  C   UNL     1       0.067   9.761  20.983  0.00  0.00    +0.000 A 
ATOM     12  C   UNL     1      -0.596  10.012  19.683  0.00  0.00    +0.000 C 
ENDBRANCH   1  10
BRANCH   4  13
ATOM     13  S   UNL     1       2.241   3.880  19.919  0.00  0.00    +0.000 S 
ATOM     14  O   UNL     1       1.752   3.531  21.230  0.00  0.00    +0.000 OA
ATOM     15  O   UNL     1       1.597   3.429  18.702  0.00  0.00    +0.000 OA
BRANCH  13  16
ATOM     16  N   UNL     1       3.885   3.490  19.811  0.00  0.00    +0.000 NA
ATOM     17  H   UNL     1       4.117   2.683  20.386  0.00  0.00    +0.000 HD
BRANCH  16  18
ATOM     18  C   UNL     1       4.340   3.308  18.416  0.00  0.00    +0.000 C 
BRANCH  18  19
ATOM     19  C   UNL     1       5.343   4.354  17.981  0.00  0.00    +0.000 A 
ATOM     20  C   UNL     1       5.156   5.028  16.777  0.00  0.00    +0.000 A 
ATOM     21  C   UNL     1       6.099   5.969  16.378  0.00  0.00    +0.000 A 
ATOM     22  C   UNL     1       7.189   6.230  17.194  0.00  0.00    +0.000 A 
ATOM     23  C   UNL     1       7.290   5.535  18.391  0.00  0.00    +0.000 A 
ATOM     24  N   UNL     1       6.397   4.604  18.801  0.00  0.00    +0.000 NA
ENDBRANCH  18  19
ENDBRANCH  16  18
ENDBRANCH  13  16
ENDBRANCH   4  13
TORSDOF 5
ENDMDL
MODEL 6
REMARK VINA RESULT:      -7.5      4.567      7.154
REMARK  Name = 
REMARK  7 active torsions:
REMARK  status: ('A' for Active; 'I' for Inactive)
REMARK    1  A    between atoms: C_1  and  C_2
REMARK    2  A    between atoms: C_5  and  C_6
REMARK    3  A    between atoms: C_9  and  S_10
REMARK    4  A    between atoms: S_10  and  N_13
REMARK    5  A    between atoms: N_13  and  C_14
REMARK    6  A    between atoms: C_14  and  C_15
REMARK    7  A    between atoms: C_22  and  C_23
REMARK                            x       y       z     vdW  Elec       q    Type
REMARK                         _______ _______ _______ _____ _____    ______ ____
ROOT
ATOM      1  C   UNL     1       8.744   9.276  18.808  0.00  0.00    +0.000 A 
ATOM      2  C   UNL     1       8.026   9.317  17.627  0.00  0.00    +0.000 A 
ATOM      3  C   UNL     1       7.555   8.006  17.390  0.00  0.00    +0.000 A 
ATOM      4  C   UNL     1       7.979   7.205  18.435  0.00  0.00    +0.000 A 
ATOM      5  O   UNL     1       8.725   7.992  19.287  0.00  0.00    +0.000 OA
ENDROOT
BRANCH   1  10
ATOM      6  C   UNL     1      11.524  13.324  19.981  0.00  0.00    +0.000 C 
ATOM      7  C   UNL     1      10.646  12.133  19.985  0.00  0.00    +0.000 A 
ATOM      8  N   UNL     1      10.019  11.762  21.104  0.00  0.00    +0.000 NA
ATOM      9  O   UNL     1       9.271  10.656  20.764  0.00  0.00    +0.000 OA
ATOM     10  C   UNL     1       9.441  10.356  19.438  0.00  0.00    +0.000 A 
ATOM     11  C   UNL     1      10.321  11.275  18.897  0.00  0.00    +0.000 A 
ATOM     12  C   UNL     1      10.790  11.390  17.497  0.00  0.00    +0.000 C 
ENDBRANCH   1  10
BRANCH   4  13
ATOM     13  S   UNL     1       7.734   5.447  18.754  0.00  0.00    +0.000 S 
ATOM     14  O   UNL     1       7.645   4.835  17.452  0.00  0.00    +0.000 OA
ATOM     15  O   UNL     1       8.782   5.120  19.699  0.00  0.00    +0.000 OA
BRANCH  13  16
ATOM     16  N   UNL     1       6.249   5.288  19.551  0.00  0.00    +0.000 NA
ATOM     17  H   UNL     1       5.936   6.173  19.943  0.00  0.00    +0.000 HD
BRANCH  16  18
ATOM     18  C   UNL     1       5.206   4.674  18.701  0.00  0.00    +0.000 C 
BRANCH  18  19
ATOM     19  C   UNL     1       3.931   4.372  19.457  0.00  0.00    +0.000 A 
ATOM     20  C   UNL     1       3.032   5.400  19.729  0.00  0.00    +0.000 A 
ATOM     21  C   UNL     1       1.876   5.113  20.446  0.00  0.00    +0.000 A 
ATOM     22  C   UNL     1       1.633   3.809  20.854  0.00  0.00    +0.000 A 
ATOM     23  C   UNL     1       2.564   2.836  20.520  0.00  0.00    +0.000 A 
ATOM     24  N   UNL     1       3.706   3.086  19.836  0.00  0.00    +0.000 NA
ENDBRANCH  18  19
ENDBRANCH  16  18
ENDBRANCH  13  16
ENDBRANCH   4  13
TORSDOF 5
ENDMDL
MODEL 7
REMARK VINA RESULT:      -7.4      3.249      3.999
REMARK  Name = 
REMARK  7 active torsions:
REMARK  status: ('A' for Active; 'I' for Inactive)
REMARK    1  A    between atoms: C_1  and  C_2
REMARK    2  A    between atoms: C_5  and  C_6
REMARK    3  A    between atoms: C_9  and  S_10
REMARK    4  A    between atoms: S_10  and  N_13
REMARK    5  A    between atoms: N_13  and  C_14
REMARK    6  A    between atoms: C_14  and  C_15
REMARK    7  A    between atoms: C_22  and  C_23
REMARK                            x       y       z     vdW  Elec       q    Type
REMARK                         _______ _______ _______ _____ _____    ______ ____
ROOT
ATOM      1  C   UNL     1       3.259   6.875  18.601  0.00  0.00    +0.000 A 
ATOM      2  C   UNL     1       2.979   5.602  19.060  0.00  0.00    +0.000 A 
ATOM      3  C   UNL     1       4.167   4.849  18.925  0.00  0.00    +0.000 A 
ATOM      4  C   UNL     1       5.143   5.682  18.406  0.00  0.00    +0.000 A 
ATOM      5  O   UNL     1       4.567   6.916  18.193  0.00  0.00    +0.000 OA
ENDROOT
BRANCH   1  10
ATOM      6  C   UNL     1      -0.030  10.625  19.387  0.00  0.00    +0.000 C 
ATOM      7  C   UNL     1       0.921   9.641  18.823  0.00  0.00    +0.000 A 
ATOM      8  N   UNL     1       1.318   9.741  17.552  0.00  0.00    +0.000 NA
ATOM      9  O   UNL     1       2.210   8.708  17.358  0.00  0.00    +0.000 OA
ATOM     10  C   UNL     1       2.356   7.983  18.509  0.00  0.00    +0.000 A 
ATOM     11  C   UNL     1       1.543   8.541  19.478  0.00  0.00    +0.000 A 
ATOM     12  C   UNL     1       1.380   8.136  20.893  0.00  0.00    +0.000 C 
ENDBRANCH   1  10
BRANCH   4  13
ATOM     13  S   UNL     1       6.868   5.367  17.986  0.00  0.00    +0.000 S 
ATOM     14  O   UNL     1       7.333   6.579  17.360  0.00  0.00    +0.000 OA
ATOM     15  O   UNL     1       7.436   4.860  19.219  0.00  0.00    +0.000 OA
BRANCH  13  16
ATOM     16  N   UNL     1       6.883   4.108  16.854  0.00  0.00    +0.000 NA
ATOM     17  H   UNL     1       6.819   3.198  17.304  0.00  0.00    +0.000 HD
BRANCH  16  18
ATOM     18  C   UNL     1       5.851   4.268  15.807  0.00  0.00    +0.000 C 
BRANCH  18  19
ATOM     19  C   UNL     1       6.434   4.388  14.416  0.00  0.00    +0.000 A 
ATOM     20  C   UNL     1       5.917   3.609  13.384  0.00  0.00    +0.000 A 
ATOM     21  C   UNL     1       6.479   3.712  12.116  0.00  0.00    +0.000 A 
ATOM     22  C   UNL     1       7.523   4.601  11.903  0.00  0.00    +0.000 A 
ATOM     23  C   UNL     1       7.964   5.360  12.977  0.00  0.00    +0.000 A 
ATOM     24  N   UNL     1       7.448   5.273  14.226  0.00  0.00    +0.000 NA
ENDBRANCH  18  19
ENDBRANCH  16  18
ENDBRANCH  13  16
ENDBRANCH   4  13
TORSDOF 5
ENDMDL
MODEL 8
REMARK VINA RESULT:      -7.4      1.936      2.194
REMARK  Name = 
REMARK  7 active torsions:
REMARK  status: ('A' for Active; 'I' for Inactive)
REMARK    1  A    between atoms: C_1  and  C_2
REMARK    2  A    between atoms: C_5  and  C_6
REMARK    3  A    between atoms: C_9  and  S_10
REMARK    4  A    between atoms: S_10  and  N_13
REMARK    5  A    between atoms: N_13  and  C_14
REMARK    6  A    between atoms: C_14  and  C_15
REMARK    7  A    between atoms: C_22  and  C_23
REMARK                            x       y       z     vdW  Elec       q    Type
REMARK                         _______ _______ _______ _____ _____    ______ ____
ROOT
ATOM      1  C   UNL     1       2.072   5.956  20.237  0.00  0.00    +0.000 A 
ATOM      2  C   UNL     1       1.259   4.910  20.629  0.00  0.00    +0.000 A 
ATOM      3  C   UNL     1       2.013   3.725  20.469  0.00  0.00    +0.000 A 
ATOM      4  C   UNL     1       3.267   4.078  20.001  0.00  0.00    +0.000 A 
ATOM      5  O   UNL     1       3.282   5.448  19.843  0.00  0.00    +0.000 OA
ENDROOT
BRANCH   1  10
ATOM      6  C   UNL     1       1.158  10.764  18.991  0.00  0.00    +0.000 C 
ATOM      7  C   UNL     1       1.317   9.461  19.675  0.00  0.00    +0.000 A 
ATOM      8  N   UNL     1       0.895   9.305  20.933  0.00  0.00    +0.000 NA
ATOM      9  O   UNL     1       1.157   7.991  21.253  0.00  0.00    +0.000 OA
ATOM     10  C   UNL     1       1.734   7.347  20.191  0.00  0.00    +0.000 A 
ATOM     11  C   UNL     1       1.862   8.254  19.155  0.00  0.00    +0.000 A 
ATOM     12  C   UNL     1       2.394   8.028  17.791  0.00  0.00    +0.000 C 
ENDBRANCH   1  10
BRANCH   4  13
ATOM     13  S   UNL     1       4.701   3.069  19.583  0.00  0.00    +0.000 S 
ATOM     14  O   UNL     1       5.787   4.004  19.420  0.00  0.00    +0.000 OA
ATOM     15  O   UNL     1       4.707   2.038  20.600  0.00  0.00    +0.000 OA
BRANCH  13  16
ATOM     16  N   UNL     1       4.373   2.329  18.096  0.00  0.00    +0.000 NA
ATOM     17  H   UNL     1       3.821   1.481  18.213  0.00  0.00    +0.000 HD
BRANCH  16  18
ATOM     18  C   UNL     1       3.749   3.250  17.122  0.00  0.00    +0.000 C 
BRANCH  18  19
ATOM     19  C   UNL     1       4.759   4.094  16.377  0.00  0.00    +0.000 A 
ATOM     20  C   UNL     1       4.690   5.482  16.459  0.00  0.00    +0.000 A 
ATOM     21  C   UNL     1       5.610   6.246  15.748  0.00  0.00    +0.000 A 
ATOM     22  C   UNL     1       6.585   5.610  14.993  0.00  0.00    +0.000 A 
ATOM     23  C   UNL     1       6.602   4.222  14.983  0.00  0.00    +0.000 A 
ATOM     24  N   UNL     1       5.713   3.451  15.653  0.00  0.00    +0.000 NA
ENDBRANCH  18  19
ENDBRANCH  16  18
ENDBRANCH  13  16
ENDBRANCH   4  13
TORSDOF 5
ENDMDL
MODEL 9
REMARK VINA RESULT:      -7.4      3.545      5.211
REMARK  Name = 
REMARK  7 active torsions:
REMARK  status: ('A' for Active; 'I' for Inactive)
REMARK    1  A    between atoms: C_1  and  C_2
REMARK    2  A    between atoms: C_5  and  C_6
REMARK    3  A    between atoms: C_9  and  S_10
REMARK    4  A    between atoms: S_10  and  N_13
REMARK    5  A    between atoms: N_13  and  C_14
REMARK    6  A    between atoms: C_14  and  C_15
REMARK    7  A    between atoms: C_22  and  C_23
REMARK                            x       y       z     vdW  Elec       q    Type
REMARK                         _______ _______ _______ _____ _____    ______ ____
ROOT
ATOM      1  C   UNL     1       3.510   5.932  18.353  0.00  0.00    +0.000 A 
ATOM      2  C   UNL     1       3.274   7.116  17.682  0.00  0.00    +0.000 A 
ATOM      3  C   UNL     1       4.537   7.645  17.332  0.00  0.00    +0.000 A 
ATOM      4  C   UNL     1       5.507   6.766  17.780  0.00  0.00    +0.000 A 
ATOM      5  O   UNL     1       4.864   5.729  18.424  0.00  0.00    +0.000 OA
ENDROOT
BRANCH   1  10
ATOM      6  C   UNL     1       0.429   2.127  19.589  0.00  0.00    +0.000 C 
ATOM      7  C   UNL     1       1.180   3.400  19.504  0.00  0.00    +0.000 A 
ATOM      8  N   UNL     1       1.045   4.326  20.457  0.00  0.00    +0.000 NA
ATOM      9  O   UNL     1       1.889   5.355  20.099  0.00  0.00    +0.000 OA
ATOM     10  C   UNL     1       2.538   5.053  18.932  0.00  0.00    +0.000 A 
ATOM     11  C   UNL     1       2.110   3.808  18.508  0.00  0.00    +0.000 A 
ATOM     12  C   UNL     1       2.546   3.036  17.322  0.00  0.00    +0.000 C 
ENDBRANCH   1  10
BRANCH   4  13
ATOM     13  S   UNL     1       7.305   6.831  17.673  0.00  0.00    +0.000 S 
ATOM     14  O   UNL     1       7.609   8.161  17.205  0.00  0.00    +0.000 OA
ATOM     15  O   UNL     1       7.746   6.340  18.962  0.00  0.00    +0.000 OA
BRANCH  13  16
ATOM     16  N   UNL     1       7.775   5.703  16.500  0.00  0.00    +0.000 NA
ATOM     17  H   UNL     1       8.503   5.083  16.847  0.00  0.00    +0.000 HD
BRANCH  16  18
ATOM     18  C   UNL     1       6.634   4.942  15.948  0.00  0.00    +0.000 C 
BRANCH  18  19
ATOM     19  C   UNL     1       6.773   4.659  14.468  0.00  0.00    +0.000 A 
ATOM     20  C   UNL     1       5.962   3.697  13.873  0.00  0.00    +0.000 A 
ATOM     21  C   UNL     1       6.118   3.430  12.517  0.00  0.00    +0.000 A 
ATOM     22  C   UNL     1       7.059   4.140  11.786  0.00  0.00    +0.000 A 
ATOM     23  C   UNL     1       7.811   5.101  12.447  0.00  0.00    +0.000 A 
ATOM     24  N   UNL     1       7.693   5.374  13.768  0.00  0.00    +0.000 NA
ENDBRANCH  18  19
ENDBRANCH  16  18
ENDBRANCH  13  16
ENDBRANCH   4  13
TORSDOF 5
ENDMDL
