MODEL 1
REMARK VINA RESULT:      -8.0      0.000      0.000
REMARK  Name = 
REMARK  13 active torsions:
REMARK  status: ('A' for Active; 'I' for Inactive)
REMARK    1  A    between atoms: C_1  and  O_2
REMARK    2  A    between atoms: O_2  and  C_3
REMARK    3  A    between atoms: C_3  and  C_5
REMARK    4  A    between atoms: C_5  and  C_6
REMARK    5  A    between atoms: N_15  and  C_16
REMARK    6  A    between atoms: N_15  and  C_17
REMARK    7  A    between atoms: C_17  and  C_18
REMARK    8  A    between atoms: C_18  and  C_19
REMARK    9  A    between atoms: C_19  and  C_20
REMARK   10  A    between atoms: C_20  and  C_21
REMARK   11  A    between atoms: C_21  and  N_22
REMARK   12  A    between atoms: N_23  and  C_24
REMARK   13  A    between atoms: C_27  and  C_28
REMARK                            x       y       z     vdW  Elec       q    Type
REMARK                         _______ _______ _______ _____ _____    ______ ____
ROOT
ATOM      1  C   UNL     1       4.703   4.484  16.216  0.00  0.00    +0.000 C 
ATOM      2  C   UNL     1       5.435   4.474  14.897  0.00  0.00    +0.000 A 
ATOM      3  C   UNL     1       4.885   3.833  13.770  0.00  0.00    +0.000 A 
ATOM      4  C   UNL     1       5.648   3.659  12.620  0.00  0.00    +0.000 A 
ATOM      5  C   UNL     1       6.954   4.139  12.582  0.00  0.00    +0.000 A 
ATOM      6  C   UNL     1       7.476   4.825  13.682  0.00  0.00    +0.000 A 
ATOM      7  C   UNL     1       6.716   5.007  14.840  0.00  0.00    +0.000 A 
ATOM      8  N   UNL     1       7.275   5.695  15.916  0.00  0.00    +0.000 NA
ATOM      9  C   UNL     1       6.570   5.922  16.998  0.00  0.00    +0.000 C 
ATOM     10  N   UNL     1       7.194   6.635  18.024  0.00  0.00    +0.000 N 
ATOM     11  C   UNL     1       6.880   6.443  19.434  0.00  0.00    +0.000 C 
ATOM     12  N   UNL     1       5.252   5.468  17.183  0.00  0.00    +0.000 N 
ENDROOT
BRANCH  12  13
ATOM     13  C   UNL     1       4.211   6.182  17.864  0.00  0.00    +0.000 A 
ATOM     14  C   UNL     1       3.657   5.737  19.068  0.00  0.00    +0.000 A 
ATOM     15  C   UNL     1       2.664   6.472  19.738  0.00  0.00    +0.000 A 
ATOM     16  C   UNL     1       2.208   7.714  19.270  0.00  0.00    +0.000 A 
ATOM     17  C   UNL     1       2.741   8.155  18.058  0.00  0.00    +0.000 A 
ATOM     18  C   UNL     1       3.698   7.396  17.372  0.00  0.00    +0.000 A 
BRANCH  16  19
ATOM     19  C   UNL     1       1.238   8.534  20.021  0.00  0.00    +0.000 A 
ATOM     20  C   UNL     1       0.917   8.224  21.354  0.00  0.00    +0.000 A 
ATOM     21  C   UNL     1      -0.007   8.978  22.079  0.00  0.00    +0.000 A 
ATOM     22  C   UNL     1      -0.619  10.079  21.492  0.00  0.00    +0.000 A 
ATOM     23  C   UNL     1      -0.304  10.428  20.183  0.00  0.00    +0.000 A 
ATOM     24  C   UNL     1       0.612   9.661  19.455  0.00  0.00    +0.000 A 
ENDBRANCH  16  19
ENDBRANCH  12  13
BRANCH   1  25
ATOM     25  C   UNL     1       4.623   3.065  16.791  0.00  0.00    +0.000 C 
BRANCH  25  26
ATOM     26  C   UNL     1       3.285   2.702  17.359  0.00  0.00    +0.000 C 
ATOM     27  O   UNL     1       2.220   3.153  16.956  0.00  0.00    +0.000 OA
BRANCH  26  29
ATOM     28  C   UNL     1       4.099   2.143  19.479  0.00  0.00    +0.000 C 
ATOM     29  O   UNL     1       3.424   1.723  18.296  0.00  0.00    +0.000 OA
ENDBRANCH  26  29
ENDBRANCH  25  26
ENDBRANCH   1  25
BRANCH  10  30
ATOM     30  C   UNL     1       8.299   7.573  17.722  0.00  0.00    +0.000 C 
BRANCH  30  31
ATOM     31  C   UNL     1       7.847   9.037  17.720  0.00  0.00    +0.000 C 
BRANCH  31  32
ATOM     32  C   UNL     1       8.967  10.033  18.054  0.00  0.00    +0.000 C 
BRANCH  32  33
ATOM     33  C   UNL     1       9.249  10.006  19.560  0.00  0.00    +0.000 C 
BRANCH  33  34
ATOM     34  C   UNL     1       9.440  11.403  20.151  0.00  0.00    +0.000 C 
BRANCH  34  35
ATOM     35  N   UNL     1       9.344  11.336  21.607  0.00  0.00    +0.000 NA
ATOM     36  H   UNL     1       9.592  12.238  22.012  0.00  0.00    +0.000 HD
ATOM     37  H   UNL     1      10.022  10.664  21.966  0.00  0.00    +0.000 HD
ENDBRANCH  34  35
ENDBRANCH  33  34
ENDBRANCH  32  33
ENDBRANCH  31  32
ENDBRANCH  30  31
ENDBRANCH  10  30
TORSDOF 11
ENDMDL
MODEL 2
REMARK VINA RESULT:      -8.0      0.912      1.250
REMARK  Name = 
REMARK  13 active torsions:
REMARK  status: ('A' for Active; 'I' for Inactive)
REMARK    1  A    between atoms: C_1  and  O_2
REMARK    2  A    between atoms: O_2  and  C_3
REMARK    3  A    between atoms: C_3  and  C_5
REMARK    4  A    between atoms: C_5  and  C_6
REMARK    5  A    between atoms: N_15  and  C_16
REMARK    6  A    between atoms: N_15  and  C_17
REMARK    7  A    between atoms: C_17  and  C_18
REMARK    8  A    between atoms: C_18  and  C_19
REMARK    9  A    between atoms: C_19  and  C_20
REMARK   10  A    between atoms: C_20  and  C_21
REMARK   11  A    between atoms: C_21  and  N_22
REMARK   12  A    between atoms: N_23  and  C_24
REMARK   13  A    between atoms: C_27  and  C_28
REMARK                            x       y       z     vdW  Elec       q    Type
REMARK                         _______ _______ _______ _____ _____    ______ ____
ROOT
ATOM      1  C   UNL     1       4.687   4.486  16.167  0.00  0.00    +0.000 C 
ATOM      2  C   UNL     1       5.439   4.484  14.860  0.00  0.00    +0.000 A 
ATOM      3  C   UNL     1       4.889   3.885  13.711  0.00  0.00    +0.000 A 
ATOM      4  C   UNL     1       5.665   3.714  12.569  0.00  0.00    +0.000 A 
ATOM      5  C   UNL     1       6.984   4.156  12.562  0.00  0.00    +0.000 A 
ATOM      6  C   UNL     1       7.508   4.803  13.685  0.00  0.00    +0.000 A 
ATOM      7  C   UNL     1       6.736   4.981  14.835  0.00  0.00    +0.000 A 
ATOM      8  N   UNL     1       7.296   5.629  15.935  0.00  0.00    +0.000 NA
ATOM      9  C   UNL     1       6.580   5.852  17.011  0.00  0.00    +0.000 C 
ATOM     10  N   UNL     1       7.208   6.523  18.062  0.00  0.00    +0.000 N 
ATOM     11  C   UNL     1       6.867   6.309  19.463  0.00  0.00    +0.000 C 
ATOM     12  N   UNL     1       5.248   5.432  17.166  0.00  0.00    +0.000 N 
ENDROOT
BRANCH  12  13
ATOM     13  C   UNL     1       4.216   6.160  17.846  0.00  0.00    +0.000 A 
ATOM     14  C   UNL     1       3.652   5.720  19.047  0.00  0.00    +0.000 A 
ATOM     15  C   UNL     1       2.670   6.469  19.718  0.00  0.00    +0.000 A 
ATOM     16  C   UNL     1       2.235   7.720  19.252  0.00  0.00    +0.000 A 
ATOM     17  C   UNL     1       2.778   8.156  18.043  0.00  0.00    +0.000 A 
ATOM     18  C   UNL     1       3.724   7.384  17.357  0.00  0.00    +0.000 A 
BRANCH  16  19
ATOM     19  C   UNL     1       1.276   8.553  20.004  0.00  0.00    +0.000 A 
ATOM     20  C   UNL     1       0.702   9.693  19.415  0.00  0.00    +0.000 A 
ATOM     21  C   UNL     1      -0.197  10.502  20.112  0.00  0.00    +0.000 A 
ATOM     22  C   UNL     1      -0.563  10.176  21.413  0.00  0.00    +0.000 A 
ATOM     23  C   UNL     1      -0.032   9.039  22.015  0.00  0.00    +0.000 A 
ATOM     24  C   UNL     1       0.880   8.240  21.318  0.00  0.00    +0.000 A 
ENDBRANCH  16  19
ENDBRANCH  12  13
BRANCH   1  25
ATOM     25  C   UNL     1       4.557   3.057  16.709  0.00  0.00    +0.000 C 
BRANCH  25  26
ATOM     26  C   UNL     1       3.267   2.779  17.419  0.00  0.00    +0.000 C 
ATOM     27  O   UNL     1       2.159   3.013  16.953  0.00  0.00    +0.000 OA
BRANCH  26  29
ATOM     28  C   UNL     1       2.424   2.173  19.514  0.00  0.00    +0.000 C 
ATOM     29  O   UNL     1       3.509   2.130  18.592  0.00  0.00    +0.000 OA
ENDBRANCH  26  29
ENDBRANCH  25  26
ENDBRANCH   1  25
BRANCH  10  30
ATOM     30  C   UNL     1       8.344   7.435  17.799  0.00  0.00    +0.000 C 
BRANCH  30  31
ATOM     31  C   UNL     1       7.938   8.913  17.842  0.00  0.00    +0.000 C 
BRANCH  31  32
ATOM     32  C   UNL     1       8.822   9.772  18.757  0.00  0.00    +0.000 C 
BRANCH  32  33
ATOM     33  C   UNL     1       9.475  10.893  17.940  0.00  0.00    +0.000 C 
BRANCH  33  34
ATOM     34  C   UNL     1       9.246  12.278  18.545  0.00  0.00    +0.000 C 
BRANCH  34  35
ATOM     35  N   UNL     1       9.114  13.264  17.476  0.00  0.00    +0.000 NA
ATOM     36  H   UNL     1      10.034  13.601  17.200  0.00  0.00    +0.000 HD
ATOM     37  H   UNL     1       8.600  14.075  17.819  0.00  0.00    +0.000 HD
ENDBRANCH  34  35
ENDBRANCH  33  34
ENDBRANCH  32  33
ENDBRANCH  31  32
ENDBRANCH  30  31
ENDBRANCH  10  30
TORSDOF 11
ENDMDL
MODEL 3
REMARK VINA RESULT:      -7.5      5.155      9.541
REMARK  Name = 
REMARK  13 active torsions:
REMARK  status: ('A' for Active; 'I' for Inactive)
REMARK    1  A    between atoms: C_1  and  O_2
REMARK    2  A    between atoms: O_2  and  C_3
REMARK    3  A    between atoms: C_3  and  C_5
REMARK    4  A    between atoms: C_5  and  C_6
REMARK    5  A    between atoms: N_15  and  C_16
REMARK    6  A    between atoms: N_15  and  C_17
REMARK    7  A    between atoms: C_17  and  C_18
REMARK    8  A    between atoms: C_18  and  C_19
REMARK    9  A    between atoms: C_19  and  C_20
REMARK   10  A    between atoms: C_20  and  C_21
REMARK   11  A    between atoms: C_21  and  N_22
REMARK   12  A    between atoms: N_23  and  C_24
REMARK   13  A    between atoms: C_27  and  C_28
REMARK                            x       y       z     vdW  Elec       q    Type
REMARK                         _______ _______ _______ _____ _____    ______ ____
ROOT
ATOM      1  C   UNL     1      -1.482  11.477  18.939  0.00  0.00    +0.000 C 
ATOM      2  C   UNL     1      -2.243  12.450  19.803  0.00  0.00    +0.000 A 
ATOM      3  C   UNL     1      -3.606  12.247  20.092  0.00  0.00    +0.000 A 
ATOM      4  C   UNL     1      -4.347  13.243  20.721  0.00  0.00    +0.000 A 
ATOM      5  C   UNL     1      -3.727  14.436  21.081  0.00  0.00    +0.000 A 
ATOM      6  C   UNL     1      -2.361  14.610  20.844  0.00  0.00    +0.000 A 
ATOM      7  C   UNL     1      -1.609  13.615  20.216  0.00  0.00    +0.000 A 
ATOM      8  N   UNL     1      -0.249  13.829  19.996  0.00  0.00    +0.000 NA
ATOM      9  C   UNL     1       0.491  12.894  19.451  0.00  0.00    +0.000 C 
ATOM     10  N   UNL     1       1.848  13.178  19.281  0.00  0.00    +0.000 N 
ATOM     11  C   UNL     1       2.651  12.622  18.199  0.00  0.00    +0.000 C 
ATOM     12  N   UNL     1      -0.009  11.656  19.011  0.00  0.00    +0.000 N 
ENDROOT
BRANCH  12  13
ATOM     13  C   UNL     1       0.676  10.399  19.101  0.00  0.00    +0.000 A 
ATOM     14  C   UNL     1       0.816   9.704  20.306  0.00  0.00    +0.000 A 
ATOM     15  C   UNL     1       1.457   8.455  20.366  0.00  0.00    +0.000 A 
ATOM     16  C   UNL     1       1.947   7.810  19.220  0.00  0.00    +0.000 A 
ATOM     17  C   UNL     1       1.829   8.507  18.016  0.00  0.00    +0.000 A 
ATOM     18  C   UNL     1       1.229   9.771  17.970  0.00  0.00    +0.000 A 
BRANCH  16  19
ATOM     19  C   UNL     1       2.533   6.456  19.265  0.00  0.00    +0.000 A 
ATOM     20  C   UNL     1       2.090   5.514  20.209  0.00  0.00    +0.000 A 
ATOM     21  C   UNL     1       2.640   4.233  20.278  0.00  0.00    +0.000 A 
ATOM     22  C   UNL     1       3.634   3.853  19.384  0.00  0.00    +0.000 A 
ATOM     23  C   UNL     1       4.076   4.754  18.420  0.00  0.00    +0.000 A 
ATOM     24  C   UNL     1       3.534   6.042  18.365  0.00  0.00    +0.000 A 
ENDBRANCH  16  19
ENDBRANCH  12  13
BRANCH   1  25
ATOM     25  C   UNL     1      -2.015  11.510  17.501  0.00  0.00    +0.000 C 
BRANCH  25  26
ATOM     26  C   UNL     1      -2.621  10.222  17.035  0.00  0.00    +0.000 C 
ATOM     27  O   UNL     1      -3.383   9.536  17.706  0.00  0.00    +0.000 OA
BRANCH  26  29
ATOM     28  C   UNL     1      -3.362  10.225  14.818  0.00  0.00    +0.000 C 
ATOM     29  O   UNL     1      -2.294   9.995  15.732  0.00  0.00    +0.000 OA
ENDBRANCH  26  29
ENDBRANCH  25  26
ENDBRANCH   1  25
BRANCH  10  30
ATOM     30  C   UNL     1       2.526  14.157  20.162  0.00  0.00    +0.000 C 
BRANCH  30  31
ATOM     31  C   UNL     1       3.501  15.062  19.399  0.00  0.00    +0.000 C 
BRANCH  31  32
ATOM     32  C   UNL     1       2.985  16.492  19.190  0.00  0.00    +0.000 C 
BRANCH  32  33
ATOM     33  C   UNL     1       1.784  16.473  18.237  0.00  0.00    +0.000 C 
BRANCH  33  34
ATOM     34  C   UNL     1       0.527  17.082  18.857  0.00  0.00    +0.000 C 
BRANCH  34  35
ATOM     35  N   UNL     1      -0.658  16.530  18.205  0.00  0.00    +0.000 NA
ATOM     36  H   UNL     1      -0.725  16.883  17.252  0.00  0.00    +0.000 HD
ATOM     37  H   UNL     1      -1.497  16.849  18.690  0.00  0.00    +0.000 HD
ENDBRANCH  34  35
ENDBRANCH  33  34
ENDBRANCH  32  33
ENDBRANCH  31  32
ENDBRANCH  30  31
ENDBRANCH  10  30
TORSDOF 11
ENDMDL
MODEL 4
REMARK VINA RESULT:      -7.4      5.377     10.337
REMARK  Name = 
REMARK  13 active torsions:
REMARK  status: ('A' for Active; 'I' for Inactive)
REMARK    1  A    between atoms: C_1  and  O_2
REMARK    2  A    between atoms: O_2  and  C_3
REMARK    3  A    between atoms: C_3  and  C_5
REMARK    4  A    between atoms: C_5  and  C_6
REMARK    5  A    between atoms: N_15  and  C_16
REMARK    6  A    between atoms: N_15  and  C_17
REMARK    7  A    between atoms: C_17  and  C_18
REMARK    8  A    between atoms: C_18  and  C_19
REMARK    9  A    between atoms: C_19  and  C_20
REMARK   10  A    between atoms: C_20  and  C_21
REMARK   11  A    between atoms: C_21  and  N_22
REMARK   12  A    between atoms: N_23  and  C_24
REMARK   13  A    between atoms: C_27  and  C_28
REMARK                            x       y       z     vdW  Elec       q    Type
REMARK                         _______ _______ _______ _____ _____    ______ ____
ROOT
ATOM      1  C   UNL     1       1.241  12.103  20.069  0.00  0.00    +0.000 C 
ATOM      2  C   UNL     1       1.214  13.517  19.545  0.00  0.00    +0.000 A 
ATOM      3  C   UNL     1       2.184  14.455  19.947  0.00  0.00    +0.000 A 
ATOM      4  C   UNL     1       2.041  15.799  19.616  0.00  0.00    +0.000 A 
ATOM      5  C   UNL     1       0.941  16.209  18.869  0.00  0.00    +0.000 A 
ATOM      6  C   UNL     1       0.011  15.266  18.422  0.00  0.00    +0.000 A 
ATOM      7  C   UNL     1       0.148  13.914  18.747  0.00  0.00    +0.000 A 
ATOM      8  N   UNL     1      -0.802  13.005  18.284  0.00  0.00    +0.000 NA
ATOM      9  C   UNL     1      -0.673  11.725  18.534  0.00  0.00    +0.000 C 
ATOM     10  N   UNL     1      -1.657  10.877  18.020  0.00  0.00    +0.000 N 
ATOM     11  C   UNL     1      -2.055   9.633  18.666  0.00  0.00    +0.000 C 
ATOM     12  N   UNL     1       0.369  11.177  19.303  0.00  0.00    +0.000 N 
ENDROOT
BRANCH  12  13
ATOM     13  C   UNL     1       1.015   9.919  19.059  0.00  0.00    +0.000 A 
ATOM     14  C   UNL     1       1.567   9.586  17.819  0.00  0.00    +0.000 A 
ATOM     15  C   UNL     1       2.229   8.364  17.612  0.00  0.00    +0.000 A 
ATOM     16  C   UNL     1       2.419   7.432  18.645  0.00  0.00    +0.000 A 
ATOM     17  C   UNL     1       1.851   7.748  19.880  0.00  0.00    +0.000 A 
ATOM     18  C   UNL     1       1.155   8.949  20.067  0.00  0.00    +0.000 A 
BRANCH  16  19
ATOM     19  C   UNL     1       3.197   6.192  18.457  0.00  0.00    +0.000 A 
ATOM     20  C   UNL     1       2.557   4.941  18.429  0.00  0.00    +0.000 A 
ATOM     21  C   UNL     1       3.275   3.755  18.266  0.00  0.00    +0.000 A 
ATOM     22  C   UNL     1       4.655   3.794  18.102  0.00  0.00    +0.000 A 
ATOM     23  C   UNL     1       5.315   5.018  18.098  0.00  0.00    +0.000 A 
ATOM     24  C   UNL     1       4.594   6.203  18.278  0.00  0.00    +0.000 A 
ENDBRANCH  16  19
ENDBRANCH  12  13
BRANCH   1  25
ATOM     25  C   UNL     1       0.946  12.088  21.575  0.00  0.00    +0.000 C 
BRANCH  25  26
ATOM     26  C   UNL     1      -0.492  11.855  21.921  0.00  0.00    +0.000 C 
ATOM     27  O   UNL     1      -0.958  10.768  22.238  0.00  0.00    +0.000 OA
BRANCH  26  29
ATOM     28  C   UNL     1      -1.802  13.321  23.188  0.00  0.00    +0.000 C 
ATOM     29  O   UNL     1      -1.166  13.039  21.944  0.00  0.00    +0.000 OA
ENDBRANCH  26  29
ENDBRANCH  25  26
ENDBRANCH   1  25
BRANCH  10  30
ATOM     30  C   UNL     1      -2.425  11.262  16.815  0.00  0.00    +0.000 C 
BRANCH  30  31
ATOM     31  C   UNL     1      -2.671  10.082  15.868  0.00  0.00    +0.000 C 
BRANCH  31  32
ATOM     32  C   UNL     1      -3.798  10.324  14.854  0.00  0.00    +0.000 C 
BRANCH  32  33
ATOM     33  C   UNL     1      -3.299  10.003  13.440  0.00  0.00    +0.000 C 
BRANCH  33  34
ATOM     34  C   UNL     1      -4.437   9.837  12.434  0.00  0.00    +0.000 C 
BRANCH  34  35
ATOM     35  N   UNL     1      -3.885   9.667  11.093  0.00  0.00    +0.000 NA
ATOM     36  H   UNL     1      -4.603   9.306  10.467  0.00  0.00    +0.000 HD
ATOM     37  H   UNL     1      -3.143   8.968  11.113  0.00  0.00    +0.000 HD
ENDBRANCH  34  35
ENDBRANCH  33  34
ENDBRANCH  32  33
ENDBRANCH  31  32
ENDBRANCH  30  31
ENDBRANCH  10  30
TORSDOF 11
ENDMDL
MODEL 5
REMARK VINA RESULT:      -7.4      5.474     10.363
REMARK  Name = 
REMARK  13 active torsions:
REMARK  status: ('A' for Active; 'I' for Inactive)
REMARK    1  A    between atoms: C_1  and  O_2
REMARK    2  A    between atoms: O_2  and  C_3
REMARK    3  A    between atoms: C_3  and  C_5
REMARK    4  A    between atoms: C_5  and  C_6
REMARK    5  A    between atoms: N_15  and  C_16
REMARK    6  A    between atoms: N_15  and  C_17
REMARK    7  A    between atoms: C_17  and  C_18
REMARK    8  A    between atoms: C_18  and  C_19
REMARK    9  A    between atoms: C_19  and  C_20
REMARK   10  A    between atoms: C_20  and  C_21
REMARK   11  A    between atoms: C_21  and  N_22
REMARK   12  A    between atoms: N_23  and  C_24
REMARK   13  A    between atoms: C_27  and  C_28
REMARK                            x       y       z     vdW  Elec       q    Type
REMARK                         _______ _______ _______ _____ _____    ______ ____
ROOT
ATOM      1  C   UNL     1       1.079  12.333  20.179  0.00  0.00    +0.000 C 
ATOM      2  C   UNL     1       1.016  13.759  19.691  0.00  0.00    +0.000 A 
ATOM      3  C   UNL     1       1.920  14.727  20.168  0.00  0.00    +0.000 A 
ATOM      4  C   UNL     1       1.733  16.072  19.865  0.00  0.00    +0.000 A 
ATOM      5  C   UNL     1       0.656  16.454  19.071  0.00  0.00    +0.000 A 
ATOM      6  C   UNL     1      -0.206  15.483  18.552  0.00  0.00    +0.000 A 
ATOM      7  C   UNL     1      -0.024  14.130  18.848  0.00  0.00    +0.000 A 
ATOM      8  N   UNL     1      -0.907  13.194  18.312  0.00  0.00    +0.000 NA
ATOM      9  C   UNL     1      -0.733  11.914  18.536  0.00  0.00    +0.000 C 
ATOM     10  N   UNL     1      -1.650  11.038  17.948  0.00  0.00    +0.000 N 
ATOM     11  C   UNL     1      -2.024   9.760  18.540  0.00  0.00    +0.000 C 
ATOM     12  N   UNL     1       0.292  11.392  19.344  0.00  0.00    +0.000 N 
ENDROOT
BRANCH  12  13
ATOM     13  C   UNL     1       1.006  10.171  19.102  0.00  0.00    +0.000 A 
ATOM     14  C   UNL     1       1.044   9.126  20.030  0.00  0.00    +0.000 A 
ATOM     15  C   UNL     1       1.716   7.923  19.757  0.00  0.00    +0.000 A 
ATOM     16  C   UNL     1       2.344   7.680  18.525  0.00  0.00    +0.000 A 
ATOM     17  C   UNL     1       2.329   8.726  17.602  0.00  0.00    +0.000 A 
ATOM     18  C   UNL     1       1.694   9.939  17.897  0.00  0.00    +0.000 A 
BRANCH  16  19
ATOM     19  C   UNL     1       2.968   6.382  18.199  0.00  0.00    +0.000 A 
ATOM     20  C   UNL     1       2.268   5.179  18.402  0.00  0.00    +0.000 A 
ATOM     21  C   UNL     1       2.844   3.941  18.112  0.00  0.00    +0.000 A 
ATOM     22  C   UNL     1       4.130   3.876  17.589  0.00  0.00    +0.000 A 
ATOM     23  C   UNL     1       4.838   5.050  17.351  0.00  0.00    +0.000 A 
ATOM     24  C   UNL     1       4.264   6.288  17.657  0.00  0.00    +0.000 A 
ENDBRANCH  16  19
ENDBRANCH  12  13
BRANCH   1  25
ATOM     25  C   UNL     1       0.708  12.263  21.666  0.00  0.00    +0.000 C 
BRANCH  25  26
ATOM     26  C   UNL     1      -0.765  12.271  21.937  0.00  0.00    +0.000 C 
ATOM     27  O   UNL     1      -1.454  13.283  21.975  0.00  0.00    +0.000 OA
BRANCH  26  29
ATOM     28  C   UNL     1      -0.724  10.256  23.123  0.00  0.00    +0.000 C 
ATOM     29  O   UNL     1      -1.233  10.994  22.015  0.00  0.00    +0.000 OA
ENDBRANCH  26  29
ENDBRANCH  25  26
ENDBRANCH   1  25
BRANCH  10  30
ATOM     30  C   UNL     1      -2.371  11.423  16.714  0.00  0.00    +0.000 C 
BRANCH  30  31
ATOM     31  C   UNL     1      -2.587  10.241  15.763  0.00  0.00    +0.000 C 
BRANCH  31  32
ATOM     32  C   UNL     1      -3.678  10.483  14.710  0.00  0.00    +0.000 C 
BRANCH  32  33
ATOM     33  C   UNL     1      -3.342   9.708  13.431  0.00  0.00    +0.000 C 
BRANCH  33  34
ATOM     34  C   UNL     1      -4.356   9.946  12.312  0.00  0.00    +0.000 C 
BRANCH  34  35
ATOM     35  N   UNL     1      -5.611   9.273  12.637  0.00  0.00    +0.000 NA
ATOM     36  H   UNL     1      -5.524   8.274  12.459  0.00  0.00    +0.000 HD
ATOM     37  H   UNL     1      -6.352   9.611  12.023  0.00  0.00    +0.000 HD
ENDBRANCH  34  35
ENDBRANCH  33  34
ENDBRANCH  32  33
ENDBRANCH  31  32
ENDBRANCH  30  31
ENDBRANCH  10  30
TORSDOF 11
ENDMDL
MODEL 6
REMARK VINA RESULT:      -7.4      5.138     10.144
REMARK  Name = 
REMARK  13 active torsions:
REMARK  status: ('A' for Active; 'I' for Inactive)
REMARK    1  A    between atoms: C_1  and  O_2
REMARK    2  A    between atoms: O_2  and  C_3
REMARK    3  A    between atoms: C_3  and  C_5
REMARK    4  A    between atoms: C_5  and  C_6
REMARK    5  A    between atoms: N_15  and  C_16
REMARK    6  A    between atoms: N_15  and  C_17
REMARK    7  A    between atoms: C_17  and  C_18
REMARK    8  A    between atoms: C_18  and  C_19
REMARK    9  A    between atoms: C_19  and  C_20
REMARK   10  A    between atoms: C_20  and  C_21
REMARK   11  A    between atoms: C_21  and  N_22
REMARK   12  A    between atoms: N_23  and  C_24
REMARK   13  A    between atoms: C_27  and  C_28
REMARK                            x       y       z     vdW  Elec       q    Type
REMARK                         _______ _______ _______ _____ _____    ______ ____
ROOT
ATOM      1  C   UNL     1       1.009  12.025  20.176  0.00  0.00    +0.000 C 
ATOM      2  C   UNL     1       1.035  13.450  19.682  0.00  0.00    +0.000 A 
ATOM      3  C   UNL     1       1.955  14.379  20.204  0.00  0.00    +0.000 A 
ATOM      4  C   UNL     1       1.843  15.730  19.889  0.00  0.00    +0.000 A 
ATOM      5  C   UNL     1       0.827  16.155  19.038  0.00  0.00    +0.000 A 
ATOM      6  C   UNL     1      -0.048  15.221  18.477  0.00  0.00    +0.000 A 
ATOM      7  C   UNL     1       0.057  13.863  18.785  0.00  0.00    +0.000 A 
ATOM      8  N   UNL     1      -0.837  12.964  18.206  0.00  0.00    +0.000 NA
ATOM      9  C   UNL     1      -0.732  11.679  18.441  0.00  0.00    +0.000 C 
ATOM     10  N   UNL     1      -1.654  10.841  17.809  0.00  0.00    +0.000 N 
ATOM     11  C   UNL     1      -2.115   9.584  18.383  0.00  0.00    +0.000 C 
ATOM     12  N   UNL     1       0.226  11.115  19.303  0.00  0.00    +0.000 N 
ENDROOT
BRANCH  12  13
ATOM     13  C   UNL     1       0.896   9.863  19.101  0.00  0.00    +0.000 A 
ATOM     14  C   UNL     1       1.484   9.513  17.883  0.00  0.00    +0.000 A 
ATOM     15  C   UNL     1       2.170   8.298  17.718  0.00  0.00    +0.000 A 
ATOM     16  C   UNL     1       2.348   7.390  18.775  0.00  0.00    +0.000 A 
ATOM     17  C   UNL     1       1.746   7.723  19.988  0.00  0.00    +0.000 A 
ATOM     18  C   UNL     1       1.026   8.916  20.134  0.00  0.00    +0.000 A 
BRANCH  16  19
ATOM     19  C   UNL     1       3.150   6.159  18.632  0.00  0.00    +0.000 A 
ATOM     20  C   UNL     1       2.714   5.111  17.802  0.00  0.00    +0.000 A 
ATOM     21  C   UNL     1       3.451   3.934  17.663  0.00  0.00    +0.000 A 
ATOM     22  C   UNL     1       4.658   3.784  18.335  0.00  0.00    +0.000 A 
ATOM     23  C   UNL     1       5.130   4.813  19.144  0.00  0.00    +0.000 A 
ATOM     24  C   UNL     1       4.381   5.985  19.293  0.00  0.00    +0.000 A 
ENDBRANCH  16  19
ENDBRANCH  12  13
BRANCH   1  25
ATOM     25  C   UNL     1       0.558  11.978  21.642  0.00  0.00    +0.000 C 
BRANCH  25  26
ATOM     26  C   UNL     1      -0.927  11.944  21.831  0.00  0.00    +0.000 C 
ATOM     27  O   UNL     1      -1.677  12.875  21.567  0.00  0.00    +0.000 OA
BRANCH  26  29
ATOM     28  C   UNL     1      -0.471  10.104  23.200  0.00  0.00    +0.000 C 
ATOM     29  O   UNL     1      -1.321  10.700  22.224  0.00  0.00    +0.000 OA
ENDBRANCH  26  29
ENDBRANCH  25  26
ENDBRANCH   1  25
BRANCH  10  30
ATOM     30  C   UNL     1      -2.293  11.253  16.538  0.00  0.00    +0.000 C 
BRANCH  30  31
ATOM     31  C   UNL     1      -3.748  10.783  16.429  0.00  0.00    +0.000 C 
BRANCH  31  32
ATOM     32  C   UNL     1      -4.767  11.790  16.980  0.00  0.00    +0.000 C 
BRANCH  32  33
ATOM     33  C   UNL     1      -5.415  11.227  18.251  0.00  0.00    +0.000 C 
BRANCH  33  34
ATOM     34  C   UNL     1      -5.277  12.163  19.451  0.00  0.00    +0.000 C 
BRANCH  34  35
ATOM     35  N   UNL     1      -3.958  12.790  19.435  0.00  0.00    +0.000 NA
ATOM     36  H   UNL     1      -3.647  12.918  18.474  0.00  0.00    +0.000 HD
ATOM     37  H   UNL     1      -3.278  12.172  19.877  0.00  0.00    +0.000 HD
ENDBRANCH  34  35
ENDBRANCH  33  34
ENDBRANCH  32  33
ENDBRANCH  31  32
ENDBRANCH  30  31
ENDBRANCH  10  30
TORSDOF 11
ENDMDL
MODEL 7
REMARK VINA RESULT:      -7.2      5.127      9.556
REMARK  Name = 
REMARK  13 active torsions:
REMARK  status: ('A' for Active; 'I' for Inactive)
REMARK    1  A    between atoms: C_1  and  O_2
REMARK    2  A    between atoms: O_2  and  C_3
REMARK    3  A    between atoms: C_3  and  C_5
REMARK    4  A    between atoms: C_5  and  C_6
REMARK    5  A    between atoms: N_15  and  C_16
REMARK    6  A    between atoms: N_15  and  C_17
REMARK    7  A    between atoms: C_17  and  C_18
REMARK    8  A    between atoms: C_18  and  C_19
REMARK    9  A    between atoms: C_19  and  C_20
REMARK   10  A    between atoms: C_20  and  C_21
REMARK   11  A    between atoms: C_21  and  N_22
REMARK   12  A    between atoms: N_23  and  C_24
REMARK   13  A    between atoms: C_27  and  C_28
REMARK                            x       y       z     vdW  Elec       q    Type
REMARK                         _______ _______ _______ _____ _____    ______ ____
ROOT
ATOM      1  C   UNL     1      -1.546  11.541  18.885  0.00  0.00    +0.000 C 
ATOM      2  C   UNL     1      -2.271  12.495  19.800  0.00  0.00    +0.000 A 
ATOM      3  C   UNL     1      -3.643  12.332  20.074  0.00  0.00    +0.000 A 
ATOM      4  C   UNL     1      -4.345  13.322  20.755  0.00  0.00    +0.000 A 
ATOM      5  C   UNL     1      -3.679  14.467  21.182  0.00  0.00    +0.000 A 
ATOM      6  C   UNL     1      -2.306  14.597  20.959  0.00  0.00    +0.000 A 
ATOM      7  C   UNL     1      -1.592  13.609  20.278  0.00  0.00    +0.000 A 
ATOM      8  N   UNL     1      -0.223  13.779  20.074  0.00  0.00    +0.000 NA
ATOM      9  C   UNL     1       0.481  12.846  19.480  0.00  0.00    +0.000 C 
ATOM     10  N   UNL     1       1.849  13.083  19.329  0.00  0.00    +0.000 N 
ATOM     11  C   UNL     1       2.633  12.556  18.220  0.00  0.00    +0.000 C 
ATOM     12  N   UNL     1      -0.068  11.655  18.971  0.00  0.00    +0.000 N 
ENDROOT
BRANCH  12  13
ATOM     13  C   UNL     1       0.565  10.368  18.993  0.00  0.00    +0.000 A 
ATOM     14  C   UNL     1       1.033   9.740  17.835  0.00  0.00    +0.000 A 
ATOM     15  C   UNL     1       1.685   8.496  17.884  0.00  0.00    +0.000 A 
ATOM     16  C   UNL     1       1.949   7.837  19.095  0.00  0.00    +0.000 A 
ATOM     17  C   UNL     1       1.466   8.448  20.254  0.00  0.00    +0.000 A 
ATOM     18  C   UNL     1       0.778   9.666  20.194  0.00  0.00    +0.000 A 
BRANCH  16  19
ATOM     19  C   UNL     1       2.718   6.579  19.159  0.00  0.00    +0.000 A 
ATOM     20  C   UNL     1       3.815   6.366  18.305  0.00  0.00    +0.000 A 
ATOM     21  C   UNL     1       4.549   5.178  18.340  0.00  0.00    +0.000 A 
ATOM     22  C   UNL     1       4.215   4.180  19.248  0.00  0.00    +0.000 A 
ATOM     23  C   UNL     1       3.151   4.371  20.124  0.00  0.00    +0.000 A 
ATOM     24  C   UNL     1       2.410   5.556  20.076  0.00  0.00    +0.000 A 
ENDBRANCH  16  19
ENDBRANCH  12  13
BRANCH   1  25
ATOM     25  C   UNL     1      -2.071  11.676  17.450  0.00  0.00    +0.000 C 
BRANCH  25  26
ATOM     26  C   UNL     1      -2.603  10.404  16.864  0.00  0.00    +0.000 C 
ATOM     27  O   UNL     1      -3.202   9.548  17.503  0.00  0.00    +0.000 OA
BRANCH  26  29
ATOM     28  C   UNL     1      -3.615  10.135  14.773  0.00  0.00    +0.000 C 
ATOM     29  O   UNL     1      -2.426  10.401  15.513  0.00  0.00    +0.000 OA
ENDBRANCH  26  29
ENDBRANCH  25  26
ENDBRANCH   1  25
BRANCH  10  30
ATOM     30  C   UNL     1       2.562  13.983  20.264  0.00  0.00    +0.000 C 
BRANCH  30  31
ATOM     31  C   UNL     1       3.777  14.661  19.621  0.00  0.00    +0.000 C 
BRANCH  31  32
ATOM     32  C   UNL     1       3.477  16.051  19.042  0.00  0.00    +0.000 C 
BRANCH  32  33
ATOM     33  C   UNL     1       2.111  16.535  19.543  0.00  0.00    +0.000 C 
BRANCH  33  34
ATOM     34  C   UNL     1       1.219  17.058  18.418  0.00  0.00    +0.000 C 
BRANCH  34  35
ATOM     35  N   UNL     1      -0.079  16.391  18.471  0.00  0.00    +0.000 NA
ATOM     36  H   UNL     1      -0.705  16.901  19.092  0.00  0.00    +0.000 HD
ATOM     37  H   UNL     1       0.029  15.460  18.872  0.00  0.00    +0.000 HD
ENDBRANCH  34  35
ENDBRANCH  33  34
ENDBRANCH  32  33
ENDBRANCH  31  32
ENDBRANCH  30  31
ENDBRANCH  10  30
TORSDOF 11
ENDMDL
MODEL 8
REMARK VINA RESULT:      -7.2      5.220     10.289
REMARK  Name = 
REMARK  13 active torsions:
REMARK  status: ('A' for Active; 'I' for Inactive)
REMARK    1  A    between atoms: C_1  and  O_2
REMARK    2  A    between atoms: O_2  and  C_3
REMARK    3  A    between atoms: C_3  and  C_5
REMARK    4  A    between atoms: C_5  and  C_6
REMARK    5  A    between atoms: N_15  and  C_16
REMARK    6  A    between atoms: N_15  and  C_17
REMARK    7  A    between atoms: C_17  and  C_18
REMARK    8  A    between atoms: C_18  and  C_19
REMARK    9  A    between atoms: C_19  and  C_20
REMARK   10  A    between atoms: C_20  and  C_21
REMARK   11  A    between atoms: C_21  and  N_22
REMARK   12  A    between atoms: N_23  and  C_24
REMARK   13  A    between atoms: C_27  and  C_28
REMARK                            x       y       z     vdW  Elec       q    Type
REMARK                         _______ _______ _______ _____ _____    ______ ____
ROOT
ATOM      1  C   UNL     1       1.125  12.239  20.240  0.00  0.00    +0.000 C 
ATOM      2  C   UNL     1       1.162  13.668  19.760  0.00  0.00    +0.000 A 
ATOM      3  C   UNL     1       2.105  14.579  20.273  0.00  0.00    +0.000 A 
ATOM      4  C   UNL     1       2.007  15.934  19.974  0.00  0.00    +0.000 A 
ATOM      5  C   UNL     1       0.981  16.383  19.147  0.00  0.00    +0.000 A 
ATOM      6  C   UNL     1       0.082  15.467  18.593  0.00  0.00    +0.000 A 
ATOM      7  C   UNL     1       0.174  14.104  18.886  0.00  0.00    +0.000 A 
ATOM      8  N   UNL     1      -0.744  13.224  18.316  0.00  0.00    +0.000 NA
ATOM      9  C   UNL     1      -0.653  11.935  18.535  0.00  0.00    +0.000 C 
ATOM     10  N   UNL     1      -1.599  11.117  17.912  0.00  0.00    +0.000 N 
ATOM     11  C   UNL     1      -2.067   9.861  18.483  0.00  0.00    +0.000 C 
ATOM     12  N   UNL     1       0.312  11.349  19.373  0.00  0.00    +0.000 N 
ENDROOT
BRANCH  12  13
ATOM     13  C   UNL     1       0.961  10.090  19.146  0.00  0.00    +0.000 A 
ATOM     14  C   UNL     1       1.552   9.758  17.924  0.00  0.00    +0.000 A 
ATOM     15  C   UNL     1       2.216   8.534  17.735  0.00  0.00    +0.000 A 
ATOM     16  C   UNL     1       2.369   7.598  18.771  0.00  0.00    +0.000 A 
ATOM     17  C   UNL     1       1.763   7.913  19.988  0.00  0.00    +0.000 A 
ATOM     18  C   UNL     1       1.065   9.115  20.156  0.00  0.00    +0.000 A 
BRANCH  16  19
ATOM     19  C   UNL     1       3.149   6.356  18.604  0.00  0.00    +0.000 A 
ATOM     20  C   UNL     1       4.151   6.265  17.622  0.00  0.00    +0.000 A 
ATOM     21  C   UNL     1       4.891   5.096  17.439  0.00  0.00    +0.000 A 
ATOM     22  C   UNL     1       4.662   3.992  18.252  0.00  0.00    +0.000 A 
ATOM     23  C   UNL     1       3.695   4.059  19.251  0.00  0.00    +0.000 A 
ATOM     24  C   UNL     1       2.945   5.228  19.421  0.00  0.00    +0.000 A 
ENDBRANCH  16  19
ENDBRANCH  12  13
BRANCH   1  25
ATOM     25  C   UNL     1       0.702  12.183  21.713  0.00  0.00    +0.000 C 
BRANCH  25  26
ATOM     26  C   UNL     1      -0.747  11.870  21.929  0.00  0.00    +0.000 C 
ATOM     27  O   UNL     1      -1.172  10.774  22.273  0.00  0.00    +0.000 OA
BRANCH  26  29
ATOM     28  C   UNL     1      -2.833  12.767  21.373  0.00  0.00    +0.000 C 
ATOM     29  O   UNL     1      -1.495  13.001  21.801  0.00  0.00    +0.000 OA
ENDBRANCH  26  29
ENDBRANCH  25  26
ENDBRANCH   1  25
BRANCH  10  30
ATOM     30  C   UNL     1      -2.256  11.551  16.658  0.00  0.00    +0.000 C 
BRANCH  30  31
ATOM     31  C   UNL     1      -3.697  11.042  16.539  0.00  0.00    +0.000 C 
BRANCH  31  32
ATOM     32  C   UNL     1      -4.123  10.714  15.101  0.00  0.00    +0.000 C 
BRANCH  32  33
ATOM     33  C   UNL     1      -3.043   9.860  14.425  0.00  0.00    +0.000 C 
BRANCH  33  34
ATOM     34  C   UNL     1      -3.321   9.621  12.942  0.00  0.00    +0.000 C 
BRANCH  34  35
ATOM     35  N   UNL     1      -2.057   9.515  12.217  0.00  0.00    +0.000 NA
ATOM     36  H   UNL     1      -2.054  10.163  11.431  0.00  0.00    +0.000 HD
ATOM     37  H   UNL     1      -1.965   8.581  11.821  0.00  0.00    +0.000 HD
ENDBRANCH  34  35
ENDBRANCH  33  34
ENDBRANCH  32  33
ENDBRANCH  31  32
ENDBRANCH  30  31
ENDBRANCH  10  30
TORSDOF 11
ENDMDL
MODEL 9
REMARK VINA RESULT:      -7.1      5.374     10.504
REMARK  Name = 
REMARK  13 active torsions:
REMARK  status: ('A' for Active; 'I' for Inactive)
REMARK    1  A    between atoms: C_1  and  O_2
REMARK    2  A    between atoms: O_2  and  C_3
REMARK    3  A    between atoms: C_3  and  C_5
REMARK    4  A    between atoms: C_5  and  C_6
REMARK    5  A    between atoms: N_15  and  C_16
REMARK    6  A    between atoms: N_15  and  C_17
REMARK    7  A    between atoms: C_17  and  C_18
REMARK    8  A    between atoms: C_18  and  C_19
REMARK    9  A    between atoms: C_19  and  C_20
REMARK   10  A    between atoms: C_20  and  C_21
REMARK   11  A    between atoms: C_21  and  N_22
REMARK   12  A    between atoms: N_23  and  C_24
REMARK   13  A    between atoms: C_27  and  C_28
REMARK                            x       y       z     vdW  Elec       q    Type
REMARK                         _______ _______ _______ _____ _____    ______ ____
ROOT
ATOM      1  C   UNL     1       1.085  12.272  20.151  0.00  0.00    +0.000 C 
ATOM      2  C   UNL     1       1.059  13.690  19.637  0.00  0.00    +0.000 A 
ATOM      3  C   UNL     1       1.987  14.643  20.098  0.00  0.00    +0.000 A 
ATOM      4  C   UNL     1       1.835  15.986  19.771  0.00  0.00    +0.000 A 
ATOM      5  C   UNL     1       0.769  16.381  18.969  0.00  0.00    +0.000 A 
ATOM      6  C   UNL     1      -0.117  15.424  18.466  0.00  0.00    +0.000 A 
ATOM      7  C   UNL     1       0.030  14.072  18.787  0.00  0.00    +0.000 A 
ATOM      8  N   UNL     1      -0.877  13.150  18.267  0.00  0.00    +0.000 NA
ATOM      9  C   UNL     1      -0.736  11.870  18.513  0.00  0.00    +0.000 C 
ATOM     10  N   UNL     1      -1.674  11.007  17.940  0.00  0.00    +0.000 N 
ATOM     11  C   UNL     1      -2.081   9.750  18.554  0.00  0.00    +0.000 C 
ATOM     12  N   UNL     1       0.275  11.336  19.331  0.00  0.00    +0.000 N 
ENDROOT
BRANCH  12  13
ATOM     13  C   UNL     1       0.957  10.093  19.112  0.00  0.00    +0.000 A 
ATOM     14  C   UNL     1       1.578   9.780  17.899  0.00  0.00    +0.000 A 
ATOM     15  C   UNL     1       2.275   8.573  17.719  0.00  0.00    +0.000 A 
ATOM     16  C   UNL     1       2.431   7.637  18.753  0.00  0.00    +0.000 A 
ATOM     17  C   UNL     1       1.796   7.933  19.960  0.00  0.00    +0.000 A 
ATOM     18  C   UNL     1       1.066   9.117  20.120  0.00  0.00    +0.000 A 
BRANCH  16  19
ATOM     19  C   UNL     1       3.243   6.415  18.597  0.00  0.00    +0.000 A 
ATOM     20  C   UNL     1       3.155   5.370  19.534  0.00  0.00    +0.000 A 
ATOM     21  C   UNL     1       3.923   4.211  19.412  0.00  0.00    +0.000 A 
ATOM     22  C   UNL     1       4.786   4.058  18.333  0.00  0.00    +0.000 A 
ATOM     23  C   UNL     1       4.876   5.062  17.374  0.00  0.00    +0.000 A 
ATOM     24  C   UNL     1       4.116   6.228  17.508  0.00  0.00    +0.000 A 
ENDBRANCH  16  19
ENDBRANCH  12  13
BRANCH   1  25
ATOM     25  C   UNL     1       0.711  12.237  21.638  0.00  0.00    +0.000 C 
BRANCH  25  26
ATOM     26  C   UNL     1      -0.724  11.906  21.907  0.00  0.00    +0.000 C 
ATOM     27  O   UNL     1      -1.120  10.811  22.289  0.00  0.00    +0.000 OA
BRANCH  26  29
ATOM     28  C   UNL     1      -2.833  12.760  21.368  0.00  0.00    +0.000 C 
ATOM     29  O   UNL     1      -1.494  13.023  21.780  0.00  0.00    +0.000 OA
ENDBRANCH  26  29
ENDBRANCH  25  26
ENDBRANCH   1  25
BRANCH  10  30
ATOM     30  C   UNL     1      -2.384  11.389  16.698  0.00  0.00    +0.000 C 
BRANCH  30  31
ATOM     31  C   UNL     1      -3.771  10.745  16.589  0.00  0.00    +0.000 C 
BRANCH  31  32
ATOM     32  C   UNL     1      -4.927  11.705  16.903  0.00  0.00    +0.000 C 
BRANCH  32  33
ATOM     33  C   UNL     1      -5.379  11.512  18.356  0.00  0.00    +0.000 C 
BRANCH  33  34
ATOM     34  C   UNL     1      -6.890  11.327  18.486  0.00  0.00    +0.000 C 
BRANCH  34  35
ATOM     35  N   UNL     1      -7.186   9.944  18.850  0.00  0.00    +0.000 NA
ATOM     36  H   UNL     1      -6.896   9.319  18.100  0.00  0.00    +0.000 HD
ATOM     37  H   UNL     1      -8.193   9.823  18.953  0.00  0.00    +0.000 HD
ENDBRANCH  34  35
ENDBRANCH  33  34
ENDBRANCH  32  33
ENDBRANCH  31  32
ENDBRANCH  30  31
ENDBRANCH  10  30
TORSDOF 11
ENDMDL
