MODEL 1
REMARK VINA RESULT:      -7.1      0.000      0.000
REMARK  Name = 
REMARK  6 active torsions:
REMARK  status: ('A' for Active; 'I' for Inactive)
REMARK    1  A    between atoms: C_1  and  C_2
REMARK    2  A    between atoms: C_5  and  N_6
REMARK    3  A    between atoms: C_7  and  C_9
REMARK    4  A    between atoms: C_9  and  N_10
REMARK    5  A    between atoms: N_10  and  C_11
REMARK    6  A    between atoms: C_19  and  C_20
REMARK                            x       y       z     vdW  Elec       q    Type
REMARK                         _______ _______ _______ _____ _____    ______ ____
ROOT
ATOM      1  N   UNL     1       2.867   5.847  18.503  0.00  0.00    +0.000 N 
ATOM      2  C   UNL     1       4.192   5.587  18.177  0.00  0.00    +0.000 C 
ATOM      3  O   UNL     1       5.065   6.444  18.028  0.00  0.00    +0.000 OA
ATOM      4  H   UNL     1       2.272   5.062  18.736  0.00  0.00    +0.000 HD
ENDROOT
BRANCH   1   9
ATOM      5  C   UNL     1       0.797  11.127  19.466  0.00  0.00    +0.000 C 
ATOM      6  C   UNL     1       1.295   9.727  19.232  0.00  0.00    +0.000 A 
ATOM      7  C   UNL     1       1.660   9.347  17.937  0.00  0.00    +0.000 A 
ATOM      8  C   UNL     1       2.158   8.070  17.679  0.00  0.00    +0.000 A 
ATOM      9  C   UNL     1       2.312   7.138  18.703  0.00  0.00    +0.000 A 
ATOM     10  C   UNL     1       1.910   7.498  19.997  0.00  0.00    +0.000 A 
ATOM     11  C   UNL     1       1.412   8.789  20.275  0.00  0.00    +0.000 A 
ATOM     12  C   UNL     1       1.032   9.154  21.684  0.00  0.00    +0.000 C 
ENDBRANCH   1   9
BRANCH   2  13
ATOM     13  C   UNL     1       4.548   4.086  18.079  0.00  0.00    +0.000 C 
BRANCH  13  14
ATOM     14  N   UNL     1       3.292   3.338  17.907  0.00  0.00    +0.000 NA
ATOM     15  H   UNL     1       3.233   3.031  16.933  0.00  0.00    +0.000 HD
BRANCH  14  16
ATOM     16  C   UNL     1       3.031   2.243  18.832  0.00  0.00    +0.000 C 
ATOM     17  C   UNL     1       1.501   2.039  18.892  0.00  0.00    +0.000 C 
ATOM     18  C   UNL     1       0.944   3.163  19.758  0.00  0.00    +0.000 C 
ATOM     19  S   UNL     1       2.090   3.256  21.118  0.00  0.00    +0.000 S 
ATOM     20  O   UNL     1       1.645   2.336  22.146  0.00  0.00    +0.000 OA
ATOM     21  O   UNL     1       2.383   4.643  21.414  0.00  0.00    +0.000 OA
ATOM     22  C   UNL     1       3.479   2.514  20.277  0.00  0.00    +0.000 C 
ENDBRANCH  14  16
ENDBRANCH  13  14
ENDBRANCH   2  13
TORSDOF 4
ENDMDL
MODEL 2
REMARK VINA RESULT:      -7.0      2.432      4.056
REMARK  Name = 
REMARK  6 active torsions:
REMARK  status: ('A' for Active; 'I' for Inactive)
REMARK    1  A    between atoms: C_1  and  C_2
REMARK    2  A    between atoms: C_5  and  N_6
REMARK    3  A    between atoms: C_7  and  C_9
REMARK    4  A    between atoms: C_9  and  N_10
REMARK    5  A    between atoms: N_10  and  C_11
REMARK    6  A    between atoms: C_19  and  C_20
REMARK                            x       y       z     vdW  Elec       q    Type
REMARK                         _______ _______ _______ _____ _____    ______ ____
ROOT
ATOM      1  N   UNL     1       3.102   6.259  19.852  0.00  0.00    +0.000 N 
ATOM      2  C   UNL     1       2.764   4.951  19.529  0.00  0.00    +0.000 C 
ATOM      3  O   UNL     1       1.650   4.580  19.156  0.00  0.00    +0.000 OA
ATOM      4  H   UNL     1       4.078   6.472  20.012  0.00  0.00    +0.000 HD
ENDROOT
BRANCH   1   9
ATOM      5  C   UNL     1      -0.374  10.842  19.880  0.00  0.00    +0.000 C 
ATOM      6  C   UNL     1       0.495   9.615  19.880  0.00  0.00    +0.000 A 
ATOM      7  C   UNL     1       1.252   9.321  18.742  0.00  0.00    +0.000 A 
ATOM      8  C   UNL     1       2.097   8.211  18.711  0.00  0.00    +0.000 A 
ATOM      9  C   UNL     1       2.215   7.367  19.813  0.00  0.00    +0.000 A 
ATOM     10  C   UNL     1       1.429   7.631  20.942  0.00  0.00    +0.000 A 
ATOM     11  C   UNL     1       0.577   8.755  20.992  0.00  0.00    +0.000 A 
ATOM     12  C   UNL     1      -0.220   9.032  22.238  0.00  0.00    +0.000 C 
ENDBRANCH   1   9
BRANCH   2  13
ATOM     13  C   UNL     1       3.939   3.947  19.596  0.00  0.00    +0.000 C 
BRANCH  13  14
ATOM     14  N   UNL     1       4.415   3.722  18.221  0.00  0.00    +0.000 NA
ATOM     15  H   UNL     1       3.792   3.043  17.775  0.00  0.00    +0.000 HD
BRANCH  14  16
ATOM     16  C   UNL     1       4.622   4.894  17.381  0.00  0.00    +0.000 C 
ATOM     17  C   UNL     1       4.692   4.411  15.916  0.00  0.00    +0.000 C 
ATOM     18  C   UNL     1       6.071   3.789  15.727  0.00  0.00    +0.000 C 
ATOM     19  S   UNL     1       7.163   4.923  16.558  0.00  0.00    +0.000 S 
ATOM     20  O   UNL     1       7.566   5.940  15.608  0.00  0.00    +0.000 OA
ATOM     21  O   UNL     1       8.134   4.181  17.337  0.00  0.00    +0.000 OA
ATOM     22  C   UNL     1       5.940   5.637  17.646  0.00  0.00    +0.000 C 
ENDBRANCH  14  16
ENDBRANCH  13  14
ENDBRANCH   2  13
TORSDOF 4
ENDMDL
MODEL 3
REMARK VINA RESULT:      -6.9      2.660      4.414
REMARK  Name = 
REMARK  6 active torsions:
REMARK  status: ('A' for Active; 'I' for Inactive)
REMARK    1  A    between atoms: C_1  and  C_2
REMARK    2  A    between atoms: C_5  and  N_6
REMARK    3  A    between atoms: C_7  and  C_9
REMARK    4  A    between atoms: C_9  and  N_10
REMARK    5  A    between atoms: N_10  and  C_11
REMARK    6  A    between atoms: C_19  and  C_20
REMARK                            x       y       z     vdW  Elec       q    Type
REMARK                         _______ _______ _______ _____ _____    ______ ____
ROOT
ATOM      1  N   UNL     1       2.872   4.876  19.031  0.00  0.00    +0.000 N 
ATOM      2  C   UNL     1       2.304   4.052  18.068  0.00  0.00    +0.000 C 
ATOM      3  O   UNL     1       1.286   4.314  17.424  0.00  0.00    +0.000 OA
ATOM      4  H   UNL     1       3.781   4.623  19.397  0.00  0.00    +0.000 HD
ENDROOT
BRANCH   1   9
ATOM      5  C   UNL     1       0.657   9.988  20.461  0.00  0.00    +0.000 C 
ATOM      6  C   UNL     1       1.281   8.673  20.082  0.00  0.00    +0.000 A 
ATOM      7  C   UNL     1       1.227   7.612  20.990  0.00  0.00    +0.000 A 
ATOM      8  C   UNL     1       1.763   6.365  20.667  0.00  0.00    +0.000 A 
ATOM      9  C   UNL     1       2.363   6.140  19.430  0.00  0.00    +0.000 A 
ATOM     10  C   UNL     1       2.457   7.210  18.530  0.00  0.00    +0.000 A 
ATOM     11  C   UNL     1       1.912   8.474  18.839  0.00  0.00    +0.000 A 
ATOM     12  C   UNL     1       1.993   9.589  17.831  0.00  0.00    +0.000 C 
ENDBRANCH   1   9
BRANCH   2  13
ATOM     13  C   UNL     1       3.097   2.756  17.780  0.00  0.00    +0.000 C 
BRANCH  13  14
ATOM     14  N   UNL     1       4.456   3.144  17.367  0.00  0.00    +0.000 NA
ATOM     15  H   UNL     1       4.831   2.405  16.767  0.00  0.00    +0.000 HD
BRANCH  14  16
ATOM     16  C   UNL     1       4.625   4.461  16.768  0.00  0.00    +0.000 C 
ATOM     17  C   UNL     1       5.022   4.253  15.290  0.00  0.00    +0.000 C 
ATOM     18  C   UNL     1       6.491   3.846  15.286  0.00  0.00    +0.000 C 
ATOM     19  S   UNL     1       7.236   4.942  16.475  0.00  0.00    +0.000 S 
ATOM     20  O   UNL     1       7.639   6.151  15.783  0.00  0.00    +0.000 OA
ATOM     21  O   UNL     1       8.158   4.201  17.311  0.00  0.00    +0.000 OA
ATOM     22  C   UNL     1       5.748   5.302  17.394  0.00  0.00    +0.000 C 
ENDBRANCH  14  16
ENDBRANCH  13  14
ENDBRANCH   2  13
TORSDOF 4
ENDMDL
MODEL 4
REMARK VINA RESULT:      -6.9      2.534      4.316
REMARK  Name = 
REMARK  6 active torsions:
REMARK  status: ('A' for Active; 'I' for Inactive)
REMARK    1  A    between atoms: C_1  and  C_2
REMARK    2  A    between atoms: C_5  and  N_6
REMARK    3  A    between atoms: C_7  and  C_9
REMARK    4  A    between atoms: C_9  and  N_10
REMARK    5  A    between atoms: N_10  and  C_11
REMARK    6  A    between atoms: C_19  and  C_20
REMARK                            x       y       z     vdW  Elec       q    Type
REMARK                         _______ _______ _______ _____ _____    ______ ____
ROOT
ATOM      1  N   UNL     1       3.274   6.500  19.266  0.00  0.00    +0.000 N 
ATOM      2  C   UNL     1       2.941   5.157  19.145  0.00  0.00    +0.000 C 
ATOM      3  O   UNL     1       1.804   4.725  18.949  0.00  0.00    +0.000 OA
ATOM      4  H   UNL     1       4.255   6.746  19.288  0.00  0.00    +0.000 HD
ENDROOT
BRANCH   1   9
ATOM      5  C   UNL     1      -0.312  10.996  19.130  0.00  0.00    +0.000 C 
ATOM      6  C   UNL     1       0.588   9.792  19.181  0.00  0.00    +0.000 A 
ATOM      7  C   UNL     1       1.230   9.378  18.011  0.00  0.00    +0.000 A 
ATOM      8  C   UNL     1       2.099   8.286  18.019  0.00  0.00    +0.000 A 
ATOM      9  C   UNL     1       2.356   7.581  19.193  0.00  0.00    +0.000 A 
ATOM     10  C   UNL     1       1.684   7.965  20.362  0.00  0.00    +0.000 A 
ATOM     11  C   UNL     1       0.809   9.072  20.370  0.00  0.00    +0.000 A 
ATOM     12  C   UNL     1       0.138   9.483  21.653  0.00  0.00    +0.000 C 
ENDBRANCH   1   9
BRANCH   2  13
ATOM     13  C   UNL     1       4.145   4.188  19.200  0.00  0.00    +0.000 C 
BRANCH  13  14
ATOM     14  N   UNL     1       5.373   4.998  19.159  0.00  0.00    +0.000 NA
ATOM     15  H   UNL     1       5.669   5.181  20.121  0.00  0.00    +0.000 HD
BRANCH  14  16
ATOM     16  C   UNL     1       6.475   4.505  18.343  0.00  0.00    +0.000 C 
ATOM     17  C   UNL     1       7.608   5.552  18.407  0.00  0.00    +0.000 C 
ATOM     18  C   UNL     1       7.191   6.703  17.498  0.00  0.00    +0.000 C 
ATOM     19  S   UNL     1       6.536   5.886  16.058  0.00  0.00    +0.000 S 
ATOM     20  O   UNL     1       7.632   5.647  15.138  0.00  0.00    +0.000 OA
ATOM     21  O   UNL     1       5.319   6.547  15.634  0.00  0.00    +0.000 OA
ATOM     22  C   UNL     1       6.134   4.339  16.853  0.00  0.00    +0.000 C 
ENDBRANCH  14  16
ENDBRANCH  13  14
ENDBRANCH   2  13
TORSDOF 4
ENDMDL
MODEL 5
REMARK VINA RESULT:      -6.7      2.722      4.441
REMARK  Name = 
REMARK  6 active torsions:
REMARK  status: ('A' for Active; 'I' for Inactive)
REMARK    1  A    between atoms: C_1  and  C_2
REMARK    2  A    between atoms: C_5  and  N_6
REMARK    3  A    between atoms: C_7  and  C_9
REMARK    4  A    between atoms: C_9  and  N_10
REMARK    5  A    between atoms: N_10  and  C_11
REMARK    6  A    between atoms: C_19  and  C_20
REMARK                            x       y       z     vdW  Elec       q    Type
REMARK                         _______ _______ _______ _____ _____    ______ ____
ROOT
ATOM      1  N   UNL     1       3.213   6.698  19.316  0.00  0.00    +0.000 N 
ATOM      2  C   UNL     1       2.939   5.336  19.339  0.00  0.00    +0.000 C 
ATOM      3  O   UNL     1       1.811   4.842  19.357  0.00  0.00    +0.000 OA
ATOM      4  H   UNL     1       4.170   6.988  19.164  0.00  0.00    +0.000 HD
ENDROOT
BRANCH   1   9
ATOM      5  C   UNL     1      -0.611  10.992  19.495  0.00  0.00    +0.000 C 
ATOM      6  C   UNL     1       0.353   9.838  19.463  0.00  0.00    +0.000 A 
ATOM      7  C   UNL     1       0.991   9.523  18.260  0.00  0.00    +0.000 A 
ATOM      8  C   UNL     1       1.917   8.481  18.192  0.00  0.00    +0.000 A 
ATOM      9  C   UNL     1       2.237   7.729  19.320  0.00  0.00    +0.000 A 
ATOM     10  C   UNL     1       1.572   8.012  20.520  0.00  0.00    +0.000 A 
ATOM     11  C   UNL     1       0.639   9.068  20.607  0.00  0.00    +0.000 A 
ATOM     12  C   UNL     1      -0.025   9.372  21.923  0.00  0.00    +0.000 C 
ENDBRANCH   1   9
BRANCH   2  13
ATOM     13  C   UNL     1       4.188   4.427  19.265  0.00  0.00    +0.000 C 
BRANCH  13  14
ATOM     14  N   UNL     1       4.697   4.477  17.884  0.00  0.00    +0.000 NA
ATOM     15  H   UNL     1       3.937   4.793  17.275  0.00  0.00    +0.000 HD
BRANCH  14  16
ATOM     16  C   UNL     1       5.924   5.227  17.647  0.00  0.00    +0.000 C 
ATOM     17  C   UNL     1       5.561   6.450  16.778  0.00  0.00    +0.000 C 
ATOM     18  C   UNL     1       5.368   5.936  15.356  0.00  0.00    +0.000 C 
ATOM     19  S   UNL     1       6.719   4.797  15.134  0.00  0.00    +0.000 S 
ATOM     20  O   UNL     1       7.859   5.542  14.637  0.00  0.00    +0.000 OA
ATOM     21  O   UNL     1       6.243   3.601  14.469  0.00  0.00    +0.000 OA
ATOM     22  C   UNL     1       6.995   4.453  16.863  0.00  0.00    +0.000 C 
ENDBRANCH  14  16
ENDBRANCH  13  14
ENDBRANCH   2  13
TORSDOF 4
ENDMDL
MODEL 6
REMARK VINA RESULT:      -6.6      2.381      4.175
REMARK  Name = 
REMARK  6 active torsions:
REMARK  status: ('A' for Active; 'I' for Inactive)
REMARK    1  A    between atoms: C_1  and  C_2
REMARK    2  A    between atoms: C_5  and  N_6
REMARK    3  A    between atoms: C_7  and  C_9
REMARK    4  A    between atoms: C_9  and  N_10
REMARK    5  A    between atoms: N_10  and  C_11
REMARK    6  A    between atoms: C_19  and  C_20
REMARK                            x       y       z     vdW  Elec       q    Type
REMARK                         _______ _______ _______ _____ _____    ______ ____
ROOT
ATOM      1  N   UNL     1       2.672   6.786  19.888  0.00  0.00    +0.000 N 
ATOM      2  C   UNL     1       2.328   5.460  20.121  0.00  0.00    +0.000 C 
ATOM      3  O   UNL     1       1.225   5.074  20.511  0.00  0.00    +0.000 OA
ATOM      4  H   UNL     1       3.559   6.975  19.439  0.00  0.00    +0.000 HD
ENDROOT
BRANCH   1   9
ATOM      5  C   UNL     1      -0.666  11.382  20.799  0.00  0.00    +0.000 C 
ATOM      6  C   UNL     1       0.169  10.151  20.575  0.00  0.00    +0.000 A 
ATOM      7  C   UNL     1       0.687   9.908  19.300  0.00  0.00    +0.000 A 
ATOM      8  C   UNL     1       1.493   8.796  19.054  0.00  0.00    +0.000 A 
ATOM      9  C   UNL     1       1.810   7.899  20.072  0.00  0.00    +0.000 A 
ATOM     10  C   UNL     1       1.262   8.114  21.344  0.00  0.00    +0.000 A 
ATOM     11  C   UNL     1       0.451   9.239  21.609  0.00  0.00    +0.000 A 
ATOM     12  C   UNL     1      -0.086   9.461  22.998  0.00  0.00    +0.000 C 
ENDBRANCH   1   9
BRANCH   2  13
ATOM     13  C   UNL     1       3.437   4.439  19.779  0.00  0.00    +0.000 C 
BRANCH  13  14
ATOM     14  N   UNL     1       3.805   4.633  18.367  0.00  0.00    +0.000 NA
ATOM     15  H   UNL     1       3.692   5.625  18.141  0.00  0.00    +0.000 HD
BRANCH  14  16
ATOM     16  C   UNL     1       5.101   4.126  17.934  0.00  0.00    +0.000 C 
ATOM     17  C   UNL     1       6.187   5.011  18.584  0.00  0.00    +0.000 C 
ATOM     18  C   UNL     1       6.215   6.317  17.798  0.00  0.00    +0.000 C 
ATOM     19  S   UNL     1       6.104   5.790  16.101  0.00  0.00    +0.000 S 
ATOM     20  O   UNL     1       7.448   5.547  15.615  0.00  0.00    +0.000 OA
ATOM     21  O   UNL     1       5.178   6.645  15.385  0.00  0.00    +0.000 OA
ATOM     22  C   UNL     1       5.337   4.209  16.418  0.00  0.00    +0.000 C 
ENDBRANCH  14  16
ENDBRANCH  13  14
ENDBRANCH   2  13
TORSDOF 4
ENDMDL
MODEL 7
REMARK VINA RESULT:      -6.6      3.633      6.129
REMARK  Name = 
REMARK  6 active torsions:
REMARK  status: ('A' for Active; 'I' for Inactive)
REMARK    1  A    between atoms: C_1  and  C_2
REMARK    2  A    between atoms: C_5  and  N_6
REMARK    3  A    between atoms: C_7  and  C_9
REMARK    4  A    between atoms: C_9  and  N_10
REMARK    5  A    between atoms: N_10  and  C_11
REMARK    6  A    between atoms: C_19  and  C_20
REMARK                            x       y       z     vdW  Elec       q    Type
REMARK                         _______ _______ _______ _____ _____    ______ ____
ROOT
ATOM      1  N   UNL     1       5.144   4.620  16.831  0.00  0.00    +0.000 N 
ATOM      2  C   UNL     1       4.605   5.780  17.374  0.00  0.00    +0.000 C 
ATOM      3  O   UNL     1       4.571   6.875  16.811  0.00  0.00    +0.000 OA
ATOM      4  H   UNL     1       4.994   3.750  17.324  0.00  0.00    +0.000 HD
ENDROOT
BRANCH   1   9
ATOM      5  C   UNL     1       7.415   4.355  11.552  0.00  0.00    +0.000 C 
ATOM      6  C   UNL     1       6.817   4.375  12.932  0.00  0.00    +0.000 A 
ATOM      7  C   UNL     1       7.562   4.914  13.985  0.00  0.00    +0.000 A 
ATOM      8  C   UNL     1       7.034   4.982  15.275  0.00  0.00    +0.000 A 
ATOM      9  C   UNL     1       5.748   4.521  15.550  0.00  0.00    +0.000 A 
ATOM     10  C   UNL     1       5.011   3.942  14.508  0.00  0.00    +0.000 A 
ATOM     11  C   UNL     1       5.528   3.873  13.197  0.00  0.00    +0.000 A 
ATOM     12  C   UNL     1       4.691   3.284  12.094  0.00  0.00    +0.000 C 
ENDBRANCH   1   9
BRANCH   2  13
ATOM     13  C   UNL     1       3.951   5.596  18.763  0.00  0.00    +0.000 C 
BRANCH  13  14
ATOM     14  N   UNL     1       4.424   4.316  19.315  0.00  0.00    +0.000 NA
ATOM     15  H   UNL     1       5.236   4.505  19.909  0.00  0.00    +0.000 HD
BRANCH  14  16
ATOM     16  C   UNL     1       3.447   3.474  19.992  0.00  0.00    +0.000 C 
ATOM     17  C   UNL     1       3.537   2.064  19.369  0.00  0.00    +0.000 C 
ATOM     18  C   UNL     1       2.832   2.136  18.020  0.00  0.00    +0.000 C 
ATOM     19  S   UNL     1       1.368   3.090  18.359  0.00  0.00    +0.000 S 
ATOM     20  O   UNL     1       0.323   2.178  18.780  0.00  0.00    +0.000 OA
ATOM     21  O   UNL     1       1.156   4.052  17.297  0.00  0.00    +0.000 OA
ATOM     22  C   UNL     1       1.990   3.926  19.810  0.00  0.00    +0.000 C 
ENDBRANCH  14  16
ENDBRANCH  13  14
ENDBRANCH   2  13
TORSDOF 4
ENDMDL
MODEL 8
REMARK VINA RESULT:      -6.6      6.291      7.216
REMARK  Name = 
REMARK  6 active torsions:
REMARK  status: ('A' for Active; 'I' for Inactive)
REMARK    1  A    between atoms: C_1  and  C_2
REMARK    2  A    between atoms: C_5  and  N_6
REMARK    3  A    between atoms: C_7  and  C_9
REMARK    4  A    between atoms: C_9  and  N_10
REMARK    5  A    between atoms: N_10  and  C_11
REMARK    6  A    between atoms: C_19  and  C_20
REMARK                            x       y       z     vdW  Elec       q    Type
REMARK                         _______ _______ _______ _____ _____    ______ ____
ROOT
ATOM      1  N   UNL     1       8.012   9.323  17.777  0.00  0.00    +0.000 N 
ATOM      2  C   UNL     1       7.892   7.966  18.050  0.00  0.00    +0.000 C 
ATOM      3  O   UNL     1       8.583   7.343  18.858  0.00  0.00    +0.000 OA
ATOM      4  H   UNL     1       7.304   9.756  17.199  0.00  0.00    +0.000 HD
ENDROOT
BRANCH   1   9
ATOM      5  C   UNL     1      11.714  13.054  20.113  0.00  0.00    +0.000 C 
ATOM      6  C   UNL     1      10.785  12.057  19.478  0.00  0.00    +0.000 A 
ATOM      7  C   UNL     1      10.039  11.209  20.300  0.00  0.00    +0.000 A 
ATOM      8  C   UNL     1       9.139  10.291  19.755  0.00  0.00    +0.000 A 
ATOM      9  C   UNL     1       8.955  10.198  18.378  0.00  0.00    +0.000 A 
ATOM     10  C   UNL     1       9.729  11.017  17.545  0.00  0.00    +0.000 A 
ATOM     11  C   UNL     1      10.636  11.956  18.082  0.00  0.00    +0.000 A 
ATOM     12  C   UNL     1      11.419  12.849  17.158  0.00  0.00    +0.000 C 
ENDBRANCH   1   9
BRANCH   2  13
ATOM     13  C   UNL     1       6.738   7.259  17.301  0.00  0.00    +0.000 C 
BRANCH  13  14
ATOM     14  N   UNL     1       7.333   6.229  16.433  0.00  0.00    +0.000 NA
ATOM     15  H   UNL     1       8.318   6.466  16.285  0.00  0.00    +0.000 HD
BRANCH  14  16
ATOM     16  C   UNL     1       7.167   4.838  16.830  0.00  0.00    +0.000 C 
ATOM     17  C   UNL     1       6.656   4.059  15.599  0.00  0.00    +0.000 C 
ATOM     18  C   UNL     1       5.177   4.397  15.451  0.00  0.00    +0.000 C 
ATOM     19  S   UNL     1       4.561   4.332  17.120  0.00  0.00    +0.000 S 
ATOM     20  O   UNL     1       4.152   2.969  17.397  0.00  0.00    +0.000 OA
ATOM     21  O   UNL     1       3.676   5.455  17.357  0.00  0.00    +0.000 OA
ATOM     22  C   UNL     1       6.123   4.616  17.936  0.00  0.00    +0.000 C 
ENDBRANCH  14  16
ENDBRANCH  13  14
ENDBRANCH   2  13
TORSDOF 4
ENDMDL
MODEL 9
REMARK VINA RESULT:      -6.5      2.710      5.228
REMARK  Name = 
REMARK  6 active torsions:
REMARK  status: ('A' for Active; 'I' for Inactive)
REMARK    1  A    between atoms: C_1  and  C_2
REMARK    2  A    between atoms: C_5  and  N_6
REMARK    3  A    between atoms: C_7  and  C_9
REMARK    4  A    between atoms: C_9  and  N_10
REMARK    5  A    between atoms: N_10  and  C_11
REMARK    6  A    between atoms: C_19  and  C_20
REMARK                            x       y       z     vdW  Elec       q    Type
REMARK                         _______ _______ _______ _____ _____    ______ ____
ROOT
ATOM      1  N   UNL     1       4.243   5.570  18.689  0.00  0.00    +0.000 N 
ATOM      2  C   UNL     1       3.199   6.483  18.770  0.00  0.00    +0.000 C 
ATOM      3  O   UNL     1       2.911   7.307  17.900  0.00  0.00    +0.000 OA
ATOM      4  H   UNL     1       4.302   4.851  19.398  0.00  0.00    +0.000 HD
ENDROOT
BRANCH   1   9
ATOM      5  C   UNL     1       7.738   5.213  14.134  0.00  0.00    +0.000 C 
ATOM      6  C   UNL     1       6.824   5.256  15.328  0.00  0.00    +0.000 A 
ATOM      7  C   UNL     1       7.248   5.925  16.480  0.00  0.00    +0.000 A 
ATOM      8  C   UNL     1       6.419   6.018  17.599  0.00  0.00    +0.000 A 
ATOM      9  C   UNL     1       5.146   5.454  17.599  0.00  0.00    +0.000 A 
ATOM     10  C   UNL     1       4.730   4.747  16.463  0.00  0.00    +0.000 A 
ATOM     11  C   UNL     1       5.553   4.651  15.320  0.00  0.00    +0.000 A 
ATOM     12  C   UNL     1       5.057   3.921  14.102  0.00  0.00    +0.000 C 
ENDBRANCH   1   9
BRANCH   2  13
ATOM     13  C   UNL     1       2.328   6.354  20.041  0.00  0.00    +0.000 C 
BRANCH  13  14
ATOM     14  N   UNL     1       2.823   5.198  20.807  0.00  0.00    +0.000 NA
ATOM     15  H   UNL     1       3.249   5.545  21.670  0.00  0.00    +0.000 HD
BRANCH  14  16
ATOM     16  C   UNL     1       1.884   4.115  21.069  0.00  0.00    +0.000 C 
ATOM     17  C   UNL     1       2.647   2.784  20.890  0.00  0.00    +0.000 C 
ATOM     18  C   UNL     1       2.789   2.560  19.389  0.00  0.00    +0.000 C 
ATOM     19  S   UNL     1       1.189   3.000  18.744  0.00  0.00    +0.000 S 
ATOM     20  O   UNL     1       0.351   1.817  18.772  0.00  0.00    +0.000 OA
ATOM     21  O   UNL     1       1.349   3.790  17.540  0.00  0.00    +0.000 OA
ATOM     22  C   UNL     1       0.697   4.057  20.096  0.00  0.00    +0.000 C 
ENDBRANCH  14  16
ENDBRANCH  13  14
ENDBRANCH   2  13
TORSDOF 4
ENDMDL
