MODEL 1
REMARK VINA RESULT:      -7.3      0.000      0.000
REMARK  Name = 
REMARK  4 active torsions:
REMARK  status: ('A' for Active; 'I' for Inactive)
REMARK    1  A    between atoms: C_1  and  C_2
REMARK    2  A    between atoms: C_9  and  O_10
REMARK    3  A    between atoms: O_10  and  C_11
REMARK    4  A    between atoms: C_11  and  C_12
REMARK                            x       y       z     vdW  Elec       q    Type
REMARK                         _______ _______ _______ _____ _____    ______ ____
ROOT
ATOM      1  C   UNL     1       1.040   8.655  21.911  0.00  0.00    +0.000 C 
ATOM      2  C   UNL     1       1.393   8.515  20.459  0.00  0.00    +0.000 A 
ATOM      3  C   UNL     1       1.484   9.581  19.651  0.00  0.00    +0.000 A 
ATOM      4  C   UNL     1       1.835   9.494  18.225  0.00  0.00    +0.000 A 
ATOM      5  O   UNL     1       1.915  10.505  17.538  0.00  0.00    +0.000 OA
ATOM      6  O   UNL     1       2.060   8.227  17.716  0.00  0.00    +0.000 OA
ATOM      7  C   UNL     1       2.026   7.091  18.550  0.00  0.00    +0.000 A 
ATOM      8  C   UNL     1       2.381   5.880  17.953  0.00  0.00    +0.000 A 
ATOM      9  C   UNL     1       2.437   4.723  18.731  0.00  0.00    +0.000 A 
ATOM     10  C   UNL     1       2.052   4.792  20.076  0.00  0.00    +0.000 A 
ATOM     11 CL   UNL     1       2.072   3.389  21.088  0.00  0.00    +0.000 Cl
ATOM     12  C   UNL     1       1.676   6.012  20.654  0.00  0.00    +0.000 A 
ATOM     13  C   UNL     1       1.687   7.189  19.900  0.00  0.00    +0.000 A 
ENDROOT
BRANCH   9  14
ATOM     14  O   UNL     1       2.830   3.500  18.254  0.00  0.00    +0.000 OA
BRANCH  14  15
ATOM     15  C   UNL     1       4.147   3.419  17.724  0.00  0.00    +0.000 C 
BRANCH  15  16
ATOM     16  C   UNL     1       5.209   3.889  18.719  0.00  0.00    +0.000 C 
ATOM     17  O   UNL     1       5.382   3.280  19.777  0.00  0.00    +0.000 OA
ATOM     18  N   UNL     1       5.960   4.982  18.376  0.00  0.00    +0.000 N 
ATOM     19  C   UNL     1       5.870   5.775  17.162  0.00  0.00    +0.000 C 
ATOM     20  C   UNL     1       7.285   6.302  17.002  0.00  0.00    +0.000 C 
ATOM     21  C   UNL     1       7.732   6.550  18.440  0.00  0.00    +0.000 C 
ATOM     22  C   UNL     1       6.986   5.504  19.259  0.00  0.00    +0.000 C 
ENDBRANCH  15  16
ENDBRANCH  14  15
ENDBRANCH   9  14
TORSDOF 3
ENDMDL
MODEL 2
REMARK VINA RESULT:      -7.2      3.706      7.213
REMARK  Name = 
REMARK  4 active torsions:
REMARK  status: ('A' for Active; 'I' for Inactive)
REMARK    1  A    between atoms: C_1  and  C_2
REMARK    2  A    between atoms: C_9  and  O_10
REMARK    3  A    between atoms: O_10  and  C_11
REMARK    4  A    between atoms: C_11  and  C_12
REMARK                            x       y       z     vdW  Elec       q    Type
REMARK                         _______ _______ _______ _____ _____    ______ ____
ROOT
ATOM      1  C   UNL     1       8.694   5.786  12.851  0.00  0.00    +0.000 C 
ATOM      2  C   UNL     1       7.486   4.914  13.035  0.00  0.00    +0.000 A 
ATOM      3  C   UNL     1       7.096   4.046  12.090  0.00  0.00    +0.000 A 
ATOM      4  C   UNL     1       5.925   3.166  12.228  0.00  0.00    +0.000 A 
ATOM      5  O   UNL     1       5.624   2.382  11.335  0.00  0.00    +0.000 OA
ATOM      6  O   UNL     1       5.197   3.278  13.399  0.00  0.00    +0.000 OA
ATOM      7  C   UNL     1       5.610   4.142  14.433  0.00  0.00    +0.000 A 
ATOM      8  C   UNL     1       4.865   4.088  15.613  0.00  0.00    +0.000 A 
ATOM      9  C   UNL     1       5.255   4.864  16.705  0.00  0.00    +0.000 A 
ATOM     10  C   UNL     1       6.336   5.743  16.560  0.00  0.00    +0.000 A 
ATOM     11 CL   UNL     1       6.853   6.752  17.867  0.00  0.00    +0.000 Cl
ATOM     12  C   UNL     1       7.060   5.800  15.362  0.00  0.00    +0.000 A 
ATOM     13  C   UNL     1       6.720   4.973  14.286  0.00  0.00    +0.000 A 
ENDROOT
BRANCH   9  14
ATOM     14  O   UNL     1       4.627   4.839  17.923  0.00  0.00    +0.000 OA
BRANCH  14  15
ATOM     15  C   UNL     1       3.328   5.415  17.979  0.00  0.00    +0.000 C 
BRANCH  15  16
ATOM     16  C   UNL     1       2.235   4.370  18.210  0.00  0.00    +0.000 C 
ATOM     17  O   UNL     1       1.651   3.858  17.253  0.00  0.00    +0.000 OA
ATOM     18  N   UNL     1       1.959   4.018  19.506  0.00  0.00    +0.000 N 
ATOM     19  C   UNL     1       2.580   4.528  20.716  0.00  0.00    +0.000 C 
ATOM     20  C   UNL     1       2.444   3.361  21.678  0.00  0.00    +0.000 C 
ATOM     21  C   UNL     1       1.089   2.762  21.313  0.00  0.00    +0.000 C 
ATOM     22  C   UNL     1       0.935   3.040  19.823  0.00  0.00    +0.000 C 
ENDBRANCH  15  16
ENDBRANCH  14  15
ENDBRANCH   9  14
TORSDOF 3
ENDMDL
MODEL 3
REMARK VINA RESULT:      -7.1      2.891      3.375
REMARK  Name = 
REMARK  4 active torsions:
REMARK  status: ('A' for Active; 'I' for Inactive)
REMARK    1  A    between atoms: C_1  and  C_2
REMARK    2  A    between atoms: C_9  and  O_10
REMARK    3  A    between atoms: O_10  and  C_11
REMARK    4  A    between atoms: C_11  and  C_12
REMARK                            x       y       z     vdW  Elec       q    Type
REMARK                         _______ _______ _______ _____ _____    ______ ____
ROOT
ATOM      1  C   UNL     1       1.152   7.105  21.201  0.00  0.00    +0.000 C 
ATOM      2  C   UNL     1       1.826   7.469  19.911  0.00  0.00    +0.000 A 
ATOM      3  C   UNL     1       1.618   8.654  19.320  0.00  0.00    +0.000 A 
ATOM      4  C   UNL     1       2.261   9.059  18.060  0.00  0.00    +0.000 A 
ATOM      5  O   UNL     1       2.043  10.162  17.572  0.00  0.00    +0.000 OA
ATOM      6  O   UNL     1       3.107   8.136  17.469  0.00  0.00    +0.000 OA
ATOM      7  C   UNL     1       3.388   6.904  18.091  0.00  0.00    +0.000 A 
ATOM      8  C   UNL     1       4.342   6.102  17.462  0.00  0.00    +0.000 A 
ATOM      9  C   UNL     1       4.724   4.897  18.055  0.00  0.00    +0.000 A 
ATOM     10  C   UNL     1       4.075   4.484  19.225  0.00  0.00    +0.000 A 
ATOM     11 CL   UNL     1       4.481   2.989  19.995  0.00  0.00    +0.000 Cl
ATOM     12  C   UNL     1       3.103   5.291  19.832  0.00  0.00    +0.000 A 
ATOM     13  C   UNL     1       2.767   6.532  19.283  0.00  0.00    +0.000 A 
ENDROOT
BRANCH   9  14
ATOM     14  O   UNL     1       5.691   4.069  17.549  0.00  0.00    +0.000 OA
BRANCH  14  15
ATOM     15  C   UNL     1       5.611   3.773  16.160  0.00  0.00    +0.000 C 
BRANCH  15  16
ATOM     16  C   UNL     1       6.706   4.468  15.350  0.00  0.00    +0.000 C 
ATOM     17  O   UNL     1       7.615   5.072  15.923  0.00  0.00    +0.000 OA
ATOM     18  N   UNL     1       6.644   4.367  13.984  0.00  0.00    +0.000 N 
ATOM     19  C   UNL     1       5.643   3.677  13.190  0.00  0.00    +0.000 C 
ATOM     20  C   UNL     1       6.418   3.289  11.942  0.00  0.00    +0.000 C 
ATOM     21  C   UNL     1       7.357   4.474  11.730  0.00  0.00    +0.000 C 
ATOM     22  C   UNL     1       7.636   4.998  13.133  0.00  0.00    +0.000 C 
ENDBRANCH  15  16
ENDBRANCH  14  15
ENDBRANCH   9  14
TORSDOF 3
ENDMDL
MODEL 4
REMARK VINA RESULT:      -7.1      3.613      6.753
REMARK  Name = 
REMARK  4 active torsions:
REMARK  status: ('A' for Active; 'I' for Inactive)
REMARK    1  A    between atoms: C_1  and  C_2
REMARK    2  A    between atoms: C_9  and  O_10
REMARK    3  A    between atoms: O_10  and  C_11
REMARK    4  A    between atoms: C_11  and  C_12
REMARK                            x       y       z     vdW  Elec       q    Type
REMARK                         _______ _______ _______ _____ _____    ______ ____
ROOT
ATOM      1  C   UNL     1       5.613   3.022  12.068  0.00  0.00    +0.000 C 
ATOM      2  C   UNL     1       6.417   3.949  12.932  0.00  0.00    +0.000 A 
ATOM      3  C   UNL     1       7.503   4.582  12.463  0.00  0.00    +0.000 A 
ATOM      4  C   UNL     1       8.317   5.505  13.268  0.00  0.00    +0.000 A 
ATOM      5  O   UNL     1       9.292   6.066  12.782  0.00  0.00    +0.000 OA
ATOM      6  O   UNL     1       7.926   5.695  14.582  0.00  0.00    +0.000 OA
ATOM      7  C   UNL     1       6.761   5.088  15.090  0.00  0.00    +0.000 A 
ATOM      8  C   UNL     1       6.401   5.441  16.392  0.00  0.00    +0.000 A 
ATOM      9  C   UNL     1       5.222   4.933  16.939  0.00  0.00    +0.000 A 
ATOM     10  C   UNL     1       4.473   4.012  16.196  0.00  0.00    +0.000 A 
ATOM     11 CL   UNL     1       3.017   3.323  16.827  0.00  0.00    +0.000 Cl
ATOM     12  C   UNL     1       4.860   3.650  14.898  0.00  0.00    +0.000 A 
ATOM     13  C   UNL     1       6.001   4.210  14.315  0.00  0.00    +0.000 A 
ENDROOT
BRANCH   9  14
ATOM     14  O   UNL     1       4.752   5.264  18.183  0.00  0.00    +0.000 OA
BRANCH  14  15
ATOM     15  C   UNL     1       5.374   4.620  19.288  0.00  0.00    +0.000 C 
BRANCH  15  16
ATOM     16  C   UNL     1       4.555   3.440  19.814  0.00  0.00    +0.000 C 
ATOM     17  O   UNL     1       5.102   2.365  20.063  0.00  0.00    +0.000 OA
ATOM     18  N   UNL     1       3.214   3.640  20.016  0.00  0.00    +0.000 N 
ATOM     19  C   UNL     1       2.452   4.854  19.781  0.00  0.00    +0.000 C 
ATOM     20  C   UNL     1       1.323   4.741  20.790  0.00  0.00    +0.000 C 
ATOM     21  C   UNL     1       1.019   3.245  20.809  0.00  0.00    +0.000 C 
ATOM     22  C   UNL     1       2.356   2.578  20.507  0.00  0.00    +0.000 C 
ENDBRANCH  15  16
ENDBRANCH  14  15
ENDBRANCH   9  14
TORSDOF 3
ENDMDL
MODEL 5
REMARK VINA RESULT:      -7.0      3.591      6.776
REMARK  Name = 
REMARK  4 active torsions:
REMARK  status: ('A' for Active; 'I' for Inactive)
REMARK    1  A    between atoms: C_1  and  C_2
REMARK    2  A    between atoms: C_9  and  O_10
REMARK    3  A    between atoms: O_10  and  C_11
REMARK    4  A    between atoms: C_11  and  C_12
REMARK                            x       y       z     vdW  Elec       q    Type
REMARK                         _______ _______ _______ _____ _____    ______ ____
ROOT
ATOM      1  C   UNL     1       5.240   3.155  12.236  0.00  0.00    +0.000 C 
ATOM      2  C   UNL     1       6.206   3.979  13.035  0.00  0.00    +0.000 A 
ATOM      3  C   UNL     1       7.129   4.751  12.443  0.00  0.00    +0.000 A 
ATOM      4  C   UNL     1       8.091   5.582  13.183  0.00  0.00    +0.000 A 
ATOM      5  O   UNL     1       8.905   6.279  12.587  0.00  0.00    +0.000 OA
ATOM      6  O   UNL     1       8.026   5.529  14.565  0.00  0.00    +0.000 OA
ATOM      7  C   UNL     1       7.034   4.770  15.217  0.00  0.00    +0.000 A 
ATOM      8  C   UNL     1       6.992   4.881  16.609  0.00  0.00    +0.000 A 
ATOM      9  C   UNL     1       5.994   4.213  17.320  0.00  0.00    +0.000 A 
ATOM     10  C   UNL     1       5.111   3.378  16.624  0.00  0.00    +0.000 A 
ATOM     11 CL   UNL     1       3.869   2.501  17.449  0.00  0.00    +0.000 Cl
ATOM     12  C   UNL     1       5.180   3.261  15.229  0.00  0.00    +0.000 A 
ATOM     13  C   UNL     1       6.132   3.983  14.502  0.00  0.00    +0.000 A 
ENDROOT
BRANCH   9  14
ATOM     14  O   UNL     1       5.832   4.304  18.677  0.00  0.00    +0.000 OA
BRANCH  14  15
ATOM     15  C   UNL     1       5.340   5.542  19.176  0.00  0.00    +0.000 C 
BRANCH  15  16
ATOM     16  C   UNL     1       3.831   5.693  18.979  0.00  0.00    +0.000 C 
ATOM     17  O   UNL     1       3.388   6.503  18.162  0.00  0.00    +0.000 OA
ATOM     18  N   UNL     1       3.011   4.884  19.722  0.00  0.00    +0.000 N 
ATOM     19  C   UNL     1       3.401   3.884  20.701  0.00  0.00    +0.000 C 
ATOM     20  C   UNL     1       2.257   2.888  20.634  0.00  0.00    +0.000 C 
ATOM     21  C   UNL     1       1.035   3.773  20.401  0.00  0.00    +0.000 C 
ATOM     22  C   UNL     1       1.566   4.960  19.607  0.00  0.00    +0.000 C 
ENDBRANCH  15  16
ENDBRANCH  14  15
ENDBRANCH   9  14
TORSDOF 3
ENDMDL
MODEL 6
REMARK VINA RESULT:      -7.0      3.719      7.176
REMARK  Name = 
REMARK  4 active torsions:
REMARK  status: ('A' for Active; 'I' for Inactive)
REMARK    1  A    between atoms: C_1  and  C_2
REMARK    2  A    between atoms: C_9  and  O_10
REMARK    3  A    between atoms: O_10  and  C_11
REMARK    4  A    between atoms: C_11  and  C_12
REMARK                            x       y       z     vdW  Elec       q    Type
REMARK                         _______ _______ _______ _____ _____    ______ ____
ROOT
ATOM      1  C   UNL     1       4.537   3.641  19.151  0.00  0.00    +0.000 C 
ATOM      2  C   UNL     1       4.539   4.794  18.191  0.00  0.00    +0.000 A 
ATOM      3  C   UNL     1       5.227   4.750  17.041  0.00  0.00    +0.000 A 
ATOM      4  C   UNL     1       5.252   5.851  16.066  0.00  0.00    +0.000 A 
ATOM      5  O   UNL     1       5.889   5.750  15.024  0.00  0.00    +0.000 OA
ATOM      6  O   UNL     1       4.531   6.987  16.391  0.00  0.00    +0.000 OA
ATOM      7  C   UNL     1       3.755   7.045  17.565  0.00  0.00    +0.000 A 
ATOM      8  C   UNL     1       2.980   8.194  17.734  0.00  0.00    +0.000 A 
ATOM      9  C   UNL     1       2.133   8.294  18.838  0.00  0.00    +0.000 A 
ATOM     10  C   UNL     1       2.147   7.272  19.796  0.00  0.00    +0.000 A 
ATOM     11 CL   UNL     1       1.141   7.347  21.202  0.00  0.00    +0.000 Cl
ATOM     12  C   UNL     1       2.947   6.135  19.623  0.00  0.00    +0.000 A 
ATOM     13  C   UNL     1       3.745   5.994  18.483  0.00  0.00    +0.000 A 
ENDROOT
BRANCH   9  14
ATOM     14  O   UNL     1       1.291   9.351  19.063  0.00  0.00    +0.000 OA
BRANCH  14  15
ATOM     15  C   UNL     1       0.370   9.661  18.024  0.00  0.00    +0.000 C 
BRANCH  15  16
ATOM     16  C   UNL     1      -0.795  10.523  18.512  0.00  0.00    +0.000 C 
ATOM     17  O   UNL     1      -0.699  11.158  19.564  0.00  0.00    +0.000 OA
ATOM     18  N   UNL     1      -1.918  10.574  17.728  0.00  0.00    +0.000 N 
ATOM     19  C   UNL     1      -2.152   9.892  16.468  0.00  0.00    +0.000 C 
ATOM     20  C   UNL     1      -3.126  10.818  15.763  0.00  0.00    +0.000 C 
ATOM     21  C   UNL     1      -3.998  11.343  16.901  0.00  0.00    +0.000 C 
ATOM     22  C   UNL     1      -3.075  11.360  18.114  0.00  0.00    +0.000 C 
ENDBRANCH  15  16
ENDBRANCH  14  15
ENDBRANCH   9  14
TORSDOF 3
ENDMDL
MODEL 7
REMARK VINA RESULT:      -7.0      3.641      7.102
REMARK  Name = 
REMARK  4 active torsions:
REMARK  status: ('A' for Active; 'I' for Inactive)
REMARK    1  A    between atoms: C_1  and  C_2
REMARK    2  A    between atoms: C_9  and  O_10
REMARK    3  A    between atoms: O_10  and  C_11
REMARK    4  A    between atoms: C_11  and  C_12
REMARK                            x       y       z     vdW  Elec       q    Type
REMARK                         _______ _______ _______ _____ _____    ______ ____
ROOT
ATOM      1  C   UNL     1       8.553   5.929  12.776  0.00  0.00    +0.000 C 
ATOM      2  C   UNL     1       7.431   4.991  13.116  0.00  0.00    +0.000 A 
ATOM      3  C   UNL     1       6.873   4.198  12.190  0.00  0.00    +0.000 A 
ATOM      4  C   UNL     1       5.778   3.259  12.477  0.00  0.00    +0.000 A 
ATOM      5  O   UNL     1       5.315   2.549  11.592  0.00  0.00    +0.000 OA
ATOM      6  O   UNL     1       5.309   3.228  13.779  0.00  0.00    +0.000 OA
ATOM      7  C   UNL     1       5.910   4.009  14.787  0.00  0.00    +0.000 A 
ATOM      8  C   UNL     1       5.430   3.813  16.084  0.00  0.00    +0.000 A 
ATOM      9  C   UNL     1       6.022   4.500  17.144  0.00  0.00    +0.000 A 
ATOM     10  C   UNL     1       7.027   5.435  16.868  0.00  0.00    +0.000 A 
ATOM     11 CL   UNL     1       7.783   6.340  18.135  0.00  0.00    +0.000 Cl
ATOM     12  C   UNL     1       7.482   5.636  15.558  0.00  0.00    +0.000 A 
ATOM     13  C   UNL     1       6.944   4.899  14.498  0.00  0.00    +0.000 A 
ENDROOT
BRANCH   9  14
ATOM     14  O   UNL     1       5.664   4.333  18.457  0.00  0.00    +0.000 OA
BRANCH  14  15
ATOM     15  C   UNL     1       4.819   5.331  19.015  0.00  0.00    +0.000 C 
BRANCH  15  16
ATOM     16  C   UNL     1       3.380   5.228  18.509  0.00  0.00    +0.000 C 
ATOM     17  O   UNL     1       2.896   6.130  17.821  0.00  0.00    +0.000 OA
ATOM     18  N   UNL     1       2.675   4.096  18.827  0.00  0.00    +0.000 N 
ATOM     19  C   UNL     1       3.128   2.960  19.611  0.00  0.00    +0.000 C 
ATOM     20  C   UNL     1       2.304   1.816  19.046  0.00  0.00    +0.000 C 
ATOM     21  C   UNL     1       0.958   2.470  18.744  0.00  0.00    +0.000 C 
ATOM     22  C   UNL     1       1.302   3.913  18.396  0.00  0.00    +0.000 C 
ENDBRANCH  15  16
ENDBRANCH  14  15
ENDBRANCH   9  14
TORSDOF 3
ENDMDL
MODEL 8
REMARK VINA RESULT:      -7.0      3.304      6.937
REMARK  Name = 
REMARK  4 active torsions:
REMARK  status: ('A' for Active; 'I' for Inactive)
REMARK    1  A    between atoms: C_1  and  C_2
REMARK    2  A    between atoms: C_9  and  O_10
REMARK    3  A    between atoms: O_10  and  C_11
REMARK    4  A    between atoms: C_11  and  C_12
REMARK                            x       y       z     vdW  Elec       q    Type
REMARK                         _______ _______ _______ _____ _____    ______ ____
ROOT
ATOM      1  C   UNL     1       4.115   2.625  17.927  0.00  0.00    +0.000 C 
ATOM      2  C   UNL     1       4.383   3.971  17.320  0.00  0.00    +0.000 A 
ATOM      3  C   UNL     1       5.154   4.111  16.232  0.00  0.00    +0.000 A 
ATOM      4  C   UNL     1       5.439   5.407  15.597  0.00  0.00    +0.000 A 
ATOM      5  O   UNL     1       6.141   5.472  14.595  0.00  0.00    +0.000 OA
ATOM      6  O   UNL     1       4.880   6.526  16.189  0.00  0.00    +0.000 OA
ATOM      7  C   UNL     1       4.021   6.409  17.301  0.00  0.00    +0.000 A 
ATOM      8  C   UNL     1       3.425   7.591  17.744  0.00  0.00    +0.000 A 
ATOM      9  C   UNL     1       2.510   7.545  18.797  0.00  0.00    +0.000 A 
ATOM     10  C   UNL     1       2.278   6.321  19.438  0.00  0.00    +0.000 A 
ATOM     11 CL   UNL     1       1.177   6.200  20.767  0.00  0.00    +0.000 Cl
ATOM     12  C   UNL     1       2.902   5.147  18.995  0.00  0.00    +0.000 A 
ATOM     13  C   UNL     1       3.765   5.173  17.895  0.00  0.00    +0.000 A 
ENDROOT
BRANCH   9  14
ATOM     14  O   UNL     1       1.828   8.637  19.266  0.00  0.00    +0.000 OA
BRANCH  14  15
ATOM     15  C   UNL     1       1.270   9.505  18.287  0.00  0.00    +0.000 C 
BRANCH  15  16
ATOM     16  C   UNL     1       0.338  10.552  18.898  0.00  0.00    +0.000 C 
ATOM     17  O   UNL     1       0.739  11.292  19.798  0.00  0.00    +0.000 OA
ATOM     18  N   UNL     1      -0.932  10.643  18.389  0.00  0.00    +0.000 N 
ATOM     19  C   UNL     1      -1.521   9.848  17.326  0.00  0.00    +0.000 C 
ATOM     20  C   UNL     1      -2.551  10.795  16.734  0.00  0.00    +0.000 C 
ATOM     21  C   UNL     1      -3.074  11.551  17.953  0.00  0.00    +0.000 C 
ATOM     22  C   UNL     1      -1.888  11.602  18.909  0.00  0.00    +0.000 C 
ENDBRANCH  15  16
ENDBRANCH  14  15
ENDBRANCH   9  14
TORSDOF 3
ENDMDL
MODEL 9
REMARK VINA RESULT:      -6.9      3.636      7.711
REMARK  Name = 
REMARK  4 active torsions:
REMARK  status: ('A' for Active; 'I' for Inactive)
REMARK    1  A    between atoms: C_1  and  C_2
REMARK    2  A    between atoms: C_9  and  O_10
REMARK    3  A    between atoms: O_10  and  C_11
REMARK    4  A    between atoms: C_11  and  C_12
REMARK                            x       y       z     vdW  Elec       q    Type
REMARK                         _______ _______ _______ _____ _____    ______ ____
ROOT
ATOM      1  C   UNL     1       3.438   3.510  17.391  0.00  0.00    +0.000 C 
ATOM      2  C   UNL     1       2.995   3.806  18.793  0.00  0.00    +0.000 A 
ATOM      3  C   UNL     1       3.023   2.869  19.752  0.00  0.00    +0.000 A 
ATOM      4  C   UNL     1       2.606   3.113  21.141  0.00  0.00    +0.000 A 
ATOM      5  O   UNL     1       2.665   2.220  21.979  0.00  0.00    +0.000 OA
ATOM      6  O   UNL     1       2.148   4.385  21.439  0.00  0.00    +0.000 OA
ATOM      7  C   UNL     1       2.157   5.407  20.469  0.00  0.00    +0.000 A 
ATOM      8  C   UNL     1       1.781   6.677  20.910  0.00  0.00    +0.000 A 
ATOM      9  C   UNL     1       1.830   7.754  20.024  0.00  0.00    +0.000 A 
ATOM     10  C   UNL     1       2.174   7.515  18.688  0.00  0.00    +0.000 A 
ATOM     11 CL   UNL     1       2.227   8.801  17.532  0.00  0.00    +0.000 Cl
ATOM     12  C   UNL     1       2.527   6.229  18.255  0.00  0.00    +0.000 A 
ATOM     13  C   UNL     1       2.550   5.158  19.153  0.00  0.00    +0.000 A 
ENDROOT
BRANCH   9  14
ATOM     14  O   UNL     1       1.539   9.046  20.375  0.00  0.00    +0.000 OA
BRANCH  14  15
ATOM     15  C   UNL     1       0.321   9.254  21.078  0.00  0.00    +0.000 C 
BRANCH  15  16
ATOM     16  C   UNL     1      -0.531  10.361  20.456  0.00  0.00    +0.000 C 
ATOM     17  O   UNL     1      -0.686  10.416  19.235  0.00  0.00    +0.000 OA
ATOM     18  N   UNL     1      -1.123  11.258  21.307  0.00  0.00    +0.000 N 
ATOM     19  C   UNL     1      -1.036  11.297  22.756  0.00  0.00    +0.000 C 
ATOM     20  C   UNL     1      -2.352  11.942  23.152  0.00  0.00    +0.000 C 
ATOM     21  C   UNL     1      -2.590  12.963  22.043  0.00  0.00    +0.000 C 
ATOM     22  C   UNL     1      -1.944  12.346  20.809  0.00  0.00    +0.000 C 
ENDBRANCH  15  16
ENDBRANCH  14  15
ENDBRANCH   9  14
TORSDOF 3
ENDMDL
