MODEL 1
REMARK VINA RESULT:      -7.5      0.000      0.000
REMARK  Name = 
REMARK  7 active torsions:
REMARK  status: ('A' for Active; 'I' for Inactive)
REMARK    1  A    between atoms: CB_1  and  CA_2
REMARK    2  A    between atoms: CA_2  and  N_3
REMARK    3  A    between atoms: CA_2  and  C_19
REMARK    4  A    between atoms: C_4  and  C_6
REMARK    5  A    between atoms: C_6  and  C_7
REMARK    6  A    between atoms: C_10  and  C_11
REMARK    7  A    between atoms: C_19  and  OXT_21
REMARK                            x       y       z     vdW  Elec       q    Type
REMARK                         _______ _______ _______ _____ _____    ______ ____
ROOT
ATOM      1  C   UNK A   0       5.479   5.036  18.009  0.00  0.00    +0.000 A 
ATOM      2  C   UNK A   0       4.892   6.256  17.749  0.00  0.00    +0.000 A 
ATOM      3  S   UNK A   0       5.022   6.628  16.082  0.00  0.00    +0.000 S 
ATOM      4  C   UNK A   0       5.856   5.145  15.810  0.00  0.00    +0.000 A 
ATOM      5  N   UNK A   0       6.027   4.410  16.895  0.00  0.00    +0.000 NA
ENDROOT
BRANCH   4   6
ATOM      6  C   UNK A   0       6.306   4.740  14.468  0.00  0.00    +0.000 A 
ATOM      7  C   UNK A   0       7.421   5.386  13.904  0.00  0.00    +0.000 A 
ATOM      8  C   UNK A   0       7.879   5.053  12.627  0.00  0.00    +0.000 A 
ATOM      9  C   UNK A   0       7.223   4.070  11.890  0.00  0.00    +0.000 A 
ATOM     10  C   UNK A   0       6.111   3.432  12.432  0.00  0.00    +0.000 A 
ATOM     11 CL   UNK A   0       5.292   2.225  11.517  0.00  0.00    +0.000 Cl
ATOM     12  C   UNK A   0       5.649   3.760  13.709  0.00  0.00    +0.000 A 
ENDBRANCH   4   6
BRANCH   1  13
ATOM     13  C   UNK A   0       5.606   4.357  19.338  0.00  0.00    +0.000 C 
BRANCH  13  15
ATOM     14  N   ALA A   1       3.227   3.760  19.449  0.00  0.00    +0.000 N 
ATOM     15  C   UNK A   0       4.524   3.306  19.555  0.00  0.00    +0.000 C 
ATOM     16  O   UNK A   0       4.796   2.144  19.843  0.00  0.00    +0.000 OA
ATOM     17  H   ALA A   1       3.102   4.775  19.498  0.00  0.00    +0.000 HD
BRANCH  14  19
ATOM     18  CB  ALA A   1       1.299   3.347  20.923  0.00  0.00    +0.000 C 
ATOM     19  CA  ALA A   1       2.069   2.897  19.692  0.00  0.00    +0.000 C 
BRANCH  19  20
ATOM     20  C   ALA A   1       1.175   2.877  18.442  0.00  0.00    +0.000 C 
ATOM     21  O   ALA A   1       1.172   3.730  17.567  0.00  0.00    +0.000 OA
BRANCH  20  22
ATOM     22  OXT ALA A   1       0.298   1.839  18.442  0.00  0.00    +0.000 OA
ATOM     23  HXT ALA A   1       0.780   0.993  18.330  0.00  0.00    +0.000 HD
ENDBRANCH  20  22
ENDBRANCH  19  20
ENDBRANCH  14  19
ENDBRANCH  13  15
ENDBRANCH   1  13
TORSDOF 6
ENDMDL
MODEL 2
REMARK VINA RESULT:      -7.2      1.520      2.339
REMARK  Name = 
REMARK  7 active torsions:
REMARK  status: ('A' for Active; 'I' for Inactive)
REMARK    1  A    between atoms: CB_1  and  CA_2
REMARK    2  A    between atoms: CA_2  and  N_3
REMARK    3  A    between atoms: CA_2  and  C_19
REMARK    4  A    between atoms: C_4  and  C_6
REMARK    5  A    between atoms: C_6  and  C_7
REMARK    6  A    between atoms: C_10  and  C_11
REMARK    7  A    between atoms: C_19  and  OXT_21
REMARK                            x       y       z     vdW  Elec       q    Type
REMARK                         _______ _______ _______ _____ _____    ______ ____
ROOT
ATOM      1  C   UNK A   0       5.056   5.730  17.774  0.00  0.00    +0.000 A 
ATOM      2  C   UNK A   0       6.209   5.338  18.421  0.00  0.00    +0.000 A 
ATOM      3  S   UNK A   0       7.336   4.718  17.291  0.00  0.00    +0.000 S 
ATOM      4  C   UNK A   0       6.220   5.004  16.010  0.00  0.00    +0.000 A 
ATOM      5  N   UNK A   0       5.072   5.534  16.397  0.00  0.00    +0.000 NA
ENDROOT
BRANCH   4   6
ATOM      6  C   UNK A   0       6.549   4.701  14.608  0.00  0.00    +0.000 A 
ATOM      7  C   UNK A   0       7.559   5.445  13.974  0.00  0.00    +0.000 A 
ATOM      8  C   UNK A   0       7.900   5.211  12.639  0.00  0.00    +0.000 A 
ATOM      9  C   UNK A   0       7.227   4.229  11.915  0.00  0.00    +0.000 A 
ATOM     10  C   UNK A   0       6.217   3.493  12.528  0.00  0.00    +0.000 A 
ATOM     11 CL   UNK A   0       5.378   2.287  11.631  0.00  0.00    +0.000 Cl
ATOM     12  C   UNK A   0       5.873   3.723  13.862  0.00  0.00    +0.000 A 
ENDBRANCH   4   6
BRANCH   1  13
ATOM     13  C   UNK A   0       3.817   6.298  18.395  0.00  0.00    +0.000 C 
BRANCH  13  15
ATOM     14  N   ALA A   1       3.053   4.244  19.501  0.00  0.00    +0.000 N 
ATOM     15  C   UNK A   0       2.739   5.243  18.604  0.00  0.00    +0.000 C 
ATOM     16  O   UNK A   0       1.680   5.264  17.984  0.00  0.00    +0.000 OA
ATOM     17  H   ALA A   1       4.044   4.151  19.738  0.00  0.00    +0.000 HD
BRANCH  14  19
ATOM     18  CB  ALA A   1       2.402   1.978  18.795  0.00  0.00    +0.000 C 
ATOM     19  CA  ALA A   1       2.157   3.117  19.771  0.00  0.00    +0.000 C 
BRANCH  19  20
ATOM     20  C   ALA A   1       2.331   2.662  21.227  0.00  0.00    +0.000 C 
ATOM     21  O   ALA A   1       1.464   2.707  22.086  0.00  0.00    +0.000 OA
BRANCH  20  22
ATOM     22  OXT ALA A   1       3.604   2.274  21.505  0.00  0.00    +0.000 OA
ATOM     23  HXT ALA A   1       4.116   3.031  21.859  0.00  0.00    +0.000 HD
ENDBRANCH  20  22
ENDBRANCH  19  20
ENDBRANCH  14  19
ENDBRANCH  13  15
ENDBRANCH   1  13
TORSDOF 6
ENDMDL
MODEL 3
REMARK VINA RESULT:      -7.2      1.653      2.298
REMARK  Name = 
REMARK  7 active torsions:
REMARK  status: ('A' for Active; 'I' for Inactive)
REMARK    1  A    between atoms: CB_1  and  CA_2
REMARK    2  A    between atoms: CA_2  and  N_3
REMARK    3  A    between atoms: CA_2  and  C_19
REMARK    4  A    between atoms: C_4  and  C_6
REMARK    5  A    between atoms: C_6  and  C_7
REMARK    6  A    between atoms: C_10  and  C_11
REMARK    7  A    between atoms: C_19  and  OXT_21
REMARK                            x       y       z     vdW  Elec       q    Type
REMARK                         _______ _______ _______ _____ _____    ______ ____
ROOT
ATOM      1  C   UNK A   0       4.690   5.920  17.606  0.00  0.00    +0.000 A 
ATOM      2  C   UNK A   0       5.774   5.489  18.342  0.00  0.00    +0.000 A 
ATOM      3  S   UNK A   0       6.941   4.778  17.310  0.00  0.00    +0.000 S 
ATOM      4  C   UNK A   0       5.930   5.082  15.948  0.00  0.00    +0.000 A 
ATOM      5  N   UNK A   0       4.789   5.682  16.240  0.00  0.00    +0.000 NA
ENDROOT
BRANCH   4   6
ATOM      6  C   UNK A   0       6.337   4.719  14.581  0.00  0.00    +0.000 A 
ATOM      7  C   UNK A   0       7.461   5.350  14.018  0.00  0.00    +0.000 A 
ATOM      8  C   UNK A   0       7.880   5.057  12.718  0.00  0.00    +0.000 A 
ATOM      9  C   UNK A   0       7.174   4.128  11.956  0.00  0.00    +0.000 A 
ATOM     10  C   UNK A   0       6.053   3.505  12.496  0.00  0.00    +0.000 A 
ATOM     11 CL   UNK A   0       5.173   2.367  11.551  0.00  0.00    +0.000 Cl
ATOM     12  C   UNK A   0       5.630   3.795  13.796  0.00  0.00    +0.000 A 
ENDBRANCH   4   6
BRANCH   1  13
ATOM     13  C   UNK A   0       3.444   6.570  18.125  0.00  0.00    +0.000 C 
BRANCH  13  15
ATOM     14  N   ALA A   1       2.552   4.383  18.794  0.00  0.00    +0.000 N 
ATOM     15  C   UNK A   0       2.724   5.704  19.149  0.00  0.00    +0.000 C 
ATOM     16  O   UNK A   0       2.294   6.165  20.203  0.00  0.00    +0.000 OA
ATOM     17  H   ALA A   1       2.677   4.167  17.801  0.00  0.00    +0.000 HD
BRANCH  14  19
ATOM     18  CB  ALA A   1       1.345   2.237  18.820  0.00  0.00    +0.000 C 
ATOM     19  CA  ALA A   1       1.824   3.429  19.634  0.00  0.00    +0.000 C 
BRANCH  19  20
ATOM     20  C   ALA A   1       2.718   2.993  20.804  0.00  0.00    +0.000 C 
ATOM     21  O   ALA A   1       3.717   2.297  20.703  0.00  0.00    +0.000 OA
BRANCH  20  22
ATOM     22  OXT ALA A   1       2.233   3.390  22.010  0.00  0.00    +0.000 OA
ATOM     23  HXT ALA A   1       2.186   4.369  22.047  0.00  0.00    +0.000 HD
ENDBRANCH  20  22
ENDBRANCH  19  20
ENDBRANCH  14  19
ENDBRANCH  13  15
ENDBRANCH   1  13
TORSDOF 6
ENDMDL
MODEL 4
REMARK VINA RESULT:      -7.1      1.201      1.793
REMARK  Name = 
REMARK  7 active torsions:
REMARK  status: ('A' for Active; 'I' for Inactive)
REMARK    1  A    between atoms: CB_1  and  CA_2
REMARK    2  A    between atoms: CA_2  and  N_3
REMARK    3  A    between atoms: CA_2  and  C_19
REMARK    4  A    between atoms: C_4  and  C_6
REMARK    5  A    between atoms: C_6  and  C_7
REMARK    6  A    between atoms: C_10  and  C_11
REMARK    7  A    between atoms: C_19  and  OXT_21
REMARK                            x       y       z     vdW  Elec       q    Type
REMARK                         _______ _______ _______ _____ _____    ______ ____
ROOT
ATOM      1  C   UNK A   0       4.686   5.922  17.569  0.00  0.00    +0.000 A 
ATOM      2  C   UNK A   0       5.900   5.912  18.223  0.00  0.00    +0.000 A 
ATOM      3  S   UNK A   0       7.141   5.416  17.151  0.00  0.00    +0.000 S 
ATOM      4  C   UNK A   0       5.986   5.242  15.884  0.00  0.00    +0.000 A 
ATOM      5  N   UNK A   0       4.746   5.538  16.234  0.00  0.00    +0.000 NA
ENDROOT
BRANCH   4   6
ATOM      6  C   UNK A   0       6.375   4.825  14.528  0.00  0.00    +0.000 A 
ATOM      7  C   UNK A   0       7.523   5.393  13.948  0.00  0.00    +0.000 A 
ATOM      8  C   UNK A   0       7.928   5.045  12.656  0.00  0.00    +0.000 A 
ATOM      9  C   UNK A   0       7.184   4.125  11.921  0.00  0.00    +0.000 A 
ATOM     10  C   UNK A   0       6.039   3.564  12.480  0.00  0.00    +0.000 A 
ATOM     11 CL   UNK A   0       5.112   2.435  11.568  0.00  0.00    +0.000 Cl
ATOM     12  C   UNK A   0       5.630   3.907  13.771  0.00  0.00    +0.000 A 
ENDBRANCH   4   6
BRANCH   1  13
ATOM     13  C   UNK A   0       3.349   6.268  18.149  0.00  0.00    +0.000 C 
BRANCH  13  15
ATOM     14  N   ALA A   1       2.942   4.313  19.578  0.00  0.00    +0.000 N 
ATOM     15  C   UNK A   0       2.524   5.030  18.477  0.00  0.00    +0.000 C 
ATOM     16  O   UNK A   0       1.576   4.677  17.781  0.00  0.00    +0.000 OA
ATOM     17  H   ALA A   1       3.890   4.513  19.908  0.00  0.00    +0.000 HD
BRANCH  14  19
ATOM     18  CB  ALA A   1       0.868   3.304  20.438  0.00  0.00    +0.000 C 
ATOM     19  CA  ALA A   1       2.302   3.063  19.994  0.00  0.00    +0.000 C 
BRANCH  19  20
ATOM     20  C   ALA A   1       2.374   2.045  18.845  0.00  0.00    +0.000 C 
ATOM     21  O   ALA A   1       3.400   1.534  18.424  0.00  0.00    +0.000 OA
BRANCH  20  22
ATOM     22  OXT ALA A   1       1.165   1.824  18.265  0.00  0.00    +0.000 OA
ATOM     23  HXT ALA A   1       0.459   1.843  18.944  0.00  0.00    +0.000 HD
ENDBRANCH  20  22
ENDBRANCH  19  20
ENDBRANCH  14  19
ENDBRANCH  13  15
ENDBRANCH   1  13
TORSDOF 6
ENDMDL
MODEL 5
REMARK VINA RESULT:      -7.1      3.689      7.000
REMARK  Name = 
REMARK  7 active torsions:
REMARK  status: ('A' for Active; 'I' for Inactive)
REMARK    1  A    between atoms: CB_1  and  CA_2
REMARK    2  A    between atoms: CA_2  and  N_3
REMARK    3  A    between atoms: CA_2  and  C_19
REMARK    4  A    between atoms: C_4  and  C_6
REMARK    5  A    between atoms: C_6  and  C_7
REMARK    6  A    between atoms: C_10  and  C_11
REMARK    7  A    between atoms: C_19  and  OXT_21
REMARK                            x       y       z     vdW  Elec       q    Type
REMARK                         _______ _______ _______ _____ _____    ______ ____
ROOT
ATOM      1  C   UNK A   0       6.020   5.274  16.528  0.00  0.00    +0.000 A 
ATOM      2  C   UNK A   0       5.739   6.619  16.414  0.00  0.00    +0.000 A 
ATOM      3  S   UNK A   0       4.322   7.001  17.297  0.00  0.00    +0.000 S 
ATOM      4  C   UNK A   0       4.167   5.352  17.772  0.00  0.00    +0.000 A 
ATOM      5  N   UNK A   0       5.116   4.559  17.306  0.00  0.00    +0.000 NA
ENDROOT
BRANCH   4   6
ATOM      6  C   UNK A   0       3.076   4.894  18.648  0.00  0.00    +0.000 A 
ATOM      7  C   UNK A   0       2.845   5.576  19.856  0.00  0.00    +0.000 A 
ATOM      8  C   UNK A   0       1.835   5.172  20.732  0.00  0.00    +0.000 A 
ATOM      9  C   UNK A   0       1.041   4.072  20.415  0.00  0.00    +0.000 A 
ATOM     10  C   UNK A   0       1.266   3.382  19.227  0.00  0.00    +0.000 A 
ATOM     11 CL   UNK A   0       0.294   2.015  18.839  0.00  0.00    +0.000 Cl
ATOM     12  C   UNK A   0       2.275   3.781  18.347  0.00  0.00    +0.000 A 
ENDBRANCH   4   6
BRANCH   1  13
ATOM     13  C   UNK A   0       7.152   4.529  15.890  0.00  0.00    +0.000 C 
BRANCH  13  15
ATOM     14  N   ALA A   1       6.436   3.745  13.676  0.00  0.00    +0.000 N 
ATOM     15  C   UNK A   0       7.165   4.684  14.375  0.00  0.00    +0.000 C 
ATOM     16  O   UNK A   0       7.815   5.564  13.817  0.00  0.00    +0.000 OA
ATOM     17  H   ALA A   1       6.178   2.901  14.195  0.00  0.00    +0.000 HD
BRANCH  14  19
ATOM     18  CB  ALA A   1       7.738   3.293  11.637  0.00  0.00    +0.000 C 
ATOM     19  CA  ALA A   1       6.394   3.710  12.213  0.00  0.00    +0.000 C 
BRANCH  19  20
ATOM     20  C   ALA A   1       5.267   2.772  11.756  0.00  0.00    +0.000 C 
ATOM     21  O   ALA A   1       4.104   3.102  11.586  0.00  0.00    +0.000 OA
BRANCH  20  22
ATOM     22  OXT ALA A   1       5.676   1.481  11.638  0.00  0.00    +0.000 OA
ATOM     23  HXT ALA A   1       4.995   0.955  11.168  0.00  0.00    +0.000 HD
ENDBRANCH  20  22
ENDBRANCH  19  20
ENDBRANCH  14  19
ENDBRANCH  13  15
ENDBRANCH   1  13
TORSDOF 6
ENDMDL
MODEL 6
REMARK VINA RESULT:      -7.0      3.934      5.884
REMARK  Name = 
REMARK  7 active torsions:
REMARK  status: ('A' for Active; 'I' for Inactive)
REMARK    1  A    between atoms: CB_1  and  CA_2
REMARK    2  A    between atoms: CA_2  and  N_3
REMARK    3  A    between atoms: CA_2  and  C_19
REMARK    4  A    between atoms: C_4  and  C_6
REMARK    5  A    between atoms: C_6  and  C_7
REMARK    6  A    between atoms: C_10  and  C_11
REMARK    7  A    between atoms: C_19  and  OXT_21
REMARK                            x       y       z     vdW  Elec       q    Type
REMARK                         _______ _______ _______ _____ _____    ______ ____
ROOT
ATOM      1  C   UNK A   0       4.766   4.926  18.094  0.00  0.00    +0.000 A 
ATOM      2  C   UNK A   0       5.286   5.550  16.980  0.00  0.00    +0.000 A 
ATOM      3  S   UNK A   0       4.514   7.059  16.736  0.00  0.00    +0.000 S 
ATOM      4  C   UNK A   0       3.532   6.788  18.125  0.00  0.00    +0.000 A 
ATOM      5  N   UNK A   0       3.764   5.642  18.741  0.00  0.00    +0.000 NA
ENDROOT
BRANCH   4   6
ATOM      6  C   UNK A   0       2.543   7.777  18.584  0.00  0.00    +0.000 A 
ATOM      7  C   UNK A   0       2.130   8.784  17.694  0.00  0.00    +0.000 A 
ATOM      8  C   UNK A   0       1.207   9.759  18.084  0.00  0.00    +0.000 A 
ATOM      9  C   UNK A   0       0.687   9.743  19.376  0.00  0.00    +0.000 A 
ATOM     10  C   UNK A   0       1.096   8.758  20.270  0.00  0.00    +0.000 A 
ATOM     11 CL   UNK A   0       0.462   8.744  21.870  0.00  0.00    +0.000 Cl
ATOM     12  C   UNK A   0       2.018   7.781  19.886  0.00  0.00    +0.000 A 
ENDBRANCH   4   6
BRANCH   1  13
ATOM     13  C   UNK A   0       5.143   3.583  18.639  0.00  0.00    +0.000 C 
BRANCH  13  15
ATOM     14  N   ALA A   1       3.160   3.109  20.009  0.00  0.00    +0.000 N 
ATOM     15  C   UNK A   0       3.925   2.715  18.931  0.00  0.00    +0.000 C 
ATOM     16  O   UNK A   0       3.669   1.712  18.271  0.00  0.00    +0.000 OA
ATOM     17  H   ALA A   1       3.605   3.764  20.657  0.00  0.00    +0.000 HD
BRANCH  14  19
ATOM     18  CB  ALA A   1       1.807   2.486  21.968  0.00  0.00    +0.000 C 
ATOM     19  CA  ALA A   1       1.994   2.350  20.465  0.00  0.00    +0.000 C 
BRANCH  19  20
ATOM     20  C   ALA A   1       0.748   2.816  19.696  0.00  0.00    +0.000 C 
ATOM     21  O   ALA A   1       0.265   2.244  18.731  0.00  0.00    +0.000 OA
BRANCH  20  22
ATOM     22  OXT ALA A   1       0.270   4.006  20.145  0.00  0.00    +0.000 OA
ATOM     23  HXT ALA A   1      -0.474   4.303  19.580  0.00  0.00    +0.000 HD
ENDBRANCH  20  22
ENDBRANCH  19  20
ENDBRANCH  14  19
ENDBRANCH  13  15
ENDBRANCH   1  13
TORSDOF 6
ENDMDL
MODEL 7
REMARK VINA RESULT:      -6.9      4.599      7.128
REMARK  Name = 
REMARK  7 active torsions:
REMARK  status: ('A' for Active; 'I' for Inactive)
REMARK    1  A    between atoms: CB_1  and  CA_2
REMARK    2  A    between atoms: CA_2  and  N_3
REMARK    3  A    between atoms: CA_2  and  C_19
REMARK    4  A    between atoms: C_4  and  C_6
REMARK    5  A    between atoms: C_6  and  C_7
REMARK    6  A    between atoms: C_10  and  C_11
REMARK    7  A    between atoms: C_19  and  OXT_21
REMARK                            x       y       z     vdW  Elec       q    Type
REMARK                         _______ _______ _______ _____ _____    ______ ____
ROOT
ATOM      1  C   UNK A   0       3.621   4.090  19.696  0.00  0.00    +0.000 A 
ATOM      2  C   UNK A   0       2.507   3.642  20.374  0.00  0.00    +0.000 A 
ATOM      3  S   UNK A   0       1.358   4.904  20.518  0.00  0.00    +0.000 S 
ATOM      4  C   UNK A   0       2.415   5.970  19.672  0.00  0.00    +0.000 A 
ATOM      5  N   UNK A   0       3.559   5.421  19.299  0.00  0.00    +0.000 NA
ENDROOT
BRANCH   4   6
ATOM      6  C   UNK A   0       2.043   7.363  19.377  0.00  0.00    +0.000 A 
ATOM      7  C   UNK A   0       2.292   7.873  18.091  0.00  0.00    +0.000 A 
ATOM      8  C   UNK A   0       1.975   9.194  17.762  0.00  0.00    +0.000 A 
ATOM      9  C   UNK A   0       1.407  10.029  18.722  0.00  0.00    +0.000 A 
ATOM     10  C   UNK A   0       1.167   9.540  20.003  0.00  0.00    +0.000 A 
ATOM     11 CL   UNK A   0       0.476  10.574  21.194  0.00  0.00    +0.000 Cl
ATOM     12  C   UNK A   0       1.481   8.220  20.336  0.00  0.00    +0.000 A 
ENDBRANCH   4   6
BRANCH   1  13
ATOM     13  C   UNK A   0       4.863   3.314  19.382  0.00  0.00    +0.000 C 
BRANCH  13  15
ATOM     14  N   ALA A   1       5.842   4.173  17.301  0.00  0.00    +0.000 N 
ATOM     15  C   UNK A   0       5.912   4.164  18.678  0.00  0.00    +0.000 C 
ATOM     16  O   UNK A   0       6.784   4.766  19.298  0.00  0.00    +0.000 OA
ATOM     17  H   ALA A   1       5.284   3.428  16.876  0.00  0.00    +0.000 HD
BRANCH  14  19
ATOM     18  CB  ALA A   1       6.580   4.602  14.992  0.00  0.00    +0.000 C 
ATOM     19  CA  ALA A   1       6.813   4.886  16.467  0.00  0.00    +0.000 C 
BRANCH  19  20
ATOM     20  C   ALA A   1       6.742   6.389  16.772  0.00  0.00    +0.000 C 
ATOM     21  O   ALA A   1       7.692   7.157  16.743  0.00  0.00    +0.000 OA
BRANCH  20  22
ATOM     22  OXT ALA A   1       5.506   6.785  17.175  0.00  0.00    +0.000 OA
ATOM     23  HXT ALA A   1       5.247   7.606  16.707  0.00  0.00    +0.000 HD
ENDBRANCH  20  22
ENDBRANCH  19  20
ENDBRANCH  14  19
ENDBRANCH  13  15
ENDBRANCH   1  13
TORSDOF 6
ENDMDL
MODEL 8
REMARK VINA RESULT:      -6.8      4.564      7.577
REMARK  Name = 
REMARK  7 active torsions:
REMARK  status: ('A' for Active; 'I' for Inactive)
REMARK    1  A    between atoms: CB_1  and  CA_2
REMARK    2  A    between atoms: CA_2  and  N_3
REMARK    3  A    between atoms: CA_2  and  C_19
REMARK    4  A    between atoms: C_4  and  C_6
REMARK    5  A    between atoms: C_6  and  C_7
REMARK    6  A    between atoms: C_10  and  C_11
REMARK    7  A    between atoms: C_19  and  OXT_21
REMARK                            x       y       z     vdW  Elec       q    Type
REMARK                         _______ _______ _______ _____ _____    ______ ____
ROOT
ATOM      1  C   UNK A   0       3.230   4.439  18.325  0.00  0.00    +0.000 A 
ATOM      2  C   UNK A   0       3.023   3.728  19.488  0.00  0.00    +0.000 A 
ATOM      3  S   UNK A   0       2.326   4.740  20.681  0.00  0.00    +0.000 S 
ATOM      4  C   UNK A   0       2.345   6.063  19.578  0.00  0.00    +0.000 A 
ATOM      5  N   UNK A   0       2.839   5.773  18.387  0.00  0.00    +0.000 NA
ENDROOT
BRANCH   4   6
ATOM      6  C   UNK A   0       1.825   7.390  19.945  0.00  0.00    +0.000 A 
ATOM      7  C   UNK A   0       1.270   7.569  21.225  0.00  0.00    +0.000 A 
ATOM      8  C   UNK A   0       0.745   8.803  21.619  0.00  0.00    +0.000 A 
ATOM      9  C   UNK A   0       0.762   9.878  20.733  0.00  0.00    +0.000 A 
ATOM     10  C   UNK A   0       1.298   9.711  19.460  0.00  0.00    +0.000 A 
ATOM     11 CL   UNK A   0       1.310  11.035  18.360  0.00  0.00    +0.000 Cl
ATOM     12  C   UNK A   0       1.825   8.480  19.061  0.00  0.00    +0.000 A 
ENDBRANCH   4   6
BRANCH   1  13
ATOM     13  C   UNK A   0       3.841   3.938  17.053  0.00  0.00    +0.000 C 
BRANCH  13  15
ATOM     14  N   ALA A   1       5.700   5.395  17.726  0.00  0.00    +0.000 N 
ATOM     15  C   UNK A   0       5.297   4.362  16.906  0.00  0.00    +0.000 C 
ATOM     16  O   UNK A   0       6.046   3.842  16.083  0.00  0.00    +0.000 OA
ATOM     17  H   ALA A   1       4.950   5.945  18.153  0.00  0.00    +0.000 HD
BRANCH  14  19
ATOM     18  CB  ALA A   1       7.020   7.367  17.073  0.00  0.00    +0.000 C 
ATOM     19  CA  ALA A   1       7.046   5.968  17.667  0.00  0.00    +0.000 C 
BRANCH  19  20
ATOM     20  C   ALA A   1       7.667   5.961  19.072  0.00  0.00    +0.000 C 
ATOM     21  O   ALA A   1       7.345   5.208  19.978  0.00  0.00    +0.000 OA
BRANCH  20  22
ATOM     22  OXT ALA A   1       8.573   6.959  19.249  0.00  0.00    +0.000 OA
ATOM     23  HXT ALA A   1       8.399   7.424  20.094  0.00  0.00    +0.000 HD
ENDBRANCH  20  22
ENDBRANCH  19  20
ENDBRANCH  14  19
ENDBRANCH  13  15
ENDBRANCH   1  13
TORSDOF 6
ENDMDL
MODEL 9
REMARK VINA RESULT:      -6.8      6.104      9.068
REMARK  Name = 
REMARK  7 active torsions:
REMARK  status: ('A' for Active; 'I' for Inactive)
REMARK    1  A    between atoms: CB_1  and  CA_2
REMARK    2  A    between atoms: CA_2  and  N_3
REMARK    3  A    between atoms: CA_2  and  C_19
REMARK    4  A    between atoms: C_4  and  C_6
REMARK    5  A    between atoms: C_6  and  C_7
REMARK    6  A    between atoms: C_10  and  C_11
REMARK    7  A    between atoms: C_19  and  OXT_21
REMARK                            x       y       z     vdW  Elec       q    Type
REMARK                         _______ _______ _______ _____ _____    ______ ____
ROOT
ATOM      1  C   UNK A   0       2.295   7.386  19.427  0.00  0.00    +0.000 A 
ATOM      2  C   UNK A   0       2.297   8.143  18.274  0.00  0.00    +0.000 A 
ATOM      3  S   UNK A   0       1.370   9.564  18.502  0.00  0.00    +0.000 S 
ATOM      4  C   UNK A   0       1.019   9.084  20.119  0.00  0.00    +0.000 A 
ATOM      5  N   UNK A   0       1.562   7.933  20.475  0.00  0.00    +0.000 NA
ENDROOT
BRANCH   4   6
ATOM      6  C   UNK A   0       0.204   9.916  21.019  0.00  0.00    +0.000 A 
ATOM      7  C   UNK A   0      -0.046   9.457  22.325  0.00  0.00    +0.000 A 
ATOM      8  C   UNK A   0      -0.828  10.198  23.214  0.00  0.00    +0.000 A 
ATOM      9  C   UNK A   0      -1.379  11.411  22.807  0.00  0.00    +0.000 A 
ATOM     10  C   UNK A   0      -1.149  11.871  21.513  0.00  0.00    +0.000 A 
ATOM     11 CL   UNK A   0      -1.838  13.364  21.005  0.00  0.00    +0.000 Cl
ATOM     12  C   UNK A   0      -0.367  11.134  20.620  0.00  0.00    +0.000 A 
ENDBRANCH   4   6
BRANCH   1  13
ATOM     13  C   UNK A   0       2.961   6.061  19.642  0.00  0.00    +0.000 C 
BRANCH  13  15
ATOM     14  N   ALA A   1       4.729   5.647  17.989  0.00  0.00    +0.000 N 
ATOM     15  C   UNK A   0       3.413   5.424  18.335  0.00  0.00    +0.000 C 
ATOM     16  O   UNK A   0       2.642   4.787  17.621  0.00  0.00    +0.000 OA
ATOM     17  H   ALA A   1       5.196   6.413  18.482  0.00  0.00    +0.000 HD
BRANCH  14  19
ATOM     18  CB  ALA A   1       5.285   6.244  15.667  0.00  0.00    +0.000 C 
ATOM     19  CA  ALA A   1       5.307   5.162  16.734  0.00  0.00    +0.000 C 
BRANCH  19  20
ATOM     20  C   ALA A   1       6.732   4.650  16.993  0.00  0.00    +0.000 C 
ATOM     21  O   ALA A   1       7.645   4.677  16.182  0.00  0.00    +0.000 OA
BRANCH  20  22
ATOM     22  OXT ALA A   1       6.866   4.067  18.213  0.00  0.00    +0.000 OA
ATOM     23  HXT ALA A   1       6.629   4.706  18.918  0.00  0.00    +0.000 HD
ENDBRANCH  20  22
ENDBRANCH  19  20
ENDBRANCH  14  19
ENDBRANCH  13  15
ENDBRANCH   1  13
TORSDOF 6
ENDMDL
