MODEL 1
REMARK VINA RESULT:      -7.3      0.000      0.000
REMARK  Name = 
REMARK  4 active torsions:
REMARK  status: ('A' for Active; 'I' for Inactive)
REMARK    1  A    between atoms: C_1  and  N_2
REMARK    2  A    between atoms: C_3  and  C_5
REMARK    3  A    between atoms: C_12  and  C_13
REMARK    4  A    between atoms: C_16  and  C_17
REMARK                            x       y       z     vdW  Elec       q    Type
REMARK                         _______ _______ _______ _____ _____    ______ ____
ROOT
ATOM      1  C   UNL     1       6.702   4.882  14.941  0.00  0.00    +0.000 A 
ATOM      2  C   UNL     1       7.448   4.200  15.905  0.00  0.00    +0.000 A 
ATOM      3  C   UNL     1       7.174   4.407  17.255  0.00  0.00    +0.000 A 
ATOM      4  C   UNL     1       6.142   5.272  17.644  0.00  0.00    +0.000 A 
ATOM      5  C   UNL     1       5.320   5.887  16.684  0.00  0.00    +0.000 A 
ATOM      6  C   UNL     1       5.635   5.702  15.334  0.00  0.00    +0.000 A 
ATOM      7  N   UNL     1       4.267   6.777  16.966  0.00  0.00    +0.000 NA
ATOM      8  C   UNL     1       3.335   6.572  17.852  0.00  0.00    +0.000 C 
ATOM      9  C   UNL     1       2.298   7.673  17.987  0.00  0.00    +0.000 C 
ATOM     10  C   UNL     1       3.172   5.392  18.759  0.00  0.00    +0.000 A 
ATOM     11  C   UNL     1       1.895   4.839  18.946  0.00  0.00    +0.000 A 
ATOM     12  C   UNL     1       1.703   3.744  19.806  0.00  0.00    +0.000 A 
ATOM     13  C   UNL     1       0.340   3.176  20.060  0.00  0.00    +0.000 C 
ATOM     14  C   UNL     1       2.810   3.180  20.447  0.00  0.00    +0.000 A 
ATOM     15  C   UNL     1       4.075   3.737  20.283  0.00  0.00    +0.000 A 
ATOM     16  C   UNL     1       4.257   4.859  19.466  0.00  0.00    +0.000 A 
ATOM     17  S   UNL     1       5.897   5.543  19.385  0.00  0.00    +0.000 S 
ENDROOT
BRANCH   1  20
ATOM     18  C   UNL     1       6.806   3.360  11.486  0.00  0.00    +0.000 C 
ATOM     19  N   UNL     1       6.544   3.624  12.874  0.00  0.00    +0.000 N 
ATOM     20  C   UNL     1       7.070   4.732  13.507  0.00  0.00    +0.000 C 
ATOM     21  O   UNL     1       7.764   5.570  12.952  0.00  0.00    +0.000 OA
ATOM     22  H   UNL     1       5.844   3.064  13.340  0.00  0.00    +0.000 HD
ENDBRANCH   1  20
TORSDOF 1
ENDMDL
MODEL 2
REMARK VINA RESULT:      -6.2      7.371      9.708
REMARK  Name = 
REMARK  4 active torsions:
REMARK  status: ('A' for Active; 'I' for Inactive)
REMARK    1  A    between atoms: C_1  and  N_2
REMARK    2  A    between atoms: C_3  and  C_5
REMARK    3  A    between atoms: C_12  and  C_13
REMARK    4  A    between atoms: C_16  and  C_17
REMARK                            x       y       z     vdW  Elec       q    Type
REMARK                         _______ _______ _______ _____ _____    ______ ____
ROOT
ATOM      1  C   UNL     1       3.646  15.204  18.542  0.00  0.00    +0.000 A 
ATOM      2  C   UNL     1       2.520  15.966  18.861  0.00  0.00    +0.000 A 
ATOM      3  C   UNL     1       1.266  15.359  18.875  0.00  0.00    +0.000 A 
ATOM      4  C   UNL     1       1.136  13.991  18.598  0.00  0.00    +0.000 A 
ATOM      5  C   UNL     1       2.272  13.194  18.374  0.00  0.00    +0.000 A 
ATOM      6  C   UNL     1       3.519  13.825  18.322  0.00  0.00    +0.000 A 
ATOM      7  N   UNL     1       2.253  11.818  18.079  0.00  0.00    +0.000 NA
ATOM      8  C   UNL     1       1.569  10.924  18.734  0.00  0.00    +0.000 C 
ATOM      9  C   UNL     1       1.700   9.496  18.236  0.00  0.00    +0.000 C 
ATOM     10  C   UNL     1       0.663  11.137  19.906  0.00  0.00    +0.000 A 
ATOM     11  C   UNL     1       0.717  10.246  20.990  0.00  0.00    +0.000 A 
ATOM     12  C   UNL     1      -0.134  10.405  22.097  0.00  0.00    +0.000 A 
ATOM     13  C   UNL     1      -0.128   9.432  23.237  0.00  0.00    +0.000 C 
ATOM     14  C   UNL     1      -1.014  11.491  22.128  0.00  0.00    +0.000 A 
ATOM     15  C   UNL     1      -1.088  12.365  21.049  0.00  0.00    +0.000 A 
ATOM     16  C   UNL     1      -0.276  12.177  19.924  0.00  0.00    +0.000 A 
ATOM     17  S   UNL     1      -0.503  13.302  18.565  0.00  0.00    +0.000 S 
ENDROOT
BRANCH   1  20
ATOM     18  C   UNL     1       7.362  15.580  17.980  0.00  0.00    +0.000 C 
ATOM     19  N   UNL     1       6.031  15.059  18.131  0.00  0.00    +0.000 N 
ATOM     20  C   UNL     1       4.966  15.883  18.430  0.00  0.00    +0.000 C 
ATOM     21  O   UNL     1       5.055  17.093  18.565  0.00  0.00    +0.000 OA
ATOM     22  H   UNL     1       5.865  14.097  17.867  0.00  0.00    +0.000 HD
ENDBRANCH   1  20
TORSDOF 1
ENDMDL
MODEL 3
REMARK VINA RESULT:      -6.2      5.115      8.258
REMARK  Name = 
REMARK  4 active torsions:
REMARK  status: ('A' for Active; 'I' for Inactive)
REMARK    1  A    between atoms: C_1  and  N_2
REMARK    2  A    between atoms: C_3  and  C_5
REMARK    3  A    between atoms: C_12  and  C_13
REMARK    4  A    between atoms: C_16  and  C_17
REMARK                            x       y       z     vdW  Elec       q    Type
REMARK                         _______ _______ _______ _____ _____    ______ ____
ROOT
ATOM      1  C   UNL     1       2.273   7.022  19.639  0.00  0.00    +0.000 A 
ATOM      2  C   UNL     1       2.472   7.391  18.306  0.00  0.00    +0.000 A 
ATOM      3  C   UNL     1       1.912   8.575  17.833  0.00  0.00    +0.000 A 
ATOM      4  C   UNL     1       1.176   9.405  18.692  0.00  0.00    +0.000 A 
ATOM      5  C   UNL     1       1.053   9.095  20.057  0.00  0.00    +0.000 A 
ATOM      6  C   UNL     1       1.585   7.882  20.507  0.00  0.00    +0.000 A 
ATOM      7  N   UNL     1       0.332   9.851  20.999  0.00  0.00    +0.000 NA
ATOM      8  C   UNL     1       0.422  11.142  21.146  0.00  0.00    +0.000 C 
ATOM      9  C   UNL     1      -0.454  11.747  22.229  0.00  0.00    +0.000 C 
ATOM     10  C   UNL     1       1.272  12.098  20.369  0.00  0.00    +0.000 A 
ATOM     11  C   UNL     1       1.967  13.111  21.050  0.00  0.00    +0.000 A 
ATOM     12  C   UNL     1       2.758  14.038  20.349  0.00  0.00    +0.000 A 
ATOM     13  C   UNL     1       3.463  15.158  21.052  0.00  0.00    +0.000 C 
ATOM     14  C   UNL     1       2.879  13.917  18.961  0.00  0.00    +0.000 A 
ATOM     15  C   UNL     1       2.176  12.930  18.279  0.00  0.00    +0.000 A 
ATOM     16  C   UNL     1       1.348  12.038  18.972  0.00  0.00    +0.000 A 
ATOM     17  S   UNL     1       0.431  10.864  18.000  0.00  0.00    +0.000 S 
ENDROOT
BRANCH   1  20
ATOM     18  C   UNL     1       2.265   3.663  21.366  0.00  0.00    +0.000 C 
ATOM     19  N   UNL     1       1.905   4.959  20.858  0.00  0.00    +0.000 N 
ATOM     20  C   UNL     1       2.788   5.707  20.107  0.00  0.00    +0.000 C 
ATOM     21  O   UNL     1       3.909   5.333  19.797  0.00  0.00    +0.000 OA
ATOM     22  H   UNL     1       0.940   5.249  20.936  0.00  0.00    +0.000 HD
ENDBRANCH   1  20
TORSDOF 1
ENDMDL
MODEL 4
REMARK VINA RESULT:      -6.1      5.151      7.997
REMARK  Name = 
REMARK  4 active torsions:
REMARK  status: ('A' for Active; 'I' for Inactive)
REMARK    1  A    between atoms: C_1  and  N_2
REMARK    2  A    between atoms: C_3  and  C_5
REMARK    3  A    between atoms: C_12  and  C_13
REMARK    4  A    between atoms: C_16  and  C_17
REMARK                            x       y       z     vdW  Elec       q    Type
REMARK                         _______ _______ _______ _____ _____    ______ ____
ROOT
ATOM      1  C   UNL     1       2.499   7.092  19.350  0.00  0.00    +0.000 A 
ATOM      2  C   UNL     1       2.509   7.593  18.046  0.00  0.00    +0.000 A 
ATOM      3  C   UNL     1       1.726   8.703  17.734  0.00  0.00    +0.000 A 
ATOM      4  C   UNL     1       0.957   9.329  18.725  0.00  0.00    +0.000 A 
ATOM      5  C   UNL     1       1.016   8.896  20.061  0.00  0.00    +0.000 A 
ATOM      6  C   UNL     1       1.772   7.755  20.349  0.00  0.00    +0.000 A 
ATOM      7  N   UNL     1       0.279   9.446  21.126  0.00  0.00    +0.000 NA
ATOM      8  C   UNL     1       0.180  10.718  21.385  0.00  0.00    +0.000 C 
ATOM      9  C   UNL     1      -0.672  11.083  22.589  0.00  0.00    +0.000 C 
ATOM     10  C   UNL     1       0.790  11.860  20.635  0.00  0.00    +0.000 A 
ATOM     11  C   UNL     1       1.381  12.916  21.348  0.00  0.00    +0.000 A 
ATOM     12  C   UNL     1       1.945  14.013  20.675  0.00  0.00    +0.000 A 
ATOM     13  C   UNL     1       2.530  15.174  21.419  0.00  0.00    +0.000 C 
ATOM     14  C   UNL     1       1.950  14.024  19.276  0.00  0.00    +0.000 A 
ATOM     15  C   UNL     1       1.347  12.992  18.564  0.00  0.00    +0.000 A 
ATOM     16  C   UNL     1       0.740  11.924  19.236  0.00  0.00    +0.000 A 
ATOM     17  S   UNL     1      -0.071  10.696  18.237  0.00  0.00    +0.000 S 
ENDROOT
BRANCH   1  20
ATOM     18  C   UNL     1       5.256   4.521  19.115  0.00  0.00    +0.000 C 
ATOM     19  N   UNL     1       4.417   5.673  18.923  0.00  0.00    +0.000 N 
ATOM     20  C   UNL     1       3.257   5.846  19.648  0.00  0.00    +0.000 C 
ATOM     21  O   UNL     1       2.865   5.072  20.507  0.00  0.00    +0.000 OA
ATOM     22  H   UNL     1       4.772   6.428  18.352  0.00  0.00    +0.000 HD
ENDBRANCH   1  20
TORSDOF 1
ENDMDL
MODEL 5
REMARK VINA RESULT:      -6.1      7.672     11.354
REMARK  Name = 
REMARK  4 active torsions:
REMARK  status: ('A' for Active; 'I' for Inactive)
REMARK    1  A    between atoms: C_1  and  N_2
REMARK    2  A    between atoms: C_3  and  C_5
REMARK    3  A    between atoms: C_12  and  C_13
REMARK    4  A    between atoms: C_16  and  C_17
REMARK                            x       y       z     vdW  Elec       q    Type
REMARK                         _______ _______ _______ _____ _____    ______ ____
ROOT
ATOM      1  C   UNL     1      -3.824  11.916  18.919  0.00  0.00    +0.000 A 
ATOM      2  C   UNL     1      -3.749  12.645  20.108  0.00  0.00    +0.000 A 
ATOM      3  C   UNL     1      -2.582  12.596  20.868  0.00  0.00    +0.000 A 
ATOM      4  C   UNL     1      -1.483  11.843  20.432  0.00  0.00    +0.000 A 
ATOM      5  C   UNL     1      -1.511  11.187  19.189  0.00  0.00    +0.000 A 
ATOM      6  C   UNL     1      -2.703  11.211  18.459  0.00  0.00    +0.000 A 
ATOM      7  N   UNL     1      -0.469  10.400  18.663  0.00  0.00    +0.000 NA
ATOM      8  C   UNL     1       0.783  10.754  18.618  0.00  0.00    +0.000 C 
ATOM      9  C   UNL     1       1.735   9.741  18.005  0.00  0.00    +0.000 C 
ATOM     10  C   UNL     1       1.396  12.029  19.106  0.00  0.00    +0.000 A 
ATOM     11  C   UNL     1       2.357  12.679  18.315  0.00  0.00    +0.000 A 
ATOM     12  C   UNL     1       2.967  13.866  18.753  0.00  0.00    +0.000 A 
ATOM     13  C   UNL     1       4.034  14.544  17.948  0.00  0.00    +0.000 C 
ATOM     14  C   UNL     1       2.576  14.421  19.976  0.00  0.00    +0.000 A 
ATOM     15  C   UNL     1       1.641  13.771  20.775  0.00  0.00    +0.000 A 
ATOM     16  C   UNL     1       1.071  12.561  20.361  0.00  0.00    +0.000 A 
ATOM     17  S   UNL     1      -0.054  11.770  21.488  0.00  0.00    +0.000 S 
ENDROOT
BRANCH   1  20
ATOM     18  C   UNL     1      -6.815  13.257  17.043  0.00  0.00    +0.000 C 
ATOM     19  N   UNL     1      -5.591  13.129  17.785  0.00  0.00    +0.000 N 
ATOM     20  C   UNL     1      -5.109  11.894  18.169  0.00  0.00    +0.000 C 
ATOM     21  O   UNL     1      -5.654  10.835  17.900  0.00  0.00    +0.000 OA
ATOM     22  H   UNL     1      -5.011  13.950  17.890  0.00  0.00    +0.000 HD
ENDBRANCH   1  20
TORSDOF 1
ENDMDL
MODEL 6
REMARK VINA RESULT:      -6.1      5.721      8.868
REMARK  Name = 
REMARK  4 active torsions:
REMARK  status: ('A' for Active; 'I' for Inactive)
REMARK    1  A    between atoms: C_1  and  N_2
REMARK    2  A    between atoms: C_3  and  C_5
REMARK    3  A    between atoms: C_12  and  C_13
REMARK    4  A    between atoms: C_16  and  C_17
REMARK                            x       y       z     vdW  Elec       q    Type
REMARK                         _______ _______ _______ _____ _____    ______ ____
ROOT
ATOM      1  C   UNL     1       1.867   7.830  19.493  0.00  0.00    +0.000 A 
ATOM      2  C   UNL     1       1.903   8.335  18.191  0.00  0.00    +0.000 A 
ATOM      3  C   UNL     1       1.189   9.492  17.886  0.00  0.00    +0.000 A 
ATOM      4  C   UNL     1       0.462  10.160  18.882  0.00  0.00    +0.000 A 
ATOM      5  C   UNL     1       0.500   9.718  20.216  0.00  0.00    +0.000 A 
ATOM      6  C   UNL     1       1.186   8.532  20.497  0.00  0.00    +0.000 A 
ATOM      7  N   UNL     1      -0.198  10.308  21.286  0.00  0.00    +0.000 NA
ATOM      8  C   UNL     1      -0.219  11.583  21.551  0.00  0.00    +0.000 C 
ATOM      9  C   UNL     1      -1.042  11.994  22.759  0.00  0.00    +0.000 C 
ATOM     10  C   UNL     1       0.458  12.688  20.802  0.00  0.00    +0.000 A 
ATOM     11  C   UNL     1       1.114  13.703  21.517  0.00  0.00    +0.000 A 
ATOM     12  C   UNL     1       1.742  14.766  20.846  0.00  0.00    +0.000 A 
ATOM     13  C   UNL     1       2.400  15.886  21.593  0.00  0.00    +0.000 C 
ATOM     14  C   UNL     1       1.742  14.783  19.448  0.00  0.00    +0.000 A 
ATOM     15  C   UNL     1       1.075  13.793  18.734  0.00  0.00    +0.000 A 
ATOM     16  C   UNL     1       0.406  12.761  19.404  0.00  0.00    +0.000 A 
ATOM     17  S   UNL     1      -0.482  11.589  18.404  0.00  0.00    +0.000 S 
ENDROOT
BRANCH   1  20
ATOM     18  C   UNL     1       2.484   4.474  21.111  0.00  0.00    +0.000 C 
ATOM     19  N   UNL     1       1.942   5.753  20.740  0.00  0.00    +0.000 N 
ATOM     20  C   UNL     1       2.549   6.539  19.782  0.00  0.00    +0.000 C 
ATOM     21  O   UNL     1       3.555   6.217  19.170  0.00  0.00    +0.000 OA
ATOM     22  H   UNL     1       1.025   5.998  21.085  0.00  0.00    +0.000 HD
ENDBRANCH   1  20
TORSDOF 1
ENDMDL
MODEL 7
REMARK VINA RESULT:      -5.9      9.806     12.848
REMARK  Name = 
REMARK  4 active torsions:
REMARK  status: ('A' for Active; 'I' for Inactive)
REMARK    1  A    between atoms: C_1  and  N_2
REMARK    2  A    between atoms: C_3  and  C_5
REMARK    3  A    between atoms: C_12  and  C_13
REMARK    4  A    between atoms: C_16  and  C_17
REMARK                            x       y       z     vdW  Elec       q    Type
REMARK                         _______ _______ _______ _____ _____    ______ ____
ROOT
ATOM      1  C   UNL     1      -1.891  11.306  18.416  0.00  0.00    +0.000 A 
ATOM      2  C   UNL     1      -2.515  10.856  17.249  0.00  0.00    +0.000 A 
ATOM      3  C   UNL     1      -3.895  10.987  17.117  0.00  0.00    +0.000 A 
ATOM      4  C   UNL     1      -4.651  11.589  18.133  0.00  0.00    +0.000 A 
ATOM      5  C   UNL     1      -4.024  12.135  19.267  0.00  0.00    +0.000 A 
ATOM      6  C   UNL     1      -2.643  11.958  19.404  0.00  0.00    +0.000 A 
ATOM      7  N   UNL     1      -4.687  12.749  20.345  0.00  0.00    +0.000 NA
ATOM      8  C   UNL     1      -5.610  13.661  20.231  0.00  0.00    +0.000 C 
ATOM      9  C   UNL     1      -6.189  14.183  21.535  0.00  0.00    +0.000 C 
ATOM     10  C   UNL     1      -6.177  14.243  18.974  0.00  0.00    +0.000 A 
ATOM     11  C   UNL     1      -6.391  15.629  18.892  0.00  0.00    +0.000 A 
ATOM     12  C   UNL     1      -6.940  16.206  17.735  0.00  0.00    +0.000 A 
ATOM     13  C   UNL     1      -7.226  17.674  17.650  0.00  0.00    +0.000 C 
ATOM     14  C   UNL     1      -7.235  15.387  16.641  0.00  0.00    +0.000 A 
ATOM     15  C   UNL     1      -7.047  14.011  16.723  0.00  0.00    +0.000 A 
ATOM     16  C   UNL     1      -6.547  13.430  17.895  0.00  0.00    +0.000 A 
ATOM     17  S   UNL     1      -6.416  11.657  17.927  0.00  0.00    +0.000 S 
ENDROOT
BRANCH   1  20
ATOM     18  C   UNL     1       1.473   9.650  17.962  0.00  0.00    +0.000 C 
ATOM     19  N   UNL     1       0.077   9.990  17.897  0.00  0.00    +0.000 N 
ATOM     20  C   UNL     1      -0.433  11.069  18.589  0.00  0.00    +0.000 C 
ATOM     21  O   UNL     1       0.241  11.819  19.278  0.00  0.00    +0.000 OA
ATOM     22  H   UNL     1      -0.496   9.513  17.215  0.00  0.00    +0.000 HD
ENDBRANCH   1  20
TORSDOF 1
ENDMDL
MODEL 8
REMARK VINA RESULT:      -5.9      9.388     10.831
REMARK  Name = 
REMARK  4 active torsions:
REMARK  status: ('A' for Active; 'I' for Inactive)
REMARK    1  A    between atoms: C_1  and  N_2
REMARK    2  A    between atoms: C_3  and  C_5
REMARK    3  A    between atoms: C_12  and  C_13
REMARK    4  A    between atoms: C_16  and  C_17
REMARK                            x       y       z     vdW  Elec       q    Type
REMARK                         _______ _______ _______ _____ _____    ______ ____
ROOT
ATOM      1  C   UNL     1       2.526  14.311  19.905  0.00  0.00    +0.000 A 
ATOM      2  C   UNL     1       1.572  14.762  18.989  0.00  0.00    +0.000 A 
ATOM      3  C   UNL     1       0.398  14.034  18.810  0.00  0.00    +0.000 A 
ATOM      4  C   UNL     1       0.161  12.873  19.560  0.00  0.00    +0.000 A 
ATOM      5  C   UNL     1       1.067  12.465  20.554  0.00  0.00    +0.000 A 
ATOM      6  C   UNL     1       2.260  13.182  20.692  0.00  0.00    +0.000 A 
ATOM      7  N   UNL     1       0.931  11.315  21.354  0.00  0.00    +0.000 NA
ATOM      8  C   UNL     1      -0.153  10.972  21.988  0.00  0.00    +0.000 C 
ATOM      9  C   UNL     1      -0.070   9.686  22.792  0.00  0.00    +0.000 C 
ATOM     10  C   UNL     1      -1.470  11.683  22.010  0.00  0.00    +0.000 A 
ATOM     11  C   UNL     1      -2.158  11.823  23.226  0.00  0.00    +0.000 A 
ATOM     12  C   UNL     1      -3.405  12.467  23.278  0.00  0.00    +0.000 A 
ATOM     13  C   UNL     1      -4.178  12.577  24.557  0.00  0.00    +0.000 C 
ATOM     14  C   UNL     1      -3.941  13.009  22.106  0.00  0.00    +0.000 A 
ATOM     15  C   UNL     1      -3.276  12.854  20.894  0.00  0.00    +0.000 A 
ATOM     16  C   UNL     1      -2.057  12.168  20.834  0.00  0.00    +0.000 A 
ATOM     17  S   UNL     1      -1.326  11.957  19.226  0.00  0.00    +0.000 S 
ENDROOT
BRANCH   1  20
ATOM     18  C   UNL     1       5.126  16.964  19.227  0.00  0.00    +0.000 C 
ATOM     19  N   UNL     1       3.936  16.158  19.215  0.00  0.00    +0.000 N 
ATOM     20  C   UNL     1       3.819  15.039  20.013  0.00  0.00    +0.000 C 
ATOM     21  O   UNL     1       4.680  14.661  20.792  0.00  0.00    +0.000 OA
ATOM     22  H   UNL     1       3.128  16.511  18.722  0.00  0.00    +0.000 HD
ENDBRANCH   1  20
TORSDOF 1
ENDMDL
MODEL 9
REMARK VINA RESULT:      -5.9      8.847     10.197
REMARK  Name = 
REMARK  4 active torsions:
REMARK  status: ('A' for Active; 'I' for Inactive)
REMARK    1  A    between atoms: C_1  and  N_2
REMARK    2  A    between atoms: C_3  and  C_5
REMARK    3  A    between atoms: C_12  and  C_13
REMARK    4  A    between atoms: C_16  and  C_17
REMARK                            x       y       z     vdW  Elec       q    Type
REMARK                         _______ _______ _______ _____ _____    ______ ____
ROOT
ATOM      1  C   UNL     1       2.488  14.496  18.903  0.00  0.00    +0.000 A 
ATOM      2  C   UNL     1       2.938  13.421  18.133  0.00  0.00    +0.000 A 
ATOM      3  C   UNL     1       2.332  12.175  18.276  0.00  0.00    +0.000 A 
ATOM      4  C   UNL     1       1.261  12.006  19.165  0.00  0.00    +0.000 A 
ATOM      5  C   UNL     1       0.734  13.101  19.871  0.00  0.00    +0.000 A 
ATOM      6  C   UNL     1       1.381  14.335  19.749  0.00  0.00    +0.000 A 
ATOM      7  N   UNL     1      -0.329  13.039  20.792  0.00  0.00    +0.000 NA
ATOM      8  C   UNL     1      -1.464  12.436  20.580  0.00  0.00    +0.000 C 
ATOM      9  C   UNL     1      -2.466  12.498  21.720  0.00  0.00    +0.000 C 
ATOM     10  C   UNL     1      -1.892  11.683  19.360  0.00  0.00    +0.000 A 
ATOM     11  C   UNL     1      -3.190  11.866  18.858  0.00  0.00    +0.000 A 
ATOM     12  C   UNL     1      -3.631  11.159  17.726  0.00  0.00    +0.000 A 
ATOM     13  C   UNL     1      -5.030  11.300  17.209  0.00  0.00    +0.000 C 
ATOM     14  C   UNL     1      -2.744  10.295  17.075  0.00  0.00    +0.000 A 
ATOM     15  C   UNL     1      -1.464  10.092  17.581  0.00  0.00    +0.000 A 
ATOM     16  C   UNL     1      -1.042  10.759  18.738  0.00  0.00    +0.000 A 
ATOM     17  S   UNL     1       0.583  10.372  19.347  0.00  0.00    +0.000 S 
ENDROOT
BRANCH   1  20
ATOM     18  C   UNL     1       5.403  16.897  18.897  0.00  0.00    +0.000 C 
ATOM     19  N   UNL     1       4.578  15.722  18.969  0.00  0.00    +0.000 N 
ATOM     20  C   UNL     1       3.209  15.795  18.818  0.00  0.00    +0.000 C 
ATOM     21  O   UNL     1       2.600  16.830  18.593  0.00  0.00    +0.000 OA
ATOM     22  H   UNL     1       5.035  14.821  18.983  0.00  0.00    +0.000 HD
ENDBRANCH   1  20
TORSDOF 1
ENDMDL
