MODEL 1
REMARK VINA RESULT:      -8.3      0.000      0.000
REMARK  Name = 
REMARK  7 active torsions:
REMARK  status: ('A' for Active; 'I' for Inactive)
REMARK    1  A    between atoms: C_2  and  C_3
REMARK    2  A    between atoms: C_3  and  N_4
REMARK    3  A    between atoms: N_4  and  C_5
REMARK    4  A    between atoms: C_5  and  C_6
REMARK    5  A    between atoms: N_13  and  C_14
REMARK    6  A    between atoms: C_14  and  C_15
REMARK    7  A    between atoms: C_15  and  O_16
REMARK                            x       y       z     vdW  Elec       q    Type
REMARK                         _______ _______ _______ _____ _____    ______ ____
ROOT
ATOM      1  C   UNL     1       6.571   5.297  17.192  0.00  0.00    +0.000 C 
ATOM      2  C   UNL     1       6.750   4.854  15.713  0.00  0.00    +0.000 C 
ATOM      3  S   UNL     1       5.349   3.803  15.191  0.00  0.00    +0.000 S 
ATOM      4  C   UNL     1       4.504   4.135  16.723  0.00  0.00    +0.000 C 
ATOM      5  C   UNL     1       5.184   4.850  17.615  0.00  0.00    +0.000 C 
ATOM      6  C   UNL     1       4.600   5.137  18.959  0.00  0.00    +0.000 C 
ATOM      7  O   UNL     1       5.231   5.795  19.774  0.00  0.00    +0.000 OA
ATOM      8  C   UNL     1       3.255   4.608  19.307  0.00  0.00    +0.000 A 
ATOM      9  C   UNL     1       2.690   4.834  20.576  0.00  0.00    +0.000 A 
ATOM     10  C   UNL     1       1.422   4.332  20.885  0.00  0.00    +0.000 A 
ATOM     11  C   UNL     1       0.709   3.602  19.933  0.00  0.00    +0.000 A 
ATOM     12  C   UNL     1       1.260   3.366  18.669  0.00  0.00    +0.000 A 
ATOM     13  C   UNL     1       2.536   3.862  18.347  0.00  0.00    +0.000 A 
ATOM     14  C   UNL     1       3.150   3.609  17.015  0.00  0.00    +0.000 C 
ATOM     15  O   UNL     1       2.551   2.963  16.169  0.00  0.00    +0.000 OA
ENDROOT
BRANCH   1  18
ATOM     16  O   UNL     1       8.434   6.978  18.611  0.00  0.00    +0.000 OA
ATOM     17  C   UNL     1       7.566   7.507  17.936  0.00  0.00    +0.000 C 
ATOM     18  N   UNL     1       6.631   6.765  17.271  0.00  0.00    +0.000 N 
ATOM     19  H   UNL     1       5.916   7.288  16.744  0.00  0.00    +0.000 HD
BRANCH  17  20
ATOM     20  C   UNL     1       7.535   9.023  17.868  0.00  0.00    +0.000 C 
BRANCH  20  21
ATOM     21  N   UNL     1       8.886   9.605  17.917  0.00  0.00    +0.000 NA
ATOM     22  H   UNL     1       8.988  10.302  17.143  0.00  0.00    +0.000 HD
BRANCH  21  23
ATOM     23  C   UNL     1       9.162  10.247  19.208  0.00  0.00    +0.000 C 
BRANCH  23  24
ATOM     24  C   UNL     1       9.961  11.506  19.007  0.00  0.00    +0.000 A 
ATOM     25  C   UNL     1      10.670  11.711  17.811  0.00  0.00    +0.000 A 
ATOM     26  C   UNL     1      11.399  12.887  17.615  0.00  0.00    +0.000 A 
ATOM     27  C   UNL     1      11.428  13.872  18.613  0.00  0.00    +0.000 A 
ATOM     28 CL   UNL     1      12.333  15.347  18.362  0.00  0.00    +0.000 Cl
ATOM     29  C   UNL     1      10.726  13.667  19.809  0.00  0.00    +0.000 A 
ATOM     30  C   UNL     1       9.996  12.491  20.006  0.00  0.00    +0.000 A 
ENDBRANCH  23  24
ENDBRANCH  21  23
ENDBRANCH  20  21
ENDBRANCH  17  20
ENDBRANCH   1  18
BRANCH   1  31
ATOM     31  C   UNL     1       7.605   4.586  18.117  0.00  0.00    +0.000 C 
BRANCH  31  32
ATOM     32  O   UNL     1       8.608   3.953  17.366  0.00  0.00    +0.000 OA
ATOM     33  H   UNL     1       9.021   4.648  16.794  0.00  0.00    +0.000 HD
ENDBRANCH  31  32
ENDBRANCH   1  31
TORSDOF 7
ENDMDL
MODEL 2
REMARK VINA RESULT:      -8.1      1.184      1.377
REMARK  Name = 
REMARK  7 active torsions:
REMARK  status: ('A' for Active; 'I' for Inactive)
REMARK    1  A    between atoms: C_2  and  C_3
REMARK    2  A    between atoms: C_3  and  N_4
REMARK    3  A    between atoms: N_4  and  C_5
REMARK    4  A    between atoms: C_5  and  C_6
REMARK    5  A    between atoms: N_13  and  C_14
REMARK    6  A    between atoms: C_14  and  C_15
REMARK    7  A    between atoms: C_15  and  O_16
REMARK                            x       y       z     vdW  Elec       q    Type
REMARK                         _______ _______ _______ _____ _____    ______ ____
ROOT
ATOM      1  C   UNL     1       6.742   5.332  17.167  0.00  0.00    +0.000 C 
ATOM      2  C   UNL     1       6.930   4.801  15.718  0.00  0.00    +0.000 C 
ATOM      3  S   UNL     1       5.514   3.750  15.239  0.00  0.00    +0.000 S 
ATOM      4  C   UNL     1       4.657   4.185  16.738  0.00  0.00    +0.000 C 
ATOM      5  C   UNL     1       5.341   4.937  17.596  0.00  0.00    +0.000 C 
ATOM      6  C   UNL     1       4.746   5.313  18.914  0.00  0.00    +0.000 C 
ATOM      7  O   UNL     1       5.380   6.004  19.698  0.00  0.00    +0.000 OA
ATOM      8  C   UNL     1       3.386   4.831  19.273  0.00  0.00    +0.000 A 
ATOM      9  C   UNL     1       2.811   5.141  20.520  0.00  0.00    +0.000 A 
ATOM     10  C   UNL     1       1.530   4.683  20.840  0.00  0.00    +0.000 A 
ATOM     11  C   UNL     1       0.813   3.913  19.922  0.00  0.00    +0.000 A 
ATOM     12  C   UNL     1       1.375   3.593  18.682  0.00  0.00    +0.000 A 
ATOM     13  C   UNL     1       2.665   4.045  18.348  0.00  0.00    +0.000 A 
ATOM     14  C   UNL     1       3.290   3.704  17.041  0.00  0.00    +0.000 C 
ATOM     15  O   UNL     1       2.688   3.021  16.226  0.00  0.00    +0.000 OA
ENDROOT
BRANCH   1  18
ATOM     16  O   UNL     1       8.426   7.068  18.735  0.00  0.00    +0.000 OA
ATOM     17  C   UNL     1       7.680   7.567  17.909  0.00  0.00    +0.000 C 
ATOM     18  N   UNL     1       6.830   6.801  17.162  0.00  0.00    +0.000 N 
ATOM     19  H   UNL     1       6.213   7.302  16.505  0.00  0.00    +0.000 HD
BRANCH  17  20
ATOM     20  C   UNL     1       7.700   9.076  17.743  0.00  0.00    +0.000 C 
BRANCH  20  21
ATOM     21  N   UNL     1       8.729   9.709  18.583  0.00  0.00    +0.000 NA
ATOM     22  H   UNL     1       9.537   9.054  18.691  0.00  0.00    +0.000 HD
BRANCH  21  23
ATOM     23  C   UNL     1       9.191  10.984  18.021  0.00  0.00    +0.000 C 
BRANCH  23  24
ATOM     24  C   UNL     1       9.424  11.988  19.118  0.00  0.00    +0.000 A 
ATOM     25  C   UNL     1       9.370  13.365  18.840  0.00  0.00    +0.000 A 
ATOM     26  C   UNL     1       9.569  14.299  19.861  0.00  0.00    +0.000 A 
ATOM     27  C   UNL     1       9.825  13.868  21.171  0.00  0.00    +0.000 A 
ATOM     28 CL   UNL     1      10.064  15.038  22.447  0.00  0.00    +0.000 Cl
ATOM     29  C   UNL     1       9.885  12.495  21.448  0.00  0.00    +0.000 A 
ATOM     30  C   UNL     1       9.686  11.559  20.428  0.00  0.00    +0.000 A 
ENDBRANCH  23  24
ENDBRANCH  21  23
ENDBRANCH  20  21
ENDBRANCH  17  20
ENDBRANCH   1  18
BRANCH   1  31
ATOM     31  C   UNL     1       7.750   4.656  18.145  0.00  0.00    +0.000 C 
BRANCH  31  32
ATOM     32  O   UNL     1       8.591   3.760  17.468  0.00  0.00    +0.000 OA
ATOM     33  H   UNL     1       8.230   2.850  17.626  0.00  0.00    +0.000 HD
ENDBRANCH  31  32
ENDBRANCH   1  31
TORSDOF 7
ENDMDL
MODEL 3
REMARK VINA RESULT:      -8.0      0.667      1.031
REMARK  Name = 
REMARK  7 active torsions:
REMARK  status: ('A' for Active; 'I' for Inactive)
REMARK    1  A    between atoms: C_2  and  C_3
REMARK    2  A    between atoms: C_3  and  N_4
REMARK    3  A    between atoms: N_4  and  C_5
REMARK    4  A    between atoms: C_5  and  C_6
REMARK    5  A    between atoms: N_13  and  C_14
REMARK    6  A    between atoms: C_14  and  C_15
REMARK    7  A    between atoms: C_15  and  O_16
REMARK                            x       y       z     vdW  Elec       q    Type
REMARK                         _______ _______ _______ _____ _____    ______ ____
ROOT
ATOM      1  C   UNL     1       6.290   5.304  17.350  0.00  0.00    +0.000 C 
ATOM      2  C   UNL     1       6.340   5.189  15.800  0.00  0.00    +0.000 C 
ATOM      3  S   UNL     1       4.902   4.241  15.188  0.00  0.00    +0.000 S 
ATOM      4  C   UNL     1       4.194   4.220  16.822  0.00  0.00    +0.000 C 
ATOM      5  C   UNL     1       4.947   4.746  17.784  0.00  0.00    +0.000 C 
ATOM      6  C   UNL     1       4.483   4.728  19.204  0.00  0.00    +0.000 C 
ATOM      7  O   UNL     1       5.181   5.213  20.083  0.00  0.00    +0.000 OA
ATOM      8  C   UNL     1       3.176   4.106  19.544  0.00  0.00    +0.000 A 
ATOM      9  C   UNL     1       2.725   4.046  20.876  0.00  0.00    +0.000 A 
ATOM     10  C   UNL     1       1.492   3.461  21.178  0.00  0.00    +0.000 A 
ATOM     11  C   UNL     1       0.700   2.933  20.156  0.00  0.00    +0.000 A 
ATOM     12  C   UNL     1       1.139   2.982  18.829  0.00  0.00    +0.000 A 
ATOM     13  C   UNL     1       2.379   3.565  18.512  0.00  0.00    +0.000 A 
ATOM     14  C   UNL     1       2.874   3.614  17.110  0.00  0.00    +0.000 C 
ATOM     15  O   UNL     1       2.205   3.148  16.199  0.00  0.00    +0.000 OA
ENDROOT
BRANCH   1  18
ATOM     16  O   UNL     1       8.257   7.300  16.672  0.00  0.00    +0.000 OA
ATOM     17  C   UNL     1       7.296   7.631  17.348  0.00  0.00    +0.000 C 
ATOM     18  N   UNL     1       6.350   6.724  17.734  0.00  0.00    +0.000 N 
ATOM     19  H   UNL     1       5.584   7.077  18.326  0.00  0.00    +0.000 HD
BRANCH  17  20
ATOM     20  C   UNL     1       7.186   9.084  17.775  0.00  0.00    +0.000 C 
BRANCH  20  21
ATOM     21  N   UNL     1       8.481   9.780  17.700  0.00  0.00    +0.000 NA
ATOM     22  H   UNL     1       8.360  10.674  17.170  0.00  0.00    +0.000 HD
BRANCH  21  23
ATOM     23  C   UNL     1       9.033  10.058  19.031  0.00  0.00    +0.000 C 
BRANCH  23  24
ATOM     24  C   UNL     1       9.838  11.329  19.009  0.00  0.00    +0.000 A 
ATOM     25  C   UNL     1      10.467  11.788  20.180  0.00  0.00    +0.000 A 
ATOM     26  C   UNL     1      11.229  12.960  20.158  0.00  0.00    +0.000 A 
ATOM     27  C   UNL     1      11.371  13.686  18.967  0.00  0.00    +0.000 A 
ATOM     28 CL   UNL     1      12.333  15.146  18.941  0.00  0.00    +0.000 Cl
ATOM     29  C   UNL     1      10.740  13.233  17.800  0.00  0.00    +0.000 A 
ATOM     30  C   UNL     1       9.977  12.061  17.820  0.00  0.00    +0.000 A 
ENDBRANCH  23  24
ENDBRANCH  21  23
ENDBRANCH  20  21
ENDBRANCH  17  20
ENDBRANCH   1  18
BRANCH   1  31
ATOM     31  C   UNL     1       7.405   4.438  18.010  0.00  0.00    +0.000 C 
BRANCH  31  32
ATOM     32  O   UNL     1       8.342   4.005  17.059  0.00  0.00    +0.000 OA
ATOM     33  H   UNL     1       8.913   4.785  16.841  0.00  0.00    +0.000 HD
ENDBRANCH  31  32
ENDBRANCH   1  31
TORSDOF 7
ENDMDL
MODEL 4
REMARK VINA RESULT:      -7.9      7.178      9.517
REMARK  Name = 
REMARK  7 active torsions:
REMARK  status: ('A' for Active; 'I' for Inactive)
REMARK    1  A    between atoms: C_2  and  C_3
REMARK    2  A    between atoms: C_3  and  N_4
REMARK    3  A    between atoms: N_4  and  C_5
REMARK    4  A    between atoms: C_5  and  C_6
REMARK    5  A    between atoms: N_13  and  C_14
REMARK    6  A    between atoms: C_14  and  C_15
REMARK    7  A    between atoms: C_15  and  O_16
REMARK                            x       y       z     vdW  Elec       q    Type
REMARK                         _______ _______ _______ _____ _____    ______ ____
ROOT
ATOM      1  C   UNL     1       0.920  10.734  19.647  0.00  0.00    +0.000 C 
ATOM      2  C   UNL     1       1.246  11.379  21.024  0.00  0.00    +0.000 C 
ATOM      3  S   UNL     1      -0.159  12.397  21.596  0.00  0.00    +0.000 S 
ATOM      4  C   UNL     1      -1.160  11.813  20.244  0.00  0.00    +0.000 C 
ATOM      5  C   UNL     1      -0.541  11.032  19.363  0.00  0.00    +0.000 C 
ATOM      6  C   UNL     1      -1.263  10.532  18.155  0.00  0.00    +0.000 C 
ATOM      7  O   UNL     1      -0.688   9.814  17.350  0.00  0.00    +0.000 OA
ATOM      8  C   UNL     1      -2.679  10.924  17.929  0.00  0.00    +0.000 A 
ATOM      9  C   UNL     1      -3.378  10.496  16.784  0.00  0.00    +0.000 A 
ATOM     10  C   UNL     1      -4.711  10.871  16.589  0.00  0.00    +0.000 A 
ATOM     11  C   UNL     1      -5.356  11.673  17.532  0.00  0.00    +0.000 A 
ATOM     12  C   UNL     1      -4.672  12.109  18.671  0.00  0.00    +0.000 A 
ATOM     13  C   UNL     1      -3.330  11.742  18.877  0.00  0.00    +0.000 A 
ATOM     14  C   UNL     1      -2.577  12.208  20.074  0.00  0.00    +0.000 C 
ATOM     15  O   UNL     1      -3.116  12.921  20.907  0.00  0.00    +0.000 OA
ENDROOT
BRANCH   1  18
ATOM     16  O   UNL     1       1.410   9.097  21.969  0.00  0.00    +0.000 OA
ATOM     17  C   UNL     1       1.284   8.551  20.884  0.00  0.00    +0.000 C 
ATOM     18  N   UNL     1       1.088   9.274  19.742  0.00  0.00    +0.000 N 
ATOM     19  H   UNL     1       1.017   8.741  18.863  0.00  0.00    +0.000 HD
BRANCH  17  20
ATOM     20  C   UNL     1       1.372   7.037  20.829  0.00  0.00    +0.000 C 
BRANCH  20  21
ATOM     21  N   UNL     1       2.548   6.581  20.070  0.00  0.00    +0.000 NA
ATOM     22  H   UNL     1       3.273   6.228  20.738  0.00  0.00    +0.000 HD
BRANCH  21  23
ATOM     23  C   UNL     1       2.206   5.530  19.104  0.00  0.00    +0.000 C 
BRANCH  23  24
ATOM     24  C   UNL     1       3.278   5.414  18.054  0.00  0.00    +0.000 A 
ATOM     25  C   UNL     1       3.613   4.156  17.522  0.00  0.00    +0.000 A 
ATOM     26  C   UNL     1       4.596   4.048  16.534  0.00  0.00    +0.000 A 
ATOM     27  C   UNL     1       5.257   5.194  16.068  0.00  0.00    +0.000 A 
ATOM     28 CL   UNL     1       6.479   5.056  14.826  0.00  0.00    +0.000 Cl
ATOM     29  C   UNL     1       4.928   6.448  16.602  0.00  0.00    +0.000 A 
ATOM     30  C   UNL     1       3.944   6.558  17.590  0.00  0.00    +0.000 A 
ENDBRANCH  23  24
ENDBRANCH  21  23
ENDBRANCH  20  21
ENDBRANCH  17  20
ENDBRANCH   1  18
BRANCH   1  31
ATOM     31  C   UNL     1       1.770  11.380  18.511  0.00  0.00    +0.000 C 
BRANCH  31  32
ATOM     32  O   UNL     1       2.065  10.447  17.505  0.00  0.00    +0.000 OA
ATOM     33  H   UNL     1       2.650  10.906  16.850  0.00  0.00    +0.000 HD
ENDBRANCH  31  32
ENDBRANCH   1  31
TORSDOF 7
ENDMDL
MODEL 5
REMARK VINA RESULT:      -7.7      8.833     11.308
REMARK  Name = 
REMARK  7 active torsions:
REMARK  status: ('A' for Active; 'I' for Inactive)
REMARK    1  A    between atoms: C_2  and  C_3
REMARK    2  A    between atoms: C_3  and  N_4
REMARK    3  A    between atoms: N_4  and  C_5
REMARK    4  A    between atoms: C_5  and  C_6
REMARK    5  A    between atoms: N_13  and  C_14
REMARK    6  A    between atoms: C_14  and  C_15
REMARK    7  A    between atoms: C_15  and  O_16
REMARK                            x       y       z     vdW  Elec       q    Type
REMARK                         _______ _______ _______ _____ _____    ______ ____
ROOT
ATOM      1  C   UNL     1      -0.790  12.321  19.771  0.00  0.00    +0.000 C 
ATOM      2  C   UNL     1       0.041  12.519  21.070  0.00  0.00    +0.000 C 
ATOM      3  S   UNL     1      -1.060  12.919  22.473  0.00  0.00    +0.000 S 
ATOM      4  C   UNL     1      -2.493  12.609  21.462  0.00  0.00    +0.000 C 
ATOM      5  C   UNL     1      -2.250  12.343  20.182  0.00  0.00    +0.000 C 
ATOM      6  C   UNL     1      -3.378  12.127  19.226  0.00  0.00    +0.000 C 
ATOM      7  O   UNL     1      -3.147  11.882  18.051  0.00  0.00    +0.000 OA
ATOM      8  C   UNL     1      -4.781  12.225  19.708  0.00  0.00    +0.000 A 
ATOM      9  C   UNL     1      -5.865  12.059  18.826  0.00  0.00    +0.000 A 
ATOM     10  C   UNL     1      -7.179  12.150  19.297  0.00  0.00    +0.000 A 
ATOM     11  C   UNL     1      -7.421  12.409  20.647  0.00  0.00    +0.000 A 
ATOM     12  C   UNL     1      -6.352  12.581  21.533  0.00  0.00    +0.000 A 
ATOM     13  C   UNL     1      -5.026  12.495  21.072  0.00  0.00    +0.000 A 
ATOM     14  C   UNL     1      -3.873  12.691  21.993  0.00  0.00    +0.000 C 
ATOM     15  O   UNL     1      -4.059  12.930  23.177  0.00  0.00    +0.000 OA
ENDROOT
BRANCH   1  18
ATOM     16  O   UNL     1       1.654  11.360  18.582  0.00  0.00    +0.000 OA
ATOM     17  C   UNL     1       0.710  10.594  18.677  0.00  0.00    +0.000 C 
ATOM     18  N   UNL     1      -0.487  11.000  19.197  0.00  0.00    +0.000 N 
ATOM     19  H   UNL     1      -1.244  10.300  19.219  0.00  0.00    +0.000 HD
BRANCH  17  20
ATOM     20  C   UNL     1       0.888   9.170  18.181  0.00  0.00    +0.000 C 
BRANCH  20  21
ATOM     21  N   UNL     1       2.160   8.584  18.634  0.00  0.00    +0.000 NA
ATOM     22  H   UNL     1       2.847   9.352  18.817  0.00  0.00    +0.000 HD
BRANCH  21  23
ATOM     23  C   UNL     1       1.989   7.767  19.842  0.00  0.00    +0.000 C 
BRANCH  23  24
ATOM     24  C   UNL     1       2.173   6.309  19.518  0.00  0.00    +0.000 A 
ATOM     25  C   UNL     1       2.008   5.336  20.519  0.00  0.00    +0.000 A 
ATOM     26  C   UNL     1       2.161   3.979  20.217  0.00  0.00    +0.000 A 
ATOM     27  C   UNL     1       2.481   3.580  18.912  0.00  0.00    +0.000 A 
ATOM     28 CL   UNL     1       2.662   1.883  18.535  0.00  0.00    +0.000 Cl
ATOM     29  C   UNL     1       2.651   4.549  17.913  0.00  0.00    +0.000 A 
ATOM     30  C   UNL     1       2.498   5.906  18.214  0.00  0.00    +0.000 A 
ENDBRANCH  23  24
ENDBRANCH  21  23
ENDBRANCH  20  21
ENDBRANCH  17  20
ENDBRANCH   1  18
BRANCH   1  31
ATOM     31  C   UNL     1      -0.555  13.496  18.774  0.00  0.00    +0.000 C 
BRANCH  31  32
ATOM     32  O   UNL     1      -0.792  13.093  17.450  0.00  0.00    +0.000 OA
ATOM     33  H   UNL     1      -1.696  12.687  17.430  0.00  0.00    +0.000 HD
ENDBRANCH  31  32
ENDBRANCH   1  31
TORSDOF 7
ENDMDL
MODEL 6
REMARK VINA RESULT:      -7.7      1.430      1.530
REMARK  Name = 
REMARK  7 active torsions:
REMARK  status: ('A' for Active; 'I' for Inactive)
REMARK    1  A    between atoms: C_2  and  C_3
REMARK    2  A    between atoms: C_3  and  N_4
REMARK    3  A    between atoms: N_4  and  C_5
REMARK    4  A    between atoms: C_5  and  C_6
REMARK    5  A    between atoms: N_13  and  C_14
REMARK    6  A    between atoms: C_14  and  C_15
REMARK    7  A    between atoms: C_15  and  O_16
REMARK                            x       y       z     vdW  Elec       q    Type
REMARK                         _______ _______ _______ _____ _____    ______ ____
ROOT
ATOM      1  C   UNL     1       6.493   5.353  17.324  0.00  0.00    +0.000 C 
ATOM      2  C   UNL     1       6.542   5.237  15.775  0.00  0.00    +0.000 C 
ATOM      3  S   UNL     1       5.082   4.327  15.161  0.00  0.00    +0.000 S 
ATOM      4  C   UNL     1       4.371   4.325  16.793  0.00  0.00    +0.000 C 
ATOM      5  C   UNL     1       5.136   4.830  17.757  0.00  0.00    +0.000 C 
ATOM      6  C   UNL     1       4.670   4.825  19.175  0.00  0.00    +0.000 C 
ATOM      7  O   UNL     1       5.378   5.291  20.056  0.00  0.00    +0.000 OA
ATOM      8  C   UNL     1       3.347   4.237  19.514  0.00  0.00    +0.000 A 
ATOM      9  C   UNL     1       2.892   4.188  20.845  0.00  0.00    +0.000 A 
ATOM     10  C   UNL     1       1.643   3.636  21.145  0.00  0.00    +0.000 A 
ATOM     11  C   UNL     1       0.840   3.128  20.122  0.00  0.00    +0.000 A 
ATOM     12  C   UNL     1       1.281   3.167  18.796  0.00  0.00    +0.000 A 
ATOM     13  C   UNL     1       2.537   3.717  18.481  0.00  0.00    +0.000 A 
ATOM     14  C   UNL     1       3.035   3.753  17.079  0.00  0.00    +0.000 C 
ATOM     15  O   UNL     1       2.356   3.305  16.168  0.00  0.00    +0.000 OA
ENDROOT
BRANCH   1  18
ATOM     16  O   UNL     1       8.416   7.341  16.511  0.00  0.00    +0.000 OA
ATOM     17  C   UNL     1       7.511   7.675  17.258  0.00  0.00    +0.000 C 
ATOM     18  N   UNL     1       6.590   6.771  17.709  0.00  0.00    +0.000 N 
ATOM     19  H   UNL     1       5.872   7.126  18.358  0.00  0.00    +0.000 HD
BRANCH  17  20
ATOM     20  C   UNL     1       7.440   9.126  17.697  0.00  0.00    +0.000 C 
BRANCH  20  21
ATOM     21  N   UNL     1       8.570   9.494  18.566  0.00  0.00    +0.000 NA
ATOM     22  H   UNL     1       9.128   8.638  18.786  0.00  0.00    +0.000 HD
BRANCH  21  23
ATOM     23  C   UNL     1       9.432  10.508  17.947  0.00  0.00    +0.000 C 
BRANCH  23  24
ATOM     24  C   UNL     1       9.099  11.876  18.480  0.00  0.00    +0.000 A 
ATOM     25  C   UNL     1       8.480  12.827  17.650  0.00  0.00    +0.000 A 
ATOM     26  C   UNL     1       8.155  14.092  18.147  0.00  0.00    +0.000 A 
ATOM     27  C   UNL     1       8.445  14.422  19.479  0.00  0.00    +0.000 A 
ATOM     28 CL   UNL     1       8.028  16.001  20.101  0.00  0.00    +0.000 Cl
ATOM     29  C   UNL     1       9.067  13.477  20.307  0.00  0.00    +0.000 A 
ATOM     30  C   UNL     1       9.393  12.210  19.810  0.00  0.00    +0.000 A 
ENDBRANCH  23  24
ENDBRANCH  21  23
ENDBRANCH  20  21
ENDBRANCH  17  20
ENDBRANCH   1  18
BRANCH   1  31
ATOM     31  C   UNL     1       7.585   4.458  17.986  0.00  0.00    +0.000 C 
BRANCH  31  32
ATOM     32  O   UNL     1       8.085   5.050  19.157  0.00  0.00    +0.000 OA
ATOM     33  H   UNL     1       7.391   5.680  19.480  0.00  0.00    +0.000 HD
ENDBRANCH  31  32
ENDBRANCH   1  31
TORSDOF 7
ENDMDL
MODEL 7
REMARK VINA RESULT:      -7.6      8.756     11.232
REMARK  Name = 
REMARK  7 active torsions:
REMARK  status: ('A' for Active; 'I' for Inactive)
REMARK    1  A    between atoms: C_2  and  C_3
REMARK    2  A    between atoms: C_3  and  N_4
REMARK    3  A    between atoms: N_4  and  C_5
REMARK    4  A    between atoms: C_5  and  C_6
REMARK    5  A    between atoms: N_13  and  C_14
REMARK    6  A    between atoms: C_14  and  C_15
REMARK    7  A    between atoms: C_15  and  O_16
REMARK                            x       y       z     vdW  Elec       q    Type
REMARK                         _______ _______ _______ _____ _____    ______ ____
ROOT
ATOM      1  C   UNL     1      -0.662  12.118  19.281  0.00  0.00    +0.000 C 
ATOM      2  C   UNL     1       0.032  12.363  20.650  0.00  0.00    +0.000 C 
ATOM      3  S   UNL     1      -1.208  12.798  21.920  0.00  0.00    +0.000 S 
ATOM      4  C   UNL     1      -2.530  12.445  20.781  0.00  0.00    +0.000 C 
ATOM      5  C   UNL     1      -2.157  12.141  19.541  0.00  0.00    +0.000 C 
ATOM      6  C   UNL     1      -3.181  11.886  18.484  0.00  0.00    +0.000 C 
ATOM      7  O   UNL     1      -2.831  11.607  17.346  0.00  0.00    +0.000 OA
ATOM      8  C   UNL     1      -4.626  11.988  18.818  0.00  0.00    +0.000 A 
ATOM      9  C   UNL     1      -5.615  11.785  17.837  0.00  0.00    +0.000 A 
ATOM     10  C   UNL     1      -6.969  11.881  18.169  0.00  0.00    +0.000 A 
ATOM     11  C   UNL     1      -7.348  12.179  19.479  0.00  0.00    +0.000 A 
ATOM     12  C   UNL     1      -6.376  12.388  20.462  0.00  0.00    +0.000 A 
ATOM     13  C   UNL     1      -5.009  12.298  20.140  0.00  0.00    +0.000 A 
ATOM     14  C   UNL     1      -3.957  12.532  21.166  0.00  0.00    +0.000 C 
ATOM     15  O   UNL     1      -4.263  12.806  22.317  0.00  0.00    +0.000 OA
ENDROOT
BRANCH   1  18
ATOM     16  O   UNL     1       1.890  11.145  18.358  0.00  0.00    +0.000 OA
ATOM     17  C   UNL     1       0.947  10.372  18.391  0.00  0.00    +0.000 C 
ATOM     18  N   UNL     1      -0.297  10.782  18.782  0.00  0.00    +0.000 N 
ATOM     19  H   UNL     1      -1.046  10.074  18.757  0.00  0.00    +0.000 HD
BRANCH  17  20
ATOM     20  C   UNL     1       1.182   8.935  17.962  0.00  0.00    +0.000 C 
BRANCH  20  21
ATOM     21  N   UNL     1       2.415   8.381  18.544  0.00  0.00    +0.000 NA
ATOM     22  H   UNL     1       3.108   9.153  18.681  0.00  0.00    +0.000 HD
BRANCH  21  23
ATOM     23  C   UNL     1       2.164   7.703  19.822  0.00  0.00    +0.000 C 
BRANCH  23  24
ATOM     24  C   UNL     1       2.044   6.218  19.612  0.00  0.00    +0.000 A 
ATOM     25  C   UNL     1       2.390   5.647  18.375  0.00  0.00    +0.000 A 
ATOM     26  C   UNL     1       2.296   4.266  18.184  0.00  0.00    +0.000 A 
ATOM     27  C   UNL     1       1.853   3.439  19.226  0.00  0.00    +0.000 A 
ATOM     28 CL   UNL     1       1.745   1.710  18.988  0.00  0.00    +0.000 Cl
ATOM     29  C   UNL     1       1.502   4.006  20.459  0.00  0.00    +0.000 A 
ATOM     30  C   UNL     1       1.596   5.388  20.652  0.00  0.00    +0.000 A 
ENDBRANCH  23  24
ENDBRANCH  21  23
ENDBRANCH  20  21
ENDBRANCH  17  20
ENDBRANCH   1  18
BRANCH   1  31
ATOM     31  C   UNL     1      -0.334  13.263  18.275  0.00  0.00    +0.000 C 
BRANCH  31  32
ATOM     32  O   UNL     1      -0.766  14.507  18.763  0.00  0.00    +0.000 OA
ATOM     33  H   UNL     1      -1.014  15.055  17.975  0.00  0.00    +0.000 HD
ENDBRANCH  31  32
ENDBRANCH   1  31
TORSDOF 7
ENDMDL
MODEL 8
REMARK VINA RESULT:      -7.5      9.858     12.446
REMARK  Name = 
REMARK  7 active torsions:
REMARK  status: ('A' for Active; 'I' for Inactive)
REMARK    1  A    between atoms: C_2  and  C_3
REMARK    2  A    between atoms: C_3  and  N_4
REMARK    3  A    between atoms: N_4  and  C_5
REMARK    4  A    between atoms: C_5  and  C_6
REMARK    5  A    between atoms: N_13  and  C_14
REMARK    6  A    between atoms: C_14  and  C_15
REMARK    7  A    between atoms: C_15  and  O_16
REMARK                            x       y       z     vdW  Elec       q    Type
REMARK                         _______ _______ _______ _____ _____    ______ ____
ROOT
ATOM      1  C   UNL     1       0.494  11.306  19.020  0.00  0.00    +0.000 C 
ATOM      2  C   UNL     1       0.982   9.868  19.355  0.00  0.00    +0.000 C 
ATOM      3  S   UNL     1       0.609   9.463  21.097  0.00  0.00    +0.000 S 
ATOM      4  C   UNL     1      -0.319  10.972  21.272  0.00  0.00    +0.000 C 
ATOM      5  C   UNL     1      -0.298  11.787  20.221  0.00  0.00    +0.000 C 
ATOM      6  C   UNL     1      -0.990  13.110  20.274  0.00  0.00    +0.000 C 
ATOM      7  O   UNL     1      -0.967  13.854  19.305  0.00  0.00    +0.000 OA
ATOM      8  C   UNL     1      -1.694  13.523  21.517  0.00  0.00    +0.000 A 
ATOM      9  C   UNL     1      -2.329  14.776  21.610  0.00  0.00    +0.000 A 
ATOM     10  C   UNL     1      -2.990  15.147  22.785  0.00  0.00    +0.000 A 
ATOM     11  C   UNL     1      -3.023  14.274  23.873  0.00  0.00    +0.000 A 
ATOM     12  C   UNL     1      -2.393  13.028  23.796  0.00  0.00    +0.000 A 
ATOM     13  C   UNL     1      -1.722  12.644  22.621  0.00  0.00    +0.000 A 
ATOM     14  C   UNL     1      -1.030  11.330  22.520  0.00  0.00    +0.000 C 
ATOM     15  O   UNL     1      -1.035  10.553  23.464  0.00  0.00    +0.000 OA
ENDROOT
BRANCH   1  18
ATOM     16  O   UNL     1      -1.942   9.807  18.660  0.00  0.00    +0.000 OA
ATOM     17  C   UNL     1      -1.572  10.546  17.762  0.00  0.00    +0.000 C 
ATOM     18  N   UNL     1      -0.407  11.254  17.857  0.00  0.00    +0.000 N 
ATOM     19  H   UNL     1      -0.152  11.836  17.045  0.00  0.00    +0.000 HD
BRANCH  17  20
ATOM     20  C   UNL     1      -2.433  10.648  16.515  0.00  0.00    +0.000 C 
BRANCH  20  21
ATOM     21  N   UNL     1      -3.417  11.737  16.612  0.00  0.00    +0.000 NA
ATOM     22  H   UNL     1      -3.333  12.353  15.771  0.00  0.00    +0.000 HD
BRANCH  21  23
ATOM     23  C   UNL     1      -4.790  11.229  16.726  0.00  0.00    +0.000 C 
BRANCH  23  24
ATOM     24  C   UNL     1      -5.331  11.484  18.107  0.00  0.00    +0.000 A 
ATOM     25  C   UNL     1      -4.598  12.260  19.022  0.00  0.00    +0.000 A 
ATOM     26  C   UNL     1      -5.106  12.512  20.299  0.00  0.00    +0.000 A 
ATOM     27  C   UNL     1      -6.353  11.992  20.677  0.00  0.00    +0.000 A 
ATOM     28 CL   UNL     1      -6.991  12.317  22.272  0.00  0.00    +0.000 Cl
ATOM     29  C   UNL     1      -7.083  11.214  19.768  0.00  0.00    +0.000 A 
ATOM     30  C   UNL     1      -6.575  10.960  18.489  0.00  0.00    +0.000 A 
ENDBRANCH  23  24
ENDBRANCH  21  23
ENDBRANCH  20  21
ENDBRANCH  17  20
ENDBRANCH   1  18
BRANCH   1  31
ATOM     31  C   UNL     1       1.700  12.274  18.823  0.00  0.00    +0.000 C 
BRANCH  31  32
ATOM     32  O   UNL     1       2.076  12.871  20.037  0.00  0.00    +0.000 OA
ATOM     33  H   UNL     1       2.234  12.135  20.682  0.00  0.00    +0.000 HD
ENDBRANCH  31  32
ENDBRANCH   1  31
TORSDOF 7
ENDMDL
MODEL 9
REMARK VINA RESULT:      -7.5      8.004     10.578
REMARK  Name = 
REMARK  7 active torsions:
REMARK  status: ('A' for Active; 'I' for Inactive)
REMARK    1  A    between atoms: C_2  and  C_3
REMARK    2  A    between atoms: C_3  and  N_4
REMARK    3  A    between atoms: N_4  and  C_5
REMARK    4  A    between atoms: C_5  and  C_6
REMARK    5  A    between atoms: N_13  and  C_14
REMARK    6  A    between atoms: C_14  and  C_15
REMARK    7  A    between atoms: C_15  and  O_16
REMARK                            x       y       z     vdW  Elec       q    Type
REMARK                         _______ _______ _______ _____ _____    ______ ____
ROOT
ATOM      1  C   UNL     1       0.531  11.512  19.878  0.00  0.00    +0.000 C 
ATOM      2  C   UNL     1       0.977  12.258  21.167  0.00  0.00    +0.000 C 
ATOM      3  S   UNL     1      -0.393  13.278  21.815  0.00  0.00    +0.000 S 
ATOM      4  C   UNL     1      -1.509  12.578  20.617  0.00  0.00    +0.000 C 
ATOM      5  C   UNL     1      -0.959  11.754  19.730  0.00  0.00    +0.000 C 
ATOM      6  C   UNL     1      -1.786  11.155  18.639  0.00  0.00    +0.000 C 
ATOM      7  O   UNL     1      -1.275  10.398  17.827  0.00  0.00    +0.000 OA
ATOM      8  C   UNL     1      -3.230  11.496  18.538  0.00  0.00    +0.000 A 
ATOM      9  C   UNL     1      -4.029  10.973  17.503  0.00  0.00    +0.000 A 
ATOM     10  C   UNL     1      -5.386  11.301  17.425  0.00  0.00    +0.000 A 
ATOM     11  C   UNL     1      -5.955  12.150  18.375  0.00  0.00    +0.000 A 
ATOM     12  C   UNL     1      -5.172  12.680  19.405  0.00  0.00    +0.000 A 
ATOM     13  C   UNL     1      -3.805  12.361  19.493  0.00  0.00    +0.000 A 
ATOM     14  C   UNL     1      -2.947  12.925  20.571  0.00  0.00    +0.000 C 
ATOM     15  O   UNL     1      -3.420  13.681  21.407  0.00  0.00    +0.000 OA
ENDROOT
BRANCH   1  18
ATOM     16  O   UNL     1       0.196   9.878  22.229  0.00  0.00    +0.000 OA
ATOM     17  C   UNL     1       0.542   9.342  21.189  0.00  0.00    +0.000 C 
ATOM     18  N   UNL     1       0.754  10.067  20.051  0.00  0.00    +0.000 N 
ATOM     19  H   UNL     1       1.070   9.544  19.220  0.00  0.00    +0.000 HD
BRANCH  17  20
ATOM     20  C   UNL     1       0.754   7.839  21.192  0.00  0.00    +0.000 C 
BRANCH  20  21
ATOM     21  N   UNL     1       2.130   7.475  20.817  0.00  0.00    +0.000 NA
ATOM     22  H   UNL     1       2.423   6.629  21.359  0.00  0.00    +0.000 HD
BRANCH  21  23
ATOM     23  C   UNL     1       2.258   7.217  19.378  0.00  0.00    +0.000 C 
BRANCH  23  24
ATOM     24  C   UNL     1       2.586   5.769  19.132  0.00  0.00    +0.000 A 
ATOM     25  C   UNL     1       2.851   4.910  20.213  0.00  0.00    +0.000 A 
ATOM     26  C   UNL     1       3.138   3.560  19.989  0.00  0.00    +0.000 A 
ATOM     27  C   UNL     1       3.165   3.054  18.681  0.00  0.00    +0.000 A 
ATOM     28 CL   UNL     1       3.516   1.364  18.404  0.00  0.00    +0.000 Cl
ATOM     29  C   UNL     1       2.907   3.910  17.601  0.00  0.00    +0.000 A 
ATOM     30  C   UNL     1       2.619   5.260  17.825  0.00  0.00    +0.000 A 
ENDBRANCH  23  24
ENDBRANCH  21  23
ENDBRANCH  20  21
ENDBRANCH  17  20
ENDBRANCH   1  18
BRANCH   1  31
ATOM     31  C   UNL     1       1.239  12.100  18.620  0.00  0.00    +0.000 C 
BRANCH  31  32
ATOM     32  O   UNL     1       1.793  11.082  17.827  0.00  0.00    +0.000 OA
ATOM     33  H   UNL     1       2.611  11.455  17.409  0.00  0.00    +0.000 HD
ENDBRANCH  31  32
ENDBRANCH   1  31
TORSDOF 7
ENDMDL
