MODEL 1
REMARK VINA RESULT:      -9.1      0.000      0.000
REMARK  Name = 
REMARK  7 active torsions:
REMARK  status: ('A' for Active; 'I' for Inactive)
REMARK    1  A    between atoms: C_1  and  N_2
REMARK    2  A    between atoms: C_12  and  S_13
REMARK    3  A    between atoms: S_13  and  C_14
REMARK    4  A    between atoms: C_14  and  C_15
REMARK    5  A    between atoms: C_15  and  C_16
REMARK    6  A    between atoms: C_16  and  N_17
REMARK    7  A    between atoms: N_17  and  C_18
REMARK                            x       y       z     vdW  Elec       q    Type
REMARK                         _______ _______ _______ _____ _____    ______ ____
ROOT
ATOM      1  C   UNL     1       1.009   3.240  18.674  0.00  0.00    +0.000 C 
ENDROOT
BRANCH   1   2
ATOM      2  S   UNL     1       2.211   2.031  17.949  0.00  0.00    +0.000 S 
BRANCH   2  14
ATOM      3  C   UNL     1       5.660   5.369  14.953  0.00  0.00    +0.000 C 
ATOM      4  N   UNL     1       5.837   5.268  16.339  0.00  0.00    +0.000 N 
ATOM      5  C   UNL     1       6.634   6.128  17.102  0.00  0.00    +0.000 A 
ATOM      6  C   UNL     1       7.206   7.353  16.730  0.00  0.00    +0.000 A 
ATOM      7  C   UNL     1       8.067   7.974  17.654  0.00  0.00    +0.000 A 
ATOM      8  C   UNL     1       8.341   7.363  18.872  0.00  0.00    +0.000 A 
ATOM      9  C   UNL     1       7.716   6.166  19.239  0.00  0.00    +0.000 A 
ATOM     10  C   UNL     1       6.811   5.547  18.341  0.00  0.00    +0.000 A 
ATOM     11  C   UNL     1       5.892   4.480  18.419  0.00  0.00    +0.000 A 
ATOM     12  N   UNL     1       5.516   3.631  19.427  0.00  0.00    +0.000 NA
ATOM     13  N   UNL     1       4.443   2.858  19.183  0.00  0.00    +0.000 NA
ATOM     14  C   UNL     1       3.804   2.859  17.967  0.00  0.00    +0.000 A 
ATOM     15  N   UNL     1       4.189   3.555  16.893  0.00  0.00    +0.000 NA
ATOM     16  C   UNL     1       5.242   4.356  17.206  0.00  0.00    +0.000 A 
ENDBRANCH   2  14
ENDBRANCH   1   2
BRANCH   1  17
ATOM     17  C   UNL     1       0.982   3.432  20.212  0.00  0.00    +0.000 C 
BRANCH  17  18
ATOM     18  C   UNL     1       1.544   4.735  20.808  0.00  0.00    +0.000 C 
BRANCH  18  19
ATOM     19  N   UNL     1       2.823   5.403  20.293  0.00  0.00    +0.000 N 
ATOM     20  H   UNL     1       3.331   4.783  19.658  0.00  0.00    +0.000 HD
BRANCH  19  21
ATOM     21  C   UNL     1       2.601   6.680  19.602  0.00  0.00    +0.000 A 
ATOM     22  C   UNL     1       3.106   6.781  18.293  0.00  0.00    +0.000 A 
ATOM     23  C   UNL     1       3.028   7.945  17.608  0.00  0.00    +0.000 A 
ATOM     24  N   UNL     1       2.175   8.914  17.903  0.00  0.00    +0.000 NA
ATOM     25  C   UNL     1       1.524   8.820  19.056  0.00  0.00    +0.000 A 
ATOM     26  C   UNL     1       0.590   9.826  19.143  0.00  0.00    +0.000 A 
ATOM     27  C   UNL     1       0.022  10.165  20.340  0.00  0.00    +0.000 A 
ATOM     28 CL   UNL     1      -0.993  11.545  20.429  0.00  0.00    +0.000 Cl
ATOM     29  C   UNL     1       0.382   9.418  21.458  0.00  0.00    +0.000 A 
ATOM     30  C   UNL     1       1.191   8.254  21.336  0.00  0.00    +0.000 A 
ATOM     31  C   UNL     1       1.782   7.863  20.071  0.00  0.00    +0.000 A 
ENDBRANCH  19  21
ENDBRANCH  18  19
ENDBRANCH  17  18
ENDBRANCH   1  17
TORSDOF 6
ENDMDL
MODEL 2
REMARK VINA RESULT:      -7.8      1.519      2.724
REMARK  Name = 
REMARK  7 active torsions:
REMARK  status: ('A' for Active; 'I' for Inactive)
REMARK    1  A    between atoms: C_1  and  N_2
REMARK    2  A    between atoms: C_12  and  S_13
REMARK    3  A    between atoms: S_13  and  C_14
REMARK    4  A    between atoms: C_14  and  C_15
REMARK    5  A    between atoms: C_15  and  C_16
REMARK    6  A    between atoms: C_16  and  N_17
REMARK    7  A    between atoms: N_17  and  C_18
REMARK                            x       y       z     vdW  Elec       q    Type
REMARK                         _______ _______ _______ _____ _____    ______ ____
ROOT
ATOM      1  C   UNL     1       1.775   3.232  21.420  0.00  0.00    +0.000 C 
ENDROOT
BRANCH   1   2
ATOM      2  S   UNL     1       3.297   2.380  20.794  0.00  0.00    +0.000 S 
BRANCH   2  14
ATOM      3  C   UNL     1       6.961   5.915  18.326  0.00  0.00    +0.000 C 
ATOM      4  N   UNL     1       6.183   5.067  17.528  0.00  0.00    +0.000 N 
ATOM      5  C   UNL     1       6.413   4.823  16.169  0.00  0.00    +0.000 A 
ATOM      6  C   UNL     1       7.539   5.149  15.400  0.00  0.00    +0.000 A 
ATOM      7  C   UNL     1       7.475   4.893  14.017  0.00  0.00    +0.000 A 
ATOM      8  C   UNL     1       6.320   4.358  13.459  0.00  0.00    +0.000 A 
ATOM      9  C   UNL     1       5.231   3.994  14.258  0.00  0.00    +0.000 A 
ATOM     10  C   UNL     1       5.292   4.202  15.658  0.00  0.00    +0.000 A 
ATOM     11  C   UNL     1       4.505   3.820  16.765  0.00  0.00    +0.000 A 
ATOM     12  N   UNL     1       3.364   3.072  16.897  0.00  0.00    +0.000 NA
ATOM     13  N   UNL     1       3.013   2.744  18.153  0.00  0.00    +0.000 NA
ATOM     14  C   UNL     1       3.709   3.195  19.248  0.00  0.00    +0.000 A 
ATOM     15  N   UNL     1       4.748   4.034  19.211  0.00  0.00    +0.000 NA
ATOM     16  C   UNL     1       5.094   4.293  17.922  0.00  0.00    +0.000 A 
ENDBRANCH   2  14
ENDBRANCH   1   2
BRANCH   1  17
ATOM     17  C   UNL     1       1.182   4.400  20.591  0.00  0.00    +0.000 C 
BRANCH  17  18
ATOM     18  C   UNL     1       1.778   5.809  20.759  0.00  0.00    +0.000 C 
BRANCH  18  19
ATOM     19  N   UNL     1       2.419   6.585  19.603  0.00  0.00    +0.000 N 
ATOM     20  H   UNL     1       2.264   6.110  18.711  0.00  0.00    +0.000 HD
BRANCH  19  21
ATOM     21  C   UNL     1       1.947   7.969  19.471  0.00  0.00    +0.000 A 
ATOM     22  C   UNL     1       2.058   8.550  18.195  0.00  0.00    +0.000 A 
ATOM     23  C   UNL     1       1.732   9.848  17.993  0.00  0.00    +0.000 A 
ATOM     24  N   UNL     1       0.947  10.541  18.804  0.00  0.00    +0.000 NA
ATOM     25  C   UNL     1       0.651   9.995  19.978  0.00  0.00    +0.000 A 
ATOM     26  C   UNL     1      -0.271  10.778  20.633  0.00  0.00    +0.000 A 
ATOM     27  C   UNL     1      -0.497  10.634  21.974  0.00  0.00    +0.000 A 
ATOM     28 CL   UNL     1      -1.515  11.755  22.780  0.00  0.00    +0.000 Cl
ATOM     29  C   UNL     1       0.201   9.631  22.641  0.00  0.00    +0.000 A 
ATOM     30  C   UNL     1       1.002   8.695  21.931  0.00  0.00    +0.000 A 
ATOM     31  C   UNL     1       1.233   8.813  20.505  0.00  0.00    +0.000 A 
ENDBRANCH  19  21
ENDBRANCH  18  19
ENDBRANCH  17  18
ENDBRANCH   1  17
TORSDOF 6
ENDMDL
MODEL 3
REMARK VINA RESULT:      -7.6      2.914      7.800
REMARK  Name = 
REMARK  7 active torsions:
REMARK  status: ('A' for Active; 'I' for Inactive)
REMARK    1  A    between atoms: C_1  and  N_2
REMARK    2  A    between atoms: C_12  and  S_13
REMARK    3  A    between atoms: S_13  and  C_14
REMARK    4  A    between atoms: C_14  and  C_15
REMARK    5  A    between atoms: C_15  and  C_16
REMARK    6  A    between atoms: C_16  and  N_17
REMARK    7  A    between atoms: N_17  and  C_18
REMARK                            x       y       z     vdW  Elec       q    Type
REMARK                         _______ _______ _______ _____ _____    ______ ____
ROOT
ATOM      1  C   UNL     1       3.095   5.920  19.562  0.00  0.00    +0.000 C 
ENDROOT
BRANCH   1   2
ATOM      2  S   UNL     1       2.396   7.226  18.449  0.00  0.00    +0.000 S 
BRANCH   2  14
ATOM      3  C   UNL     1      -0.212  12.246  18.572  0.00  0.00    +0.000 C 
ATOM      4  N   UNL     1      -0.245  11.428  19.709  0.00  0.00    +0.000 N 
ATOM      5  C   UNL     1      -1.093  11.625  20.805  0.00  0.00    +0.000 A 
ATOM      6  C   UNL     1      -2.203  12.475  20.912  0.00  0.00    +0.000 A 
ATOM      7  C   UNL     1      -2.825  12.574  22.170  0.00  0.00    +0.000 A 
ATOM      8  C   UNL     1      -2.325  11.862  23.254  0.00  0.00    +0.000 A 
ATOM      9  C   UNL     1      -1.248  10.981  23.107  0.00  0.00    +0.000 A 
ATOM     10  C   UNL     1      -0.635  10.833  21.837  0.00  0.00    +0.000 A 
ATOM     11  C   UNL     1       0.315   9.953  21.278  0.00  0.00    +0.000 A 
ATOM     12  N   UNL     1       1.004   8.874  21.768  0.00  0.00    +0.000 NA
ATOM     13  N   UNL     1       1.680   8.142  20.865  0.00  0.00    +0.000 NA
ATOM     14  C   UNL     1       1.744   8.496  19.539  0.00  0.00    +0.000 A 
ATOM     15  N   UNL     1       1.214   9.601  19.008  0.00  0.00    +0.000 NA
ATOM     16  C   UNL     1       0.500  10.276  19.947  0.00  0.00    +0.000 A 
ENDBRANCH   2  14
ENDBRANCH   1   2
BRANCH   1  17
ATOM     17  C   UNL     1       2.936   4.433  19.154  0.00  0.00    +0.000 C 
BRANCH  17  18
ATOM     18  C   UNL     1       4.053   3.439  19.522  0.00  0.00    +0.000 C 
BRANCH  18  19
ATOM     19  N   UNL     1       5.186   3.066  18.558  0.00  0.00    +0.000 N 
ATOM     20  H   UNL     1       4.935   2.249  17.996  0.00  0.00    +0.000 HD
BRANCH  19  21
ATOM     21  C   UNL     1       5.581   4.146  17.645  0.00  0.00    +0.000 A 
ATOM     22  C   UNL     1       4.918   4.191  16.405  0.00  0.00    +0.000 A 
ATOM     23  C   UNL     1       5.272   5.094  15.462  0.00  0.00    +0.000 A 
ATOM     24  N   UNL     1       5.938   6.208  15.726  0.00  0.00    +0.000 NA
ATOM     25  C   UNL     1       6.467   6.326  16.939  0.00  0.00    +0.000 A 
ATOM     26  C   UNL     1       7.002   7.585  17.089  0.00  0.00    +0.000 A 
ATOM     27  C   UNL     1       7.886   7.863  18.094  0.00  0.00    +0.000 A 
ATOM     28 CL   UNL     1       8.668   9.390  18.128  0.00  0.00    +0.000 Cl
ATOM     29  C   UNL     1       8.184   6.842  18.992  0.00  0.00    +0.000 A 
ATOM     30  C   UNL     1       7.482   5.605  18.958  0.00  0.00    +0.000 A 
ATOM     31  C   UNL     1       6.522   5.300  17.917  0.00  0.00    +0.000 A 
ENDBRANCH  19  21
ENDBRANCH  18  19
ENDBRANCH  17  18
ENDBRANCH   1  17
TORSDOF 6
ENDMDL
MODEL 4
REMARK VINA RESULT:      -7.4      2.746      7.402
REMARK  Name = 
REMARK  7 active torsions:
REMARK  status: ('A' for Active; 'I' for Inactive)
REMARK    1  A    between atoms: C_1  and  N_2
REMARK    2  A    between atoms: C_12  and  S_13
REMARK    3  A    between atoms: S_13  and  C_14
REMARK    4  A    between atoms: C_14  and  C_15
REMARK    5  A    between atoms: C_15  and  C_16
REMARK    6  A    between atoms: C_16  and  N_17
REMARK    7  A    between atoms: N_17  and  C_18
REMARK                            x       y       z     vdW  Elec       q    Type
REMARK                         _______ _______ _______ _____ _____    ______ ____
ROOT
ATOM      1  C   UNL     1       2.070   5.296  18.169  0.00  0.00    +0.000 C 
ENDROOT
BRANCH   1   2
ATOM      2  S   UNL     1       3.227   6.708  18.486  0.00  0.00    +0.000 S 
BRANCH   2  14
ATOM      3  C   UNL     1      -0.156   9.696  21.899  0.00  0.00    +0.000 C 
ATOM      4  N   UNL     1       0.395  10.313  20.768  0.00  0.00    +0.000 N 
ATOM      5  C   UNL     1       0.397  11.694  20.538  0.00  0.00    +0.000 A 
ATOM      6  C   UNL     1       0.093  12.731  21.431  0.00  0.00    +0.000 A 
ATOM      7  C   UNL     1       0.058  14.040  20.917  0.00  0.00    +0.000 A 
ATOM      8  C   UNL     1       0.298  14.266  19.567  0.00  0.00    +0.000 A 
ATOM      9  C   UNL     1       0.651  13.219  18.708  0.00  0.00    +0.000 A 
ATOM     10  C   UNL     1       0.735  11.898  19.216  0.00  0.00    +0.000 A 
ATOM     11  C   UNL     1       1.209  10.664  18.727  0.00  0.00    +0.000 A 
ATOM     12  N   UNL     1       1.795  10.278  17.549  0.00  0.00    +0.000 NA
ATOM     13  N   UNL     1       2.310   9.036  17.522  0.00  0.00    +0.000 NA
ATOM     14  C   UNL     1       2.191   8.172  18.583  0.00  0.00    +0.000 A 
ATOM     15  N   UNL     1       1.520   8.423  19.711  0.00  0.00    +0.000 NA
ATOM     16  C   UNL     1       1.065   9.704  19.711  0.00  0.00    +0.000 A 
ENDBRANCH   2  14
ENDBRANCH   1   2
BRANCH   1  17
ATOM     17  C   UNL     1       2.465   3.883  18.669  0.00  0.00    +0.000 C 
BRANCH  17  18
ATOM     18  C   UNL     1       3.128   2.904  17.684  0.00  0.00    +0.000 C 
BRANCH  18  19
ATOM     19  N   UNL     1       4.648   2.746  17.561  0.00  0.00    +0.000 N 
ATOM     20  H   UNL     1       4.888   1.886  17.063  0.00  0.00    +0.000 HD
BRANCH  19  21
ATOM     21  C   UNL     1       5.318   3.866  16.888  0.00  0.00    +0.000 A 
ATOM     22  C   UNL     1       4.933   4.120  15.559  0.00  0.00    +0.000 A 
ATOM     23  C   UNL     1       5.554   5.073  14.827  0.00  0.00    +0.000 A 
ATOM     24  N   UNL     1       6.248   6.069  15.357  0.00  0.00    +0.000 NA
ATOM     25  C   UNL     1       6.523   5.995  16.654  0.00  0.00    +0.000 A 
ATOM     26  C   UNL     1       7.126   7.161  17.067  0.00  0.00    +0.000 A 
ATOM     27  C   UNL     1       7.804   7.227  18.252  0.00  0.00    +0.000 A 
ATOM     28 CL   UNL     1       8.696   8.643  18.633  0.00  0.00    +0.000 Cl
ATOM     29  C   UNL     1       7.817   6.088  19.052  0.00  0.00    +0.000 A 
ATOM     30  C   UNL     1       7.030   4.950  18.723  0.00  0.00    +0.000 A 
ATOM     31  C   UNL     1       6.282   4.870  17.484  0.00  0.00    +0.000 A 
ENDBRANCH  19  21
ENDBRANCH  18  19
ENDBRANCH  17  18
ENDBRANCH   1  17
TORSDOF 6
ENDMDL
MODEL 5
REMARK VINA RESULT:      -7.3      1.055      1.195
REMARK  Name = 
REMARK  7 active torsions:
REMARK  status: ('A' for Active; 'I' for Inactive)
REMARK    1  A    between atoms: C_1  and  N_2
REMARK    2  A    between atoms: C_12  and  S_13
REMARK    3  A    between atoms: S_13  and  C_14
REMARK    4  A    between atoms: C_14  and  C_15
REMARK    5  A    between atoms: C_15  and  C_16
REMARK    6  A    between atoms: C_16  and  N_17
REMARK    7  A    between atoms: N_17  and  C_18
REMARK                            x       y       z     vdW  Elec       q    Type
REMARK                         _______ _______ _______ _____ _____    ______ ____
ROOT
ATOM      1  C   UNL     1       1.449   2.666  20.921  0.00  0.00    +0.000 C 
ENDROOT
BRANCH   1   2
ATOM      2  S   UNL     1       1.969   2.007  19.269  0.00  0.00    +0.000 S 
BRANCH   2  14
ATOM      3  C   UNL     1       4.650   5.473  15.689  0.00  0.00    +0.000 C 
ATOM      4  N   UNL     1       5.187   5.255  16.964  0.00  0.00    +0.000 N 
ATOM      5  C   UNL     1       6.203   6.025  17.541  0.00  0.00    +0.000 A 
ATOM      6  C   UNL     1       6.715   7.259  17.114  0.00  0.00    +0.000 A 
ATOM      7  C   UNL     1       7.823   7.777  17.810  0.00  0.00    +0.000 A 
ATOM      8  C   UNL     1       8.383   7.062  18.862  0.00  0.00    +0.000 A 
ATOM      9  C   UNL     1       7.820   5.858  19.300  0.00  0.00    +0.000 A 
ATOM     10  C   UNL     1       6.676   5.341  18.641  0.00  0.00    +0.000 A 
ATOM     11  C   UNL     1       5.760   4.299  18.891  0.00  0.00    +0.000 A 
ATOM     12  N   UNL     1       5.626   3.383  19.902  0.00  0.00    +0.000 NA
ATOM     13  N   UNL     1       4.489   2.665  19.904  0.00  0.00    +0.000 NA
ATOM     14  C   UNL     1       3.548   2.783  18.911  0.00  0.00    +0.000 A 
ATOM     15  N   UNL     1       3.664   3.552  17.824  0.00  0.00    +0.000 NA
ATOM     16  C   UNL     1       4.802   4.293  17.895  0.00  0.00    +0.000 A 
ENDBRANCH   2  14
ENDBRANCH   1   2
BRANCH   1  17
ATOM     17  C   UNL     1       2.203   3.888  21.505  0.00  0.00    +0.000 C 
BRANCH  17  18
ATOM     18  C   UNL     1       2.377   5.141  20.629  0.00  0.00    +0.000 C 
BRANCH  18  19
ATOM     19  N   UNL     1       1.657   6.464  20.915  0.00  0.00    +0.000 N 
ATOM     20  H   UNL     1       1.960   6.860  21.809  0.00  0.00    +0.000 HD
BRANCH  19  21
ATOM     21  C   UNL     1       1.839   7.487  19.877  0.00  0.00    +0.000 A 
ATOM     22  C   UNL     1       2.461   7.069  18.687  0.00  0.00    +0.000 A 
ATOM     23  C   UNL     1       2.751   7.956  17.708  0.00  0.00    +0.000 A 
ATOM     24  N   UNL     1       2.162   9.136  17.589  0.00  0.00    +0.000 NA
ATOM     25  C   UNL     1       1.414   9.547  18.607  0.00  0.00    +0.000 A 
ATOM     26  C   UNL     1       0.774  10.717  18.268  0.00  0.00    +0.000 A 
ATOM     27  C   UNL     1       0.216  11.522  19.223  0.00  0.00    +0.000 A 
ATOM     28 CL   UNL     1      -0.402  13.057  18.772  0.00  0.00    +0.000 Cl
ATOM     29  C   UNL     1       0.271  11.087  20.544  0.00  0.00    +0.000 A 
ATOM     30  C   UNL     1       0.753   9.790  20.872  0.00  0.00    +0.000 A 
ATOM     31  C   UNL     1       1.323   8.910  19.872  0.00  0.00    +0.000 A 
ENDBRANCH  19  21
ENDBRANCH  18  19
ENDBRANCH  17  18
ENDBRANCH   1  17
TORSDOF 6
ENDMDL
MODEL 6
REMARK VINA RESULT:      -7.2      3.710      8.935
REMARK  Name = 
REMARK  7 active torsions:
REMARK  status: ('A' for Active; 'I' for Inactive)
REMARK    1  A    between atoms: C_1  and  N_2
REMARK    2  A    between atoms: C_12  and  S_13
REMARK    3  A    between atoms: S_13  and  C_14
REMARK    4  A    between atoms: C_14  and  C_15
REMARK    5  A    between atoms: C_15  and  C_16
REMARK    6  A    between atoms: C_16  and  N_17
REMARK    7  A    between atoms: N_17  and  C_18
REMARK                            x       y       z     vdW  Elec       q    Type
REMARK                         _______ _______ _______ _____ _____    ______ ____
ROOT
ATOM      1  C   UNL     1       2.439   7.029  19.164  0.00  0.00    +0.000 C 
ENDROOT
BRANCH   1   2
ATOM      2  S   UNL     1       2.130   8.545  18.145  0.00  0.00    +0.000 S 
BRANCH   2  14
ATOM      3  C   UNL     1      -0.254   9.778  23.126  0.00  0.00    +0.000 C 
ATOM      4  N   UNL     1      -0.589  10.539  21.999  0.00  0.00    +0.000 N 
ATOM      5  C   UNL     1      -1.273  11.760  22.039  0.00  0.00    +0.000 A 
ATOM      6  C   UNL     1      -1.546  12.574  23.147  0.00  0.00    +0.000 A 
ATOM      7  C   UNL     1      -2.356  13.705  22.936  0.00  0.00    +0.000 A 
ATOM      8  C   UNL     1      -2.871  13.969  21.672  0.00  0.00    +0.000 A 
ATOM      9  C   UNL     1      -2.539  13.169  20.573  0.00  0.00    +0.000 A 
ATOM     10  C   UNL     1      -1.688  12.050  20.756  0.00  0.00    +0.000 A 
ATOM     11  C   UNL     1      -1.015  11.152  19.902  0.00  0.00    +0.000 A 
ATOM     12  N   UNL     1      -0.922  11.036  18.539  0.00  0.00    +0.000 NA
ATOM     13  N   UNL     1      -0.006  10.165  18.080  0.00  0.00    +0.000 NA
ATOM     14  C   UNL     1       0.741   9.378  18.922  0.00  0.00    +0.000 A 
ATOM     15  N   UNL     1       0.617   9.334  20.251  0.00  0.00    +0.000 NA
ATOM     16  C   UNL     1      -0.282  10.266  20.669  0.00  0.00    +0.000 A 
ENDBRANCH   2  14
ENDBRANCH   1   2
BRANCH   1  17
ATOM     17  C   UNL     1       3.145   5.818  18.502  0.00  0.00    +0.000 C 
BRANCH  17  18
ATOM     18  C   UNL     1       3.806   4.760  19.403  0.00  0.00    +0.000 C 
BRANCH  18  19
ATOM     19  N   UNL     1       5.286   4.377  19.290  0.00  0.00    +0.000 N 
ATOM     20  H   UNL     1       5.397   3.365  19.192  0.00  0.00    +0.000 HD
BRANCH  19  21
ATOM     21  C   UNL     1       5.994   5.024  18.178  0.00  0.00    +0.000 A 
ATOM     22  C   UNL     1       6.957   5.989  18.524  0.00  0.00    +0.000 A 
ATOM     23  C   UNL     1       7.598   6.701  17.569  0.00  0.00    +0.000 A 
ATOM     24  N   UNL     1       7.691   6.317  16.305  0.00  0.00    +0.000 NA
ATOM     25  C   UNL     1       6.931   5.296  15.923  0.00  0.00    +0.000 A 
ATOM     26  C   UNL     1       7.246   4.944  14.631  0.00  0.00    +0.000 A 
ATOM     27  C   UNL     1       6.408   4.162  13.885  0.00  0.00    +0.000 A 
ATOM     28 CL   UNL     1       6.752   3.906  12.224  0.00  0.00    +0.000 Cl
ATOM     29  C   UNL     1       5.250   3.691  14.499  0.00  0.00    +0.000 A 
ATOM     30  C   UNL     1       5.023   3.888  15.889  0.00  0.00    +0.000 A 
ATOM     31  C   UNL     1       5.913   4.691  16.703  0.00  0.00    +0.000 A 
ENDBRANCH  19  21
ENDBRANCH  18  19
ENDBRANCH  17  18
ENDBRANCH   1  17
TORSDOF 6
ENDMDL
MODEL 7
REMARK VINA RESULT:      -7.2      3.228      8.068
REMARK  Name = 
REMARK  7 active torsions:
REMARK  status: ('A' for Active; 'I' for Inactive)
REMARK    1  A    between atoms: C_1  and  N_2
REMARK    2  A    between atoms: C_12  and  S_13
REMARK    3  A    between atoms: S_13  and  C_14
REMARK    4  A    between atoms: C_14  and  C_15
REMARK    5  A    between atoms: C_15  and  C_16
REMARK    6  A    between atoms: C_16  and  N_17
REMARK    7  A    between atoms: N_17  and  C_18
REMARK                            x       y       z     vdW  Elec       q    Type
REMARK                         _______ _______ _______ _____ _____    ______ ____
ROOT
ATOM      1  C   UNL     1       2.488   5.271  18.633  0.00  0.00    +0.000 C 
ENDROOT
BRANCH   1   2
ATOM      2  S   UNL     1       3.251   6.920  18.273  0.00  0.00    +0.000 S 
BRANCH   2  14
ATOM      3  C   UNL     1       0.163   9.172  22.445  0.00  0.00    +0.000 C 
ATOM      4  N   UNL     1       0.309   9.877  21.243  0.00  0.00    +0.000 N 
ATOM      5  C   UNL     1      -0.027  11.224  21.066  0.00  0.00    +0.000 A 
ATOM      6  C   UNL     1      -0.334  12.185  22.040  0.00  0.00    +0.000 A 
ATOM      7  C   UNL     1      -0.753  13.451  21.592  0.00  0.00    +0.000 A 
ATOM      8  C   UNL     1      -0.870  13.706  20.230  0.00  0.00    +0.000 A 
ATOM      9  C   UNL     1      -0.507  12.745  19.280  0.00  0.00    +0.000 A 
ATOM     10  C   UNL     1      -0.040  11.479  19.710  0.00  0.00    +0.000 A 
ATOM     11  C   UNL     1       0.560  10.365  19.086  0.00  0.00    +0.000 A 
ATOM     12  N   UNL     1       0.938  10.097  17.796  0.00  0.00    +0.000 NA
ATOM     13  N   UNL     1       1.681   8.991  17.614  0.00  0.00    +0.000 NA
ATOM     14  C   UNL     1       1.981   8.134  18.644  0.00  0.00    +0.000 A 
ATOM     15  N   UNL     1       1.540   8.252  19.900  0.00  0.00    +0.000 NA
ATOM     16  C   UNL     1       0.840   9.409  20.044  0.00  0.00    +0.000 A 
ENDBRANCH   2  14
ENDBRANCH   1   2
BRANCH   1  17
ATOM     17  C   UNL     1       3.048   4.018  17.911  0.00  0.00    +0.000 C 
BRANCH  17  18
ATOM     18  C   UNL     1       4.038   3.109  18.661  0.00  0.00    +0.000 C 
BRANCH  18  19
ATOM     19  N   UNL     1       5.464   3.547  19.015  0.00  0.00    +0.000 N 
ATOM     20  H   UNL     1       6.091   2.740  19.073  0.00  0.00    +0.000 HD
BRANCH  19  21
ATOM     21  C   UNL     1       6.050   4.514  18.078  0.00  0.00    +0.000 A 
ATOM     22  C   UNL     1       6.728   5.606  18.648  0.00  0.00    +0.000 A 
ATOM     23  C   UNL     1       7.225   6.596  17.870  0.00  0.00    +0.000 A 
ATOM     24  N   UNL     1       7.476   6.457  16.578  0.00  0.00    +0.000 NA
ATOM     25  C   UNL     1       7.009   5.365  15.983  0.00  0.00    +0.000 A 
ATOM     26  C   UNL     1       7.468   5.313  14.687  0.00  0.00    +0.000 A 
ATOM     27  C   UNL     1       6.886   4.491  13.761  0.00  0.00    +0.000 A 
ATOM     28 CL   UNL     1       7.369   4.599  12.119  0.00  0.00    +0.000 Cl
ATOM     29  C   UNL     1       5.848   3.669  14.192  0.00  0.00    +0.000 A 
ATOM     30  C   UNL     1       5.507   3.576  15.569  0.00  0.00    +0.000 A 
ATOM     31  C   UNL     1       6.130   4.419  16.570  0.00  0.00    +0.000 A 
ENDBRANCH  19  21
ENDBRANCH  18  19
ENDBRANCH  17  18
ENDBRANCH   1  17
TORSDOF 6
ENDMDL
MODEL 8
REMARK VINA RESULT:      -7.2      3.539      8.525
REMARK  Name = 
REMARK  7 active torsions:
REMARK  status: ('A' for Active; 'I' for Inactive)
REMARK    1  A    between atoms: C_1  and  N_2
REMARK    2  A    between atoms: C_12  and  S_13
REMARK    3  A    between atoms: S_13  and  C_14
REMARK    4  A    between atoms: C_14  and  C_15
REMARK    5  A    between atoms: C_15  and  C_16
REMARK    6  A    between atoms: C_16  and  N_17
REMARK    7  A    between atoms: N_17  and  C_18
REMARK                            x       y       z     vdW  Elec       q    Type
REMARK                         _______ _______ _______ _____ _____    ______ ____
ROOT
ATOM      1  C   UNL     1       2.083   6.001  19.666  0.00  0.00    +0.000 C 
ENDROOT
BRANCH   1   2
ATOM      2  S   UNL     1       2.311   7.577  18.719  0.00  0.00    +0.000 S 
BRANCH   2  14
ATOM      3  C   UNL     1      -0.614  12.417  18.531  0.00  0.00    +0.000 C 
ATOM      4  N   UNL     1      -0.606  11.666  19.714  0.00  0.00    +0.000 N 
ATOM      5  C   UNL     1      -1.476  11.870  20.791  0.00  0.00    +0.000 A 
ATOM      6  C   UNL     1      -2.639  12.652  20.840  0.00  0.00    +0.000 A 
ATOM      7  C   UNL     1      -3.280  12.783  22.086  0.00  0.00    +0.000 A 
ATOM      8  C   UNL     1      -2.746  12.169  23.213  0.00  0.00    +0.000 A 
ATOM      9  C   UNL     1      -1.613  11.352  23.125  0.00  0.00    +0.000 A 
ATOM     10  C   UNL     1      -0.979  11.170  21.871  0.00  0.00    +0.000 A 
ATOM     11  C   UNL     1       0.030  10.322  21.370  0.00  0.00    +0.000 A 
ATOM     12  N   UNL     1       0.782   9.320  21.927  0.00  0.00    +0.000 NA
ATOM     13  N   UNL     1       1.514   8.583  21.072  0.00  0.00    +0.000 NA
ATOM     14  C   UNL     1       1.568   8.862  19.729  0.00  0.00    +0.000 A 
ATOM     15  N   UNL     1       0.974   9.899  19.130  0.00  0.00    +0.000 NA
ATOM     16  C   UNL     1       0.208  10.580  20.024  0.00  0.00    +0.000 A 
ENDBRANCH   2  14
ENDBRANCH   1   2
BRANCH   1  17
ATOM     17  C   UNL     1       2.438   4.659  18.976  0.00  0.00    +0.000 C 
BRANCH  17  18
ATOM     18  C   UNL     1       3.544   3.780  19.586  0.00  0.00    +0.000 C 
BRANCH  18  19
ATOM     19  N   UNL     1       4.688   3.185  18.756  0.00  0.00    +0.000 N 
ATOM     20  H   UNL     1       4.330   2.546  18.042  0.00  0.00    +0.000 HD
BRANCH  19  21
ATOM     21  C   UNL     1       5.534   4.184  18.091  0.00  0.00    +0.000 A 
ATOM     22  C   UNL     1       6.286   5.027  18.930  0.00  0.00    +0.000 A 
ATOM     23  C   UNL     1       7.027   6.035  18.415  0.00  0.00    +0.000 A 
ATOM     24  N   UNL     1       7.427   6.082  17.153  0.00  0.00    +0.000 NA
ATOM     25  C   UNL     1       6.886   5.207  16.312  0.00  0.00    +0.000 A 
ATOM     26  C   UNL     1       7.502   5.303  15.086  0.00  0.00    +0.000 A 
ATOM     27  C   UNL     1       6.934   4.768  13.963  0.00  0.00    +0.000 A 
ATOM     28 CL   UNL     1       7.646   5.075  12.433  0.00  0.00    +0.000 Cl
ATOM     29  C   UNL     1       5.736   4.076  14.115  0.00  0.00    +0.000 A 
ATOM     30  C   UNL     1       5.201   3.806  15.405  0.00  0.00    +0.000 A 
ATOM     31  C   UNL     1       5.803   4.341  16.610  0.00  0.00    +0.000 A 
ENDBRANCH  19  21
ENDBRANCH  18  19
ENDBRANCH  17  18
ENDBRANCH   1  17
TORSDOF 6
ENDMDL
MODEL 9
REMARK VINA RESULT:      -7.1      1.505      2.359
REMARK  Name = 
REMARK  7 active torsions:
REMARK  status: ('A' for Active; 'I' for Inactive)
REMARK    1  A    between atoms: C_1  and  N_2
REMARK    2  A    between atoms: C_12  and  S_13
REMARK    3  A    between atoms: S_13  and  C_14
REMARK    4  A    between atoms: C_14  and  C_15
REMARK    5  A    between atoms: C_15  and  C_16
REMARK    6  A    between atoms: C_16  and  N_17
REMARK    7  A    between atoms: N_17  and  C_18
REMARK                            x       y       z     vdW  Elec       q    Type
REMARK                         _______ _______ _______ _____ _____    ______ ____
ROOT
ATOM      1  C   UNL     1       0.768   3.350  19.829  0.00  0.00    +0.000 C 
ENDROOT
BRANCH   1   2
ATOM      2  S   UNL     1       1.714   2.143  18.790  0.00  0.00    +0.000 S 
BRANCH   2  14
ATOM      3  C   UNL     1       4.923   5.359  15.417  0.00  0.00    +0.000 C 
ATOM      4  N   UNL     1       5.299   5.181  16.755  0.00  0.00    +0.000 N 
ATOM      5  C   UNL     1       6.267   5.944  17.417  0.00  0.00    +0.000 A 
ATOM      6  C   UNL     1       6.871   7.141  17.005  0.00  0.00    +0.000 A 
ATOM      7  C   UNL     1       7.908   7.654  17.805  0.00  0.00    +0.000 A 
ATOM      8  C   UNL     1       8.314   6.969  18.945  0.00  0.00    +0.000 A 
ATOM      9  C   UNL     1       7.659   5.804  19.361  0.00  0.00    +0.000 A 
ATOM     10  C   UNL     1       6.582   5.295  18.592  0.00  0.00    +0.000 A 
ATOM     11  C   UNL     1       5.605   4.294  18.773  0.00  0.00    +0.000 A 
ATOM     12  N   UNL     1       5.320   3.429  19.797  0.00  0.00    +0.000 NA
ATOM     13  N   UNL     1       4.165   2.748  19.693  0.00  0.00    +0.000 NA
ATOM     14  C   UNL     1       3.352   2.852  18.591  0.00  0.00    +0.000 A 
ATOM     15  N   UNL     1       3.624   3.568  17.496  0.00  0.00    +0.000 NA
ATOM     16  C   UNL     1       4.772   4.275  17.671  0.00  0.00    +0.000 A 
ENDBRANCH   2  14
ENDBRANCH   1   2
BRANCH   1  17
ATOM     17  C   UNL     1       1.552   4.440  20.603  0.00  0.00    +0.000 C 
BRANCH  17  18
ATOM     18  C   UNL     1       1.063   5.898  20.535  0.00  0.00    +0.000 C 
BRANCH  18  19
ATOM     19  N   UNL     1       2.003   7.100  20.684  0.00  0.00    +0.000 N 
ATOM     20  H   UNL     1       2.539   7.255  19.826  0.00  0.00    +0.000 HD
BRANCH  19  21
ATOM     21  C   UNL     1       1.326   8.355  21.033  0.00  0.00    +0.000 A 
ATOM     22  C   UNL     1       0.900   8.489  22.367  0.00  0.00    +0.000 A 
ATOM     23  C   UNL     1       0.191   9.570  22.763  0.00  0.00    +0.000 A 
ATOM     24  N   UNL     1       0.176  10.719  22.105  0.00  0.00    +0.000 NA
ATOM     25  C   UNL     1       0.708  10.729  20.889  0.00  0.00    +0.000 A 
ATOM     26  C   UNL     1       0.731  12.017  20.404  0.00  0.00    +0.000 A 
ATOM     27  C   UNL     1       0.912  12.271  19.073  0.00  0.00    +0.000 A 
ATOM     28 CL   UNL     1       0.746  13.876  18.493  0.00  0.00    +0.000 Cl
ATOM     29  C   UNL     1       1.127  11.181  18.233  0.00  0.00    +0.000 A 
ATOM     30  C   UNL     1       1.302   9.871  18.758  0.00  0.00    +0.000 A 
ATOM     31  C   UNL     1       1.141   9.585  20.170  0.00  0.00    +0.000 A 
ENDBRANCH  19  21
ENDBRANCH  18  19
ENDBRANCH  17  18
ENDBRANCH   1  17
TORSDOF 6
ENDMDL
