MODEL 1
REMARK VINA RESULT:      -8.2      0.000      0.000
REMARK  Name = 
REMARK  2 active torsions:
REMARK  status: ('A' for Active; 'I' for Inactive)
REMARK    1  A    between atoms: C_2  and  C_13
REMARK    2  A    between atoms: C_17  and  N_18
REMARK                            x       y       z     vdW  Elec       q    Type
REMARK                         _______ _______ _______ _____ _____    ______ ____
ROOT
ATOM      1  O   UNL     1       1.223   8.065  21.262  0.00  0.00    +0.000 OA
ATOM      2  C   UNL     1       1.367   8.291  20.064  0.00  0.00    +0.000 C 
ATOM      3  N   UNL     1       0.695   9.297  19.397  0.00  0.00    +0.000 N 
ATOM      4  C   UNL     1      -0.033  10.226  20.090  0.00  0.00    +0.000 A 
ATOM      5  N   UNL     1      -0.037  10.435  21.377  0.00  0.00    +0.000 NA
ATOM      6  C   UNL     1      -0.911  11.453  21.682  0.00  0.00    +0.000 A 
ATOM      7  C   UNL     1      -1.164  11.947  22.976  0.00  0.00    +0.000 A 
ATOM      8  C   UNL     1      -2.087  12.983  23.148  0.00  0.00    +0.000 A 
ATOM      9  C   UNL     1      -2.761  13.513  22.053  0.00  0.00    +0.000 A 
ATOM     10  C   UNL     1      -2.523  13.039  20.757  0.00  0.00    +0.000 A 
ATOM     11  C   UNL     1      -1.579  12.013  20.590  0.00  0.00    +0.000 A 
ATOM     12  S   UNL     1      -1.024  11.238  19.147  0.00  0.00    +0.000 S 
ATOM     13  H   UNL     1       0.717   9.362  18.392  0.00  0.00    +0.000 HD
ENDROOT
BRANCH   2  14
ATOM     14  C   UNL     1       2.258   7.470  19.246  0.00  0.00    +0.000 A 
ATOM     15  S   UNL     1       3.002   8.079  17.833  0.00  0.00    +0.000 S 
ATOM     16  C   UNL     1       3.930   6.652  17.591  0.00  0.00    +0.000 A 
ATOM     17  C   UNL     1       4.883   6.429  16.576  0.00  0.00    +0.000 A 
ATOM     18  C   UNL     1       5.553   5.196  16.552  0.00  0.00    +0.000 A 
ATOM     19  C   UNL     1       5.279   4.206  17.493  0.00  0.00    +0.000 A 
ATOM     20  C   UNL     1       4.323   4.443  18.484  0.00  0.00    +0.000 A 
ATOM     21  C   UNL     1       3.636   5.684  18.553  0.00  0.00    +0.000 A 
ATOM     22  C   UNL     1       2.653   6.166  19.487  0.00  0.00    +0.000 A 
ATOM     23 CL   UNL     1       2.102   5.161  20.774  0.00  0.00    +0.000 Cl
BRANCH  18  24
ATOM     24  N   UNL     1       6.569   4.949  15.519  0.00  0.00    +0.000 N 
ATOM     25  O   UNL     1       6.406   3.971  14.777  0.00  0.00    +0.000 OA
ATOM     26  O   UNL     1       7.525   5.732  15.451  0.00  0.00    +0.000 OA
ENDBRANCH  18  24
ENDBRANCH   2  14
TORSDOF 2
ENDMDL
MODEL 2
REMARK VINA RESULT:      -8.1      2.964      9.607
REMARK  Name = 
REMARK  2 active torsions:
REMARK  status: ('A' for Active; 'I' for Inactive)
REMARK    1  A    between atoms: C_2  and  C_13
REMARK    2  A    between atoms: C_17  and  N_18
REMARK                            x       y       z     vdW  Elec       q    Type
REMARK                         _______ _______ _______ _____ _____    ______ ____
ROOT
ATOM      1  O   UNL     1       2.099   9.595  17.584  0.00  0.00    +0.000 OA
ATOM      2  C   UNL     1       1.639   9.080  18.598  0.00  0.00    +0.000 C 
ATOM      3  N   UNL     1       1.856   7.759  18.942  0.00  0.00    +0.000 N 
ATOM      4  C   UNL     1       2.765   7.001  18.255  0.00  0.00    +0.000 A 
ATOM      5  N   UNL     1       3.652   7.410  17.392  0.00  0.00    +0.000 NA
ATOM      6  C   UNL     1       4.371   6.338  16.917  0.00  0.00    +0.000 A 
ATOM      7  C   UNL     1       5.414   6.411  15.974  0.00  0.00    +0.000 A 
ATOM      8  C   UNL     1       6.057   5.239  15.567  0.00  0.00    +0.000 A 
ATOM      9  C   UNL     1       5.662   4.007  16.078  0.00  0.00    +0.000 A 
ATOM     10  C   UNL     1       4.629   3.910  17.018  0.00  0.00    +0.000 A 
ATOM     11  C   UNL     1       4.002   5.095  17.437  0.00  0.00    +0.000 A 
ATOM     12  S   UNL     1       2.741   5.334  18.597  0.00  0.00    +0.000 S 
ATOM     13  H   UNL     1       1.345   7.326  19.695  0.00  0.00    +0.000 HD
ENDROOT
BRANCH   2  14
ATOM     14  C   UNL     1       0.789   9.844  19.509  0.00  0.00    +0.000 A 
ATOM     15  S   UNL     1      -0.286  11.047  18.943  0.00  0.00    +0.000 S 
ATOM     16  C   UNL     1      -0.963  11.312  20.501  0.00  0.00    +0.000 A 
ATOM     17  C   UNL     1      -2.017  12.190  20.824  0.00  0.00    +0.000 A 
ATOM     18  C   UNL     1      -2.443  12.257  22.160  0.00  0.00    +0.000 A 
ATOM     19  C   UNL     1      -1.834  11.491  23.151  0.00  0.00    +0.000 A 
ATOM     20  C   UNL     1      -0.782  10.635  22.812  0.00  0.00    +0.000 A 
ATOM     21  C   UNL     1      -0.335  10.525  21.469  0.00  0.00    +0.000 A 
ATOM     22  C   UNL     1       0.688   9.701  20.881  0.00  0.00    +0.000 A 
ATOM     23 CL   UNL     1       1.627   8.639  21.861  0.00  0.00    +0.000 Cl
BRANCH  18  24
ATOM     24  N   UNL     1      -3.557  13.146  22.516  0.00  0.00    +0.000 N 
ATOM     25  O   UNL     1      -3.350  14.367  22.481  0.00  0.00    +0.000 OA
ATOM     26  O   UNL     1      -4.634  12.623  22.828  0.00  0.00    +0.000 OA
ENDBRANCH  18  24
ENDBRANCH   2  14
TORSDOF 2
ENDMDL
MODEL 3
REMARK VINA RESULT:      -7.8      3.179      9.748
REMARK  Name = 
REMARK  2 active torsions:
REMARK  status: ('A' for Active; 'I' for Inactive)
REMARK    1  A    between atoms: C_2  and  C_13
REMARK    2  A    between atoms: C_17  and  N_18
REMARK                            x       y       z     vdW  Elec       q    Type
REMARK                         _______ _______ _______ _____ _____    ______ ____
ROOT
ATOM      1  O   UNL     1       1.836   9.648  17.504  0.00  0.00    +0.000 OA
ATOM      2  C   UNL     1       1.459   9.237  18.597  0.00  0.00    +0.000 C 
ATOM      3  N   UNL     1       1.777   7.985  19.087  0.00  0.00    +0.000 N 
ATOM      4  C   UNL     1       2.699   7.201  18.447  0.00  0.00    +0.000 A 
ATOM      5  N   UNL     1       3.516   7.551  17.493  0.00  0.00    +0.000 NA
ATOM      6  C   UNL     1       4.278   6.471  17.112  0.00  0.00    +0.000 A 
ATOM      7  C   UNL     1       5.269   6.487  16.111  0.00  0.00    +0.000 A 
ATOM      8  C   UNL     1       5.966   5.313  15.814  0.00  0.00    +0.000 A 
ATOM      9  C   UNL     1       5.676   4.133  16.492  0.00  0.00    +0.000 A 
ATOM     10  C   UNL     1       4.697   4.094  17.493  0.00  0.00    +0.000 A 
ATOM     11  C   UNL     1       4.016   5.284  17.799  0.00  0.00    +0.000 A 
ATOM     12  S   UNL     1       2.799   5.591  18.990  0.00  0.00    +0.000 S 
ATOM     13  H   UNL     1       1.332   7.619  19.913  0.00  0.00    +0.000 HD
ENDROOT
BRANCH   2  14
ATOM     14  C   UNL     1       0.606  10.058  19.454  0.00  0.00    +0.000 A 
ATOM     15  S   UNL     1       1.068  10.484  21.045  0.00  0.00    +0.000 S 
ATOM     16  C   UNL     1      -0.298  11.503  21.272  0.00  0.00    +0.000 A 
ATOM     17  C   UNL     1      -0.584  12.289  22.407  0.00  0.00    +0.000 A 
ATOM     18  C   UNL     1      -1.750  13.071  22.399  0.00  0.00    +0.000 A 
ATOM     19  C   UNL     1      -2.615  13.066  21.308  0.00  0.00    +0.000 A 
ATOM     20  C   UNL     1      -2.319  12.272  20.197  0.00  0.00    +0.000 A 
ATOM     21  C   UNL     1      -1.141  11.480  20.159  0.00  0.00    +0.000 A 
ATOM     22  C   UNL     1      -0.614  10.623  19.129  0.00  0.00    +0.000 A 
ATOM     23 CL   UNL     1      -1.469  10.407  17.648  0.00  0.00    +0.000 Cl
BRANCH  18  24
ATOM     24  N   UNL     1      -2.056  13.917  23.560  0.00  0.00    +0.000 N 
ATOM     25  O   UNL     1      -1.102  14.370  24.208  0.00  0.00    +0.000 OA
ATOM     26  O   UNL     1      -3.247  14.129  23.821  0.00  0.00    +0.000 OA
ENDBRANCH  18  24
ENDBRANCH   2  14
TORSDOF 2
ENDMDL
MODEL 4
REMARK VINA RESULT:      -7.7      1.629      2.153
REMARK  Name = 
REMARK  2 active torsions:
REMARK  status: ('A' for Active; 'I' for Inactive)
REMARK    1  A    between atoms: C_2  and  C_13
REMARK    2  A    between atoms: C_17  and  N_18
REMARK                            x       y       z     vdW  Elec       q    Type
REMARK                         _______ _______ _______ _____ _____    ______ ____
ROOT
ATOM      1  O   UNL     1       2.171   6.359  20.054  0.00  0.00    +0.000 OA
ATOM      2  C   UNL     1       2.392   6.975  19.015  0.00  0.00    +0.000 C 
ATOM      3  N   UNL     1       1.835   8.207  18.732  0.00  0.00    +0.000 N 
ATOM      4  C   UNL     1       1.148   8.898  19.692  0.00  0.00    +0.000 A 
ATOM      5  N   UNL     1       1.095   8.644  20.970  0.00  0.00    +0.000 NA
ATOM      6  C   UNL     1       0.289   9.567  21.596  0.00  0.00    +0.000 A 
ATOM      7  C   UNL     1       0.010   9.600  22.976  0.00  0.00    +0.000 A 
ATOM      8  C   UNL     1      -0.837  10.590  23.483  0.00  0.00    +0.000 A 
ATOM      9  C   UNL     1      -1.411  11.527  22.632  0.00  0.00    +0.000 A 
ATOM     10  C   UNL     1      -1.146  11.516  21.256  0.00  0.00    +0.000 A 
ATOM     11  C   UNL     1      -0.277  10.530  20.758  0.00  0.00    +0.000 A 
ATOM     12  S   UNL     1       0.288  10.261  19.146  0.00  0.00    +0.000 S 
ATOM     13  H   UNL     1       1.914   8.616  17.815  0.00  0.00    +0.000 HD
ENDROOT
BRANCH   2  14
ATOM     14  C   UNL     1       3.256   6.412  17.979  0.00  0.00    +0.000 A 
ATOM     15  S   UNL     1       4.075   7.404  16.852  0.00  0.00    +0.000 S 
ATOM     16  C   UNL     1       4.924   6.079  16.159  0.00  0.00    +0.000 A 
ATOM     17  C   UNL     1       5.892   6.141  15.135  0.00  0.00    +0.000 A 
ATOM     18  C   UNL     1       6.488   4.944  14.709  0.00  0.00    +0.000 A 
ATOM     19  C   UNL     1       6.130   3.720  15.268  0.00  0.00    +0.000 A 
ATOM     20  C   UNL     1       5.161   3.679  16.275  0.00  0.00    +0.000 A 
ATOM     21  C   UNL     1       4.547   4.869  16.745  0.00  0.00    +0.000 A 
ATOM     22  C   UNL     1       3.566   5.079  17.778  0.00  0.00    +0.000 A 
ATOM     23 CL   UNL     1       2.921   3.745  18.656  0.00  0.00    +0.000 Cl
BRANCH  18  24
ATOM     24  N   UNL     1       7.517   4.986  13.661  0.00  0.00    +0.000 N 
ATOM     25  O   UNL     1       7.365   4.247  12.679  0.00  0.00    +0.000 OA
ATOM     26  O   UNL     1       8.472   5.757  13.821  0.00  0.00    +0.000 OA
ENDBRANCH  18  24
ENDBRANCH   2  14
TORSDOF 2
ENDMDL
MODEL 5
REMARK VINA RESULT:      -7.7      2.810      9.513
REMARK  Name = 
REMARK  2 active torsions:
REMARK  status: ('A' for Active; 'I' for Inactive)
REMARK    1  A    between atoms: C_2  and  C_13
REMARK    2  A    between atoms: C_17  and  N_18
REMARK                            x       y       z     vdW  Elec       q    Type
REMARK                         _______ _______ _______ _____ _____    ______ ____
ROOT
ATOM      1  O   UNL     1       2.252   9.105  17.401  0.00  0.00    +0.000 OA
ATOM      2  C   UNL     1       2.077   8.633  18.520  0.00  0.00    +0.000 C 
ATOM      3  N   UNL     1       2.504   7.371  18.885  0.00  0.00    +0.000 N 
ATOM      4  C   UNL     1       3.322   6.648  18.060  0.00  0.00    +0.000 A 
ATOM      5  N   UNL     1       3.955   7.066  17.000  0.00  0.00    +0.000 NA
ATOM      6  C   UNL     1       4.668   6.030  16.442  0.00  0.00    +0.000 A 
ATOM      7  C   UNL     1       5.472   6.124  15.290  0.00  0.00    +0.000 A 
ATOM      8  C   UNL     1       6.136   4.987  14.821  0.00  0.00    +0.000 A 
ATOM      9  C   UNL     1       5.995   3.769  15.477  0.00  0.00    +0.000 A 
ATOM     10  C   UNL     1       5.203   3.653  16.626  0.00  0.00    +0.000 A 
ATOM     11  C   UNL     1       4.555   4.805  17.103  0.00  0.00    +0.000 A 
ATOM     12  S   UNL     1       3.552   5.018  18.496  0.00  0.00    +0.000 S 
ATOM     13  H   UNL     1       2.216   6.954  19.756  0.00  0.00    +0.000 HD
ENDROOT
BRANCH   2  14
ATOM     14  C   UNL     1       1.363   9.386  19.549  0.00  0.00    +0.000 A 
ATOM     15  S   UNL     1       0.970  11.038  19.348  0.00  0.00    +0.000 S 
ATOM     16  C   UNL     1       0.072  11.102  20.813  0.00  0.00    +0.000 A 
ATOM     17  C   UNL     1      -0.640  12.209  21.318  0.00  0.00    +0.000 A 
ATOM     18  C   UNL     1      -1.328  12.061  22.532  0.00  0.00    +0.000 A 
ATOM     19  C   UNL     1      -1.301  10.859  23.236  0.00  0.00    +0.000 A 
ATOM     20  C   UNL     1      -0.580   9.777  22.724  0.00  0.00    +0.000 A 
ATOM     21  C   UNL     1       0.114   9.881  21.490  0.00  0.00    +0.000 A 
ATOM     22  C   UNL     1       0.883   8.910  20.756  0.00  0.00    +0.000 A 
ATOM     23 CL   UNL     1       1.103   7.317  21.376  0.00  0.00    +0.000 Cl
BRANCH  18  24
ATOM     24  N   UNL     1      -2.097  13.193  23.066  0.00  0.00    +0.000 N 
ATOM     25  O   UNL     1      -3.303  13.249  22.787  0.00  0.00    +0.000 OA
ATOM     26  O   UNL     1      -1.497  14.021  23.763  0.00  0.00    +0.000 OA
ENDBRANCH  18  24
ENDBRANCH   2  14
TORSDOF 2
ENDMDL
MODEL 6
REMARK VINA RESULT:      -7.4      3.280      9.745
REMARK  Name = 
REMARK  2 active torsions:
REMARK  status: ('A' for Active; 'I' for Inactive)
REMARK    1  A    between atoms: C_2  and  C_13
REMARK    2  A    between atoms: C_17  and  N_18
REMARK                            x       y       z     vdW  Elec       q    Type
REMARK                         _______ _______ _______ _____ _____    ______ ____
ROOT
ATOM      1  O   UNL     1       2.023   9.773  17.418  0.00  0.00    +0.000 OA
ATOM      2  C   UNL     1       1.706   9.453  18.559  0.00  0.00    +0.000 C 
ATOM      3  N   UNL     1       1.975   8.211  19.101  0.00  0.00    +0.000 N 
ATOM      4  C   UNL     1       2.789   7.328  18.445  0.00  0.00    +0.000 A 
ATOM      5  N   UNL     1       3.551   7.562  17.414  0.00  0.00    +0.000 NA
ATOM      6  C   UNL     1       4.207   6.410  17.045  0.00  0.00    +0.000 A 
ATOM      7  C   UNL     1       5.114   6.298  15.974  0.00  0.00    +0.000 A 
ATOM      8  C   UNL     1       5.705   5.061  15.701  0.00  0.00    +0.000 A 
ATOM      9  C   UNL     1       5.390   3.946  16.470  0.00  0.00    +0.000 A 
ATOM     10  C   UNL     1       4.492   4.035  17.541  0.00  0.00    +0.000 A 
ATOM     11  C   UNL     1       3.919   5.286  17.823  0.00  0.00    +0.000 A 
ATOM     12  S   UNL     1       2.823   5.748  19.078  0.00  0.00    +0.000 S 
ATOM     13  H   UNL     1       1.573   7.927  19.980  0.00  0.00    +0.000 HD
ENDROOT
BRANCH   2  14
ATOM     14  C   UNL     1       0.980  10.381  19.424  0.00  0.00    +0.000 A 
ATOM     15  S   UNL     1      -0.311   9.864  20.419  0.00  0.00    +0.000 S 
ATOM     16  C   UNL     1      -0.481  11.405  21.164  0.00  0.00    +0.000 A 
ATOM     17  C   UNL     1      -1.375  11.747  22.198  0.00  0.00    +0.000 A 
ATOM     18  C   UNL     1      -1.355  13.062  22.689  0.00  0.00    +0.000 A 
ATOM     19  C   UNL     1      -0.486  14.015  22.163  0.00  0.00    +0.000 A 
ATOM     20  C   UNL     1       0.386  13.659  21.131  0.00  0.00    +0.000 A 
ATOM     21  C   UNL     1       0.408  12.334  20.619  0.00  0.00    +0.000 A 
ATOM     22  C   UNL     1       1.227  11.731  19.601  0.00  0.00    +0.000 A 
ATOM     23 CL   UNL     1       2.404  12.665  18.757  0.00  0.00    +0.000 Cl
BRANCH  18  24
ATOM     24  N   UNL     1      -2.261  13.436  23.783  0.00  0.00    +0.000 N 
ATOM     25  O   UNL     1      -3.232  12.699  24.001  0.00  0.00    +0.000 OA
ATOM     26  O   UNL     1      -1.999  14.462  24.423  0.00  0.00    +0.000 OA
ENDBRANCH  18  24
ENDBRANCH   2  14
TORSDOF 2
ENDMDL
MODEL 7
REMARK VINA RESULT:      -7.4      2.746      3.192
REMARK  Name = 
REMARK  2 active torsions:
REMARK  status: ('A' for Active; 'I' for Inactive)
REMARK    1  A    between atoms: C_2  and  C_13
REMARK    2  A    between atoms: C_17  and  N_18
REMARK                            x       y       z     vdW  Elec       q    Type
REMARK                         _______ _______ _______ _____ _____    ______ ____
ROOT
ATOM      1  O   UNL     1       1.054   9.924  19.056  0.00  0.00    +0.000 OA
ATOM      2  C   UNL     1       1.099   9.053  19.920  0.00  0.00    +0.000 C 
ATOM      3  N   UNL     1       0.496   9.181  21.157  0.00  0.00    +0.000 N 
ATOM      4  C   UNL     1      -0.353  10.223  21.413  0.00  0.00    +0.000 A 
ATOM      5  N   UNL     1      -0.862  11.064  20.556  0.00  0.00    +0.000 NA
ATOM      6  C   UNL     1      -1.663  11.971  21.211  0.00  0.00    +0.000 A 
ATOM      7  C   UNL     1      -2.376  13.019  20.597  0.00  0.00    +0.000 A 
ATOM      8  C   UNL     1      -3.146  13.880  21.384  0.00  0.00    +0.000 A 
ATOM      9  C   UNL     1      -3.199  13.713  22.763  0.00  0.00    +0.000 A 
ATOM     10  C   UNL     1      -2.500  12.677  23.395  0.00  0.00    +0.000 A 
ATOM     11  C   UNL     1      -1.745  11.803  22.595  0.00  0.00    +0.000 A 
ATOM     12  S   UNL     1      -0.812  10.417  23.040  0.00  0.00    +0.000 S 
ATOM     13  H   UNL     1       0.675   8.520  21.895  0.00  0.00    +0.000 HD
ENDROOT
BRANCH   2  14
ATOM     14  C   UNL     1       1.836   7.811  19.696  0.00  0.00    +0.000 A 
ATOM     15  S   UNL     1       1.804   6.528  20.826  0.00  0.00    +0.000 S 
ATOM     16  C   UNL     1       2.712   5.482  19.807  0.00  0.00    +0.000 A 
ATOM     17  C   UNL     1       3.057   4.140  20.070  0.00  0.00    +0.000 A 
ATOM     18  C   UNL     1       3.796   3.441  19.103  0.00  0.00    +0.000 A 
ATOM     19  C   UNL     1       4.196   4.053  17.917  0.00  0.00    +0.000 A 
ATOM     20  C   UNL     1       3.853   5.387  17.681  0.00  0.00    +0.000 A 
ATOM     21  C   UNL     1       3.091   6.124  18.626  0.00  0.00    +0.000 A 
ATOM     22  C   UNL     1       2.596   7.475  18.590  0.00  0.00    +0.000 A 
ATOM     23 CL   UNL     1       2.932   8.495  17.243  0.00  0.00    +0.000 Cl
BRANCH  18  24
ATOM     24  N   UNL     1       4.146   2.034  19.343  0.00  0.00    +0.000 N 
ATOM     25  O   UNL     1       4.902   1.786  20.292  0.00  0.00    +0.000 OA
ATOM     26  O   UNL     1       3.665   1.183  18.584  0.00  0.00    +0.000 OA
ENDBRANCH  18  24
ENDBRANCH   2  14
TORSDOF 2
ENDMDL
MODEL 8
REMARK VINA RESULT:      -7.4      3.634      4.171
REMARK  Name = 
REMARK  2 active torsions:
REMARK  status: ('A' for Active; 'I' for Inactive)
REMARK    1  A    between atoms: C_2  and  C_13
REMARK    2  A    between atoms: C_17  and  N_18
REMARK                            x       y       z     vdW  Elec       q    Type
REMARK                         _______ _______ _______ _____ _____    ______ ____
ROOT
ATOM      1  O   UNL     1      -0.211  10.914  18.708  0.00  0.00    +0.000 OA
ATOM      2  C   UNL     1       0.984  10.648  18.786  0.00  0.00    +0.000 C 
ATOM      3  N   UNL     1       1.980  11.602  18.706  0.00  0.00    +0.000 N 
ATOM      4  C   UNL     1       1.670  12.935  18.726  0.00  0.00    +0.000 A 
ATOM      5  N   UNL     1       0.523  13.481  19.017  0.00  0.00    +0.000 NA
ATOM      6  C   UNL     1       0.617  14.849  18.914  0.00  0.00    +0.000 A 
ATOM      7  C   UNL     1      -0.430  15.758  19.162  0.00  0.00    +0.000 A 
ATOM      8  C   UNL     1      -0.202  17.129  19.010  0.00  0.00    +0.000 A 
ATOM      9  C   UNL     1       1.044  17.593  18.603  0.00  0.00    +0.000 A 
ATOM     10  C   UNL     1       2.101  16.708  18.353  0.00  0.00    +0.000 A 
ATOM     11  C   UNL     1       1.869  15.333  18.530  0.00  0.00    +0.000 A 
ATOM     12  S   UNL     1       2.948  13.994  18.351  0.00  0.00    +0.000 S 
ATOM     13  H   UNL     1       2.949  11.339  18.622  0.00  0.00    +0.000 HD
ENDROOT
BRANCH   2  14
ATOM     14  C   UNL     1       1.436   9.267  18.942  0.00  0.00    +0.000 A 
ATOM     15  S   UNL     1       2.463   8.519  17.797  0.00  0.00    +0.000 S 
ATOM     16  C   UNL     1       2.631   7.090  18.738  0.00  0.00    +0.000 A 
ATOM     17  C   UNL     1       3.430   5.969  18.433  0.00  0.00    +0.000 A 
ATOM     18  C   UNL     1       3.447   4.897  19.339  0.00  0.00    +0.000 A 
ATOM     19  C   UNL     1       2.687   4.925  20.505  0.00  0.00    +0.000 A 
ATOM     20  C   UNL     1       1.893   6.041  20.784  0.00  0.00    +0.000 A 
ATOM     21  C   UNL     1       1.862   7.153  19.902  0.00  0.00    +0.000 A 
ATOM     22  C   UNL     1       1.162   8.408  19.991  0.00  0.00    +0.000 A 
ATOM     23 CL   UNL     1       0.129   8.740  21.330  0.00  0.00    +0.000 Cl
BRANCH  18  24
ATOM     24  N   UNL     1       4.291   3.728  19.055  0.00  0.00    +0.000 N 
ATOM     25  O   UNL     1       3.739   2.722  18.588  0.00  0.00    +0.000 OA
ATOM     26  O   UNL     1       5.501   3.819  19.296  0.00  0.00    +0.000 OA
ENDBRANCH  18  24
ENDBRANCH   2  14
TORSDOF 2
ENDMDL
MODEL 9
REMARK VINA RESULT:      -7.4      1.377      1.672
REMARK  Name = 
REMARK  2 active torsions:
REMARK  status: ('A' for Active; 'I' for Inactive)
REMARK    1  A    between atoms: C_2  and  C_13
REMARK    2  A    between atoms: C_17  and  N_18
REMARK                            x       y       z     vdW  Elec       q    Type
REMARK                         _______ _______ _______ _____ _____    ______ ____
ROOT
ATOM      1  O   UNL     1       1.110  10.170  18.505  0.00  0.00    +0.000 OA
ATOM      2  C   UNL     1       1.366   9.229  19.251  0.00  0.00    +0.000 C 
ATOM      3  N   UNL     1       0.907   9.146  20.551  0.00  0.00    +0.000 N 
ATOM      4  C   UNL     1      -0.027  10.032  21.017  0.00  0.00    +0.000 A 
ATOM      5  N   UNL     1      -0.736  10.879  20.325  0.00  0.00    +0.000 NA
ATOM      6  C   UNL     1      -1.556  11.598  21.164  0.00  0.00    +0.000 A 
ATOM      7  C   UNL     1      -2.461  12.596  20.757  0.00  0.00    +0.000 A 
ATOM      8  C   UNL     1      -3.231  13.259  21.718  0.00  0.00    +0.000 A 
ATOM      9  C   UNL     1      -3.095  12.946  23.066  0.00  0.00    +0.000 A 
ATOM     10  C   UNL     1      -2.202  11.955  23.493  0.00  0.00    +0.000 A 
ATOM     11  C   UNL     1      -1.448  11.279  22.519  0.00  0.00    +0.000 A 
ATOM     12  S   UNL     1      -0.304   9.994  22.696  0.00  0.00    +0.000 S 
ATOM     13  H   UNL     1       1.254   8.444  21.183  0.00  0.00    +0.000 HD
ENDROOT
BRANCH   2  14
ATOM     14  C   UNL     1       2.217   8.128  18.805  0.00  0.00    +0.000 A 
ATOM     15  S   UNL     1       3.208   8.259  17.417  0.00  0.00    +0.000 S 
ATOM     16  C   UNL     1       3.938   6.724  17.675  0.00  0.00    +0.000 A 
ATOM     17  C   UNL     1       4.963   6.138  16.905  0.00  0.00    +0.000 A 
ATOM     18  C   UNL     1       5.442   4.875  17.284  0.00  0.00    +0.000 A 
ATOM     19  C   UNL     1       4.914   4.203  18.384  0.00  0.00    +0.000 A 
ATOM     20  C   UNL     1       3.891   4.796  19.129  0.00  0.00    +0.000 A 
ATOM     21  C   UNL     1       3.391   6.081  18.787  0.00  0.00    +0.000 A 
ATOM     22  C   UNL     1       2.384   6.897  19.413  0.00  0.00    +0.000 A 
ATOM     23 CL   UNL     1       1.540   6.332  20.806  0.00  0.00    +0.000 Cl
BRANCH  18  24
ATOM     24  N   UNL     1       6.527   4.254  16.512  0.00  0.00    +0.000 N 
ATOM     25  O   UNL     1       6.211   3.561  15.535  0.00  0.00    +0.000 OA
ATOM     26  O   UNL     1       7.689   4.463  16.881  0.00  0.00    +0.000 OA
ENDBRANCH  18  24
ENDBRANCH   2  14
TORSDOF 2
ENDMDL
