MODEL 1
REMARK VINA RESULT:      -7.0      0.000      0.000
REMARK  Name = 
REMARK  3 active torsions:
REMARK  status: ('A' for Active; 'I' for Inactive)
REMARK    1  A    between atoms: N_4  and  C_5
REMARK    2  A    between atoms: C_5  and  C_6
REMARK    3  A    between atoms: C_6  and  C_7
REMARK                            x       y       z     vdW  Elec       q    Type
REMARK                         _______ _______ _______ _____ _____    ______ ____
ROOT
ATOM      1  O   UNL     1       0.313  12.214  22.238  0.00  0.00    +0.000 OA
ATOM      2  C   UNL     1       0.111  12.015  21.045  0.00  0.00    +0.000 C 
ATOM      3  C   UNL     1       1.090  12.533  19.957  0.00  0.00    +0.000 C 
ATOM      4  N   UNL     1       0.801  11.761  18.761  0.00  0.00    +0.000 N 
ATOM      5  C   UNL     1      -0.522  12.245  18.440  0.00  0.00    +0.000 C 
ATOM      6  O   UNL     1      -0.723  13.247  17.752  0.00  0.00    +0.000 OA
ATOM      7  C   UNL     1      -1.647  11.517  19.265  0.00  0.00    +0.000 C 
ATOM      8  C   UNL     1      -1.919  10.309  18.316  0.00  0.00    +0.000 C 
ATOM      9  S   UNL     1      -3.242  10.897  17.174  0.00  0.00    +0.000 S 
ATOM     10  C   UNL     1      -3.891  11.907  18.417  0.00  0.00    +0.000 C 
ATOM     11  C   UNL     1      -3.056  12.086  19.452  0.00  0.00    +0.000 C 
ATOM     12  C   UNL     1      -3.702  12.344  20.770  0.00  0.00    +0.000 C 
ATOM     13  O   UNL     1      -3.085  12.196  21.819  0.00  0.00    +0.000 OA
ATOM     14  C   UNL     1      -5.155  12.631  20.833  0.00  0.00    +0.000 A 
ATOM     15  C   UNL     1      -5.772  12.864  22.074  0.00  0.00    +0.000 A 
ATOM     16  C   UNL     1      -7.139  13.146  22.143  0.00  0.00    +0.000 A 
ATOM     17  C   UNL     1      -7.901  13.195  20.977  0.00  0.00    +0.000 A 
ATOM     18  C   UNL     1      -7.303  12.925  19.746  0.00  0.00    +0.000 A 
ATOM     19  C   UNL     1      -5.933  12.630  19.678  0.00  0.00    +0.000 A 
ATOM     20  C   UNL     1      -5.336  12.238  18.392  0.00  0.00    +0.000 C 
ATOM     21  O   UNL     1      -6.026  12.169  17.383  0.00  0.00    +0.000 OA
ATOM     22  N   UNL     1      -1.016  11.288  20.600  0.00  0.00    +0.000 N 
ATOM     23  H   UNL     1      -1.633  11.117  21.391  0.00  0.00    +0.000 HD
ENDROOT
BRANCH   4  24
ATOM     24  C   UNL     1       1.101  10.304  19.019  0.00  0.00    +0.000 C 
BRANCH  24  25
ATOM     25  C   UNL     1       1.833   9.482  17.959  0.00  0.00    +0.000 C 
BRANCH  25  26
ATOM     26  C   UNL     1       2.163   8.141  18.573  0.00  0.00    +0.000 A 
ATOM     27  N   UNL     1       1.833   7.745  19.791  0.00  0.00    +0.000 NA
ATOM     28  C   UNL     1       2.442   6.531  19.974  0.00  0.00    +0.000 A 
ATOM     29  C   UNL     1       3.121   6.158  18.838  0.00  0.00    +0.000 A 
ATOM     30  N   UNL     1       2.925   7.184  17.953  0.00  0.00    +0.000 N 
ATOM     31  H   UNL     1       3.311   7.234  17.021  0.00  0.00    +0.000 HD
ENDBRANCH  25  26
ENDBRANCH  24  25
ENDBRANCH   4  24
TORSDOF 3
ENDMDL
MODEL 2
REMARK VINA RESULT:      -6.9      1.092      1.507
REMARK  Name = 
REMARK  3 active torsions:
REMARK  status: ('A' for Active; 'I' for Inactive)
REMARK    1  A    between atoms: N_4  and  C_5
REMARK    2  A    between atoms: C_5  and  C_6
REMARK    3  A    between atoms: C_6  and  C_7
REMARK                            x       y       z     vdW  Elec       q    Type
REMARK                         _______ _______ _______ _____ _____    ______ ____
ROOT
ATOM      1  O   UNL     1       1.309  11.022  21.795  0.00  0.00    +0.000 OA
ATOM      2  C   UNL     1       0.770  11.141  20.701  0.00  0.00    +0.000 C 
ATOM      3  C   UNL     1       1.533  11.718  19.477  0.00  0.00    +0.000 C 
ATOM      4  N   UNL     1       0.778  11.304  18.307  0.00  0.00    +0.000 N 
ATOM      5  C   UNL     1      -0.434  12.072  18.481  0.00  0.00    +0.000 C 
ATOM      6  O   UNL     1      -0.565  13.224  18.067  0.00  0.00    +0.000 OA
ATOM      7  C   UNL     1      -1.449  11.380  19.465  0.00  0.00    +0.000 C 
ATOM      8  C   UNL     1      -2.226  10.490  18.446  0.00  0.00    +0.000 C 
ATOM      9  S   UNL     1      -3.623  11.546  17.867  0.00  0.00    +0.000 S 
ATOM     10  C   UNL     1      -3.681  12.340  19.402  0.00  0.00    +0.000 C 
ATOM     11  C   UNL     1      -2.593  12.127  20.156  0.00  0.00    +0.000 C 
ATOM     12  C   UNL     1      -2.804  12.183  21.631  0.00  0.00    +0.000 C 
ATOM     13  O   UNL     1      -1.992  11.692  22.407  0.00  0.00    +0.000 OA
ATOM     14  C   UNL     1      -4.086  12.696  22.171  0.00  0.00    +0.000 A 
ATOM     15  C   UNL     1      -4.295  12.740  23.560  0.00  0.00    +0.000 A 
ATOM     16  C   UNL     1      -5.496  13.232  24.079  0.00  0.00    +0.000 A 
ATOM     17  C   UNL     1      -6.497  13.680  23.218  0.00  0.00    +0.000 A 
ATOM     18  C   UNL     1      -6.311  13.601  21.838  0.00  0.00    +0.000 A 
ATOM     19  C   UNL     1      -5.110  13.096  21.317  0.00  0.00    +0.000 A 
ATOM     20  C   UNL     1      -4.967  12.914  19.864  0.00  0.00    +0.000 C 
ATOM     21  O   UNL     1      -5.888  13.200  19.110  0.00  0.00    +0.000 OA
ATOM     22  N   UNL     1      -0.570  10.743  20.491  0.00  0.00    +0.000 N 
ATOM     23  H   UNL     1      -0.987  10.505  21.389  0.00  0.00    +0.000 HD
ENDROOT
BRANCH   4  24
ATOM     24  C   UNL     1       0.788   9.798  18.209  0.00  0.00    +0.000 C 
BRANCH  24  25
ATOM     25  C   UNL     1       2.064   9.075  17.780  0.00  0.00    +0.000 C 
BRANCH  25  26
ATOM     26  C   UNL     1       2.204   7.846  18.650  0.00  0.00    +0.000 A 
ATOM     27  N   UNL     1       2.600   6.651  18.245  0.00  0.00    +0.000 NA
ATOM     28  C   UNL     1       2.452   5.817  19.322  0.00  0.00    +0.000 A 
ATOM     29  C   UNL     1       1.998   6.518  20.414  0.00  0.00    +0.000 A 
ATOM     30  N   UNL     1       1.857   7.807  19.976  0.00  0.00    +0.000 N 
ATOM     31  H   UNL     1       1.519   8.580  20.532  0.00  0.00    +0.000 HD
ENDBRANCH  25  26
ENDBRANCH  24  25
ENDBRANCH   4  24
TORSDOF 3
ENDMDL
MODEL 3
REMARK VINA RESULT:      -6.9      3.334      7.584
REMARK  Name = 
REMARK  3 active torsions:
REMARK  status: ('A' for Active; 'I' for Inactive)
REMARK    1  A    between atoms: N_4  and  C_5
REMARK    2  A    between atoms: C_5  and  C_6
REMARK    3  A    between atoms: C_6  and  C_7
REMARK                            x       y       z     vdW  Elec       q    Type
REMARK                         _______ _______ _______ _____ _____    ______ ____
ROOT
ATOM      1  O   UNL     1      -1.632  10.894  23.424  0.00  0.00    +0.000 OA
ATOM      2  C   UNL     1      -1.277  11.456  22.394  0.00  0.00    +0.000 C 
ATOM      3  C   UNL     1      -2.231  12.405  21.616  0.00  0.00    +0.000 C 
ATOM      4  N   UNL     1      -1.378  13.208  20.757  0.00  0.00    +0.000 N 
ATOM      5  C   UNL     1      -0.898  12.204  19.837  0.00  0.00    +0.000 C 
ATOM      6  O   UNL     1      -1.504  11.886  18.813  0.00  0.00    +0.000 OA
ATOM      7  C   UNL     1       0.325  11.396  20.410  0.00  0.00    +0.000 C 
ATOM      8  C   UNL     1       1.488  12.316  19.926  0.00  0.00    +0.000 C 
ATOM      9  S   UNL     1       1.938  11.668  18.259  0.00  0.00    +0.000 S 
ATOM     10  C   UNL     1       1.491  10.069  18.740  0.00  0.00    +0.000 C 
ATOM     11  C   UNL     1       0.763  10.034  19.867  0.00  0.00    +0.000 C 
ATOM     12  C   UNL     1       0.891   8.793  20.683  0.00  0.00    +0.000 C 
ATOM     13  O   UNL     1       0.553   8.771  21.861  0.00  0.00    +0.000 OA
ATOM     14  C   UNL     1       1.583   7.609  20.118  0.00  0.00    +0.000 A 
ATOM     15  C   UNL     1       1.717   6.441  20.887  0.00  0.00    +0.000 A 
ATOM     16  C   UNL     1       2.357   5.317  20.360  0.00  0.00    +0.000 A 
ATOM     17  C   UNL     1       2.872   5.349  19.064  0.00  0.00    +0.000 A 
ATOM     18  C   UNL     1       2.777   6.519  18.311  0.00  0.00    +0.000 A 
ATOM     19  C   UNL     1       2.145   7.652  18.845  0.00  0.00    +0.000 A 
ATOM     20  C   UNL     1       2.148   8.913  18.087  0.00  0.00    +0.000 C 
ATOM     21  O   UNL     1       2.699   8.978  16.995  0.00  0.00    +0.000 OA
ATOM     22  N   UNL     1       0.023  11.283  21.868  0.00  0.00    +0.000 N 
ATOM     23  H   UNL     1       0.496  10.551  22.394  0.00  0.00    +0.000 HD
ENDROOT
BRANCH   4  24
ATOM     24  C   UNL     1      -0.457  14.049  21.608  0.00  0.00    +0.000 C 
BRANCH  24  25
ATOM     25  C   UNL     1      -0.595  15.571  21.598  0.00  0.00    +0.000 C 
BRANCH  25  26
ATOM     26  C   UNL     1      -0.259  16.048  20.203  0.00  0.00    +0.000 A 
ATOM     27  N   UNL     1       0.959  16.219  19.716  0.00  0.00    +0.000 NA
ATOM     28  C   UNL     1       0.797  16.782  18.477  0.00  0.00    +0.000 A 
ATOM     29  C   UNL     1      -0.540  16.921  18.184  0.00  0.00    +0.000 A 
ATOM     30  N   UNL     1      -1.197  16.439  19.283  0.00  0.00    +0.000 N 
ATOM     31  H   UNL     1      -2.201  16.416  19.401  0.00  0.00    +0.000 HD
ENDBRANCH  25  26
ENDBRANCH  24  25
ENDBRANCH   4  24
TORSDOF 3
ENDMDL
MODEL 4
REMARK VINA RESULT:      -6.8      2.879      5.008
REMARK  Name = 
REMARK  3 active torsions:
REMARK  status: ('A' for Active; 'I' for Inactive)
REMARK    1  A    between atoms: N_4  and  C_5
REMARK    2  A    between atoms: C_5  and  C_6
REMARK    3  A    between atoms: C_6  and  C_7
REMARK                            x       y       z     vdW  Elec       q    Type
REMARK                         _______ _______ _______ _____ _____    ______ ____
ROOT
ATOM      1  O   UNL     1      -2.298  11.521  17.127  0.00  0.00    +0.000 OA
ATOM      2  C   UNL     1      -1.628  11.748  18.128  0.00  0.00    +0.000 C 
ATOM      3  C   UNL     1      -0.345  10.933  18.449  0.00  0.00    +0.000 C 
ATOM      4  N   UNL     1       0.404  11.732  19.404  0.00  0.00    +0.000 N 
ATOM      5  C   UNL     1      -0.468  11.665  20.555  0.00  0.00    +0.000 C 
ATOM      6  O   UNL     1      -0.416  10.758  21.385  0.00  0.00    +0.000 OA
ATOM      7  C   UNL     1      -1.636  12.718  20.488  0.00  0.00    +0.000 C 
ATOM      8  C   UNL     1      -0.926  13.931  21.165  0.00  0.00    +0.000 C 
ATOM      9  S   UNL     1      -1.295  13.749  22.962  0.00  0.00    +0.000 S 
ATOM     10  C   UNL     1      -2.813  13.009  22.594  0.00  0.00    +0.000 C 
ATOM     11  C   UNL     1      -2.917  12.607  21.318  0.00  0.00    +0.000 C 
ATOM     12  C   UNL     1      -4.297  12.585  20.755  0.00  0.00    +0.000 C 
ATOM     13  O   UNL     1      -4.488  12.561  19.544  0.00  0.00    +0.000 OA
ATOM     14  C   UNL     1      -5.462  12.754  21.656  0.00  0.00    +0.000 A 
ATOM     15  C   UNL     1      -6.764  12.746  21.130  0.00  0.00    +0.000 A 
ATOM     16  C   UNL     1      -7.869  12.893  21.973  0.00  0.00    +0.000 A 
ATOM     17  C   UNL     1      -7.684  13.054  23.345  0.00  0.00    +0.000 A 
ATOM     18  C   UNL     1      -6.392  13.103  23.869  0.00  0.00    +0.000 A 
ATOM     19  C   UNL     1      -5.283  12.967  23.021  0.00  0.00    +0.000 A 
ATOM     20  C   UNL     1      -3.926  13.132  23.565  0.00  0.00    +0.000 C 
ATOM     21  O   UNL     1      -3.761  13.386  24.751  0.00  0.00    +0.000 OA
ATOM     22  N   UNL     1      -1.980  12.773  19.035  0.00  0.00    +0.000 N 
ATOM     23  H   UNL     1      -2.895  13.139  18.780  0.00  0.00    +0.000 HD
ENDROOT
BRANCH   4  24
ATOM     24  C   UNL     1       0.813  13.033  18.759  0.00  0.00    +0.000 C 
BRANCH  24  25
ATOM     25  C   UNL     1       2.214  13.177  18.164  0.00  0.00    +0.000 C 
BRANCH  25  26
ATOM     26  C   UNL     1       2.614  14.630  18.291  0.00  0.00    +0.000 A 
ATOM     27  N   UNL     1       3.585  15.227  17.621  0.00  0.00    +0.000 NA
ATOM     28  C   UNL     1       3.684  16.491  18.141  0.00  0.00    +0.000 A 
ATOM     29  C   UNL     1       2.733  16.685  19.116  0.00  0.00    +0.000 A 
ATOM     30  N   UNL     1       2.054  15.499  19.191  0.00  0.00    +0.000 N 
ATOM     31  H   UNL     1       1.297  15.298  19.831  0.00  0.00    +0.000 HD
ENDBRANCH  25  26
ENDBRANCH  24  25
ENDBRANCH   4  24
TORSDOF 3
ENDMDL
MODEL 5
REMARK VINA RESULT:      -6.7      3.381      7.420
REMARK  Name = 
REMARK  3 active torsions:
REMARK  status: ('A' for Active; 'I' for Inactive)
REMARK    1  A    between atoms: N_4  and  C_5
REMARK    2  A    between atoms: C_5  and  C_6
REMARK    3  A    between atoms: C_6  and  C_7
REMARK                            x       y       z     vdW  Elec       q    Type
REMARK                         _______ _______ _______ _____ _____    ______ ____
ROOT
ATOM      1  O   UNL     1      -1.453  10.718  23.476  0.00  0.00    +0.000 OA
ATOM      2  C   UNL     1      -1.133  11.280  22.434  0.00  0.00    +0.000 C 
ATOM      3  C   UNL     1      -2.117  12.217  21.681  0.00  0.00    +0.000 C 
ATOM      4  N   UNL     1      -1.297  13.026  20.796  0.00  0.00    +0.000 N 
ATOM      5  C   UNL     1      -0.834  12.022  19.865  0.00  0.00    +0.000 C 
ATOM      6  O   UNL     1      -1.466  11.695  18.860  0.00  0.00    +0.000 OA
ATOM      7  C   UNL     1       0.413  11.228  20.406  0.00  0.00    +0.000 C 
ATOM      8  C   UNL     1       1.553  12.158  19.886  0.00  0.00    +0.000 C 
ATOM      9  S   UNL     1       1.962  11.508  18.209  0.00  0.00    +0.000 S 
ATOM     10  C   UNL     1       1.544   9.907  18.708  0.00  0.00    +0.000 C 
ATOM     11  C   UNL     1       0.848   9.868  19.854  0.00  0.00    +0.000 C 
ATOM     12  C   UNL     1       1.012   8.632  20.671  0.00  0.00    +0.000 C 
ATOM     13  O   UNL     1       0.707   8.610  21.858  0.00  0.00    +0.000 OA
ATOM     14  C   UNL     1       1.698   7.453  20.090  0.00  0.00    +0.000 A 
ATOM     15  C   UNL     1       1.865   6.289  20.859  0.00  0.00    +0.000 A 
ATOM     16  C   UNL     1       2.501   5.168  20.317  0.00  0.00    +0.000 A 
ATOM     17  C   UNL     1       2.978   5.201  19.008  0.00  0.00    +0.000 A 
ATOM     18  C   UNL     1       2.851   6.368  18.254  0.00  0.00    +0.000 A 
ATOM     19  C   UNL     1       2.224   7.496  18.802  0.00  0.00    +0.000 A 
ATOM     20  C   UNL     1       2.193   8.755  18.040  0.00  0.00    +0.000 C 
ATOM     21  O   UNL     1       2.712   8.821  16.933  0.00  0.00    +0.000 OA
ATOM     22  N   UNL     1       0.153  11.118  21.873  0.00  0.00    +0.000 N 
ATOM     23  H   UNL     1       0.648  10.392  22.387  0.00  0.00    +0.000 HD
ENDROOT
BRANCH   4  24
ATOM     24  C   UNL     1      -0.361  13.877  21.617  0.00  0.00    +0.000 C 
BRANCH  24  25
ATOM     25  C   UNL     1      -0.281  15.382  21.358  0.00  0.00    +0.000 C 
BRANCH  25  26
ATOM     26  C   UNL     1       0.866  15.617  20.401  0.00  0.00    +0.000 A 
ATOM     27  N   UNL     1       0.789  15.600  19.081  0.00  0.00    +0.000 NA
ATOM     28  C   UNL     1       2.075  15.727  18.624  0.00  0.00    +0.000 A 
ATOM     29  C   UNL     1       2.948  15.866  19.677  0.00  0.00    +0.000 A 
ATOM     30  N   UNL     1       2.165  15.807  20.799  0.00  0.00    +0.000 N 
ATOM     31  H   UNL     1       2.501  15.857  21.751  0.00  0.00    +0.000 HD
ENDBRANCH  25  26
ENDBRANCH  24  25
ENDBRANCH   4  24
TORSDOF 3
ENDMDL
MODEL 6
REMARK VINA RESULT:      -6.7      3.856      7.154
REMARK  Name = 
REMARK  3 active torsions:
REMARK  status: ('A' for Active; 'I' for Inactive)
REMARK    1  A    between atoms: N_4  and  C_5
REMARK    2  A    between atoms: C_5  and  C_6
REMARK    3  A    between atoms: C_6  and  C_7
REMARK                            x       y       z     vdW  Elec       q    Type
REMARK                         _______ _______ _______ _____ _____    ______ ____
ROOT
ATOM      1  O   UNL     1      -1.321  12.636  23.395  0.00  0.00    +0.000 OA
ATOM      2  C   UNL     1      -2.451  13.046  23.157  0.00  0.00    +0.000 C 
ATOM      3  C   UNL     1      -3.568  13.025  24.237  0.00  0.00    +0.000 C 
ATOM      4  N   UNL     1      -4.582  13.958  23.778  0.00  0.00    +0.000 N 
ATOM      5  C   UNL     1      -5.077  13.267  22.610  0.00  0.00    +0.000 C 
ATOM      6  O   UNL     1      -5.976  12.427  22.657  0.00  0.00    +0.000 OA
ATOM      7  C   UNL     1      -4.180  13.512  21.340  0.00  0.00    +0.000 C 
ATOM      8  C   UNL     1      -4.859  14.806  20.794  0.00  0.00    +0.000 C 
ATOM      9  S   UNL     1      -6.176  14.201  19.654  0.00  0.00    +0.000 S 
ATOM     10  C   UNL     1      -5.222  12.816  19.257  0.00  0.00    +0.000 C 
ATOM     11  C   UNL     1      -4.204  12.607  20.106  0.00  0.00    +0.000 C 
ATOM     12  C   UNL     1      -3.013  11.918  19.533  0.00  0.00    +0.000 C 
ATOM     13  O   UNL     1      -1.923  11.965  20.092  0.00  0.00    +0.000 OA
ATOM     14  C   UNL     1      -3.098  11.297  18.189  0.00  0.00    +0.000 A 
ATOM     15  C   UNL     1      -1.975  10.657  17.639  0.00  0.00    +0.000 A 
ATOM     16  C   UNL     1      -2.048  10.059  16.378  0.00  0.00    +0.000 A 
ATOM     17  C   UNL     1      -3.239  10.099  15.655  0.00  0.00    +0.000 A 
ATOM     18  C   UNL     1      -4.345  10.768  16.178  0.00  0.00    +0.000 A 
ATOM     19  C   UNL     1      -4.268  11.379  17.439  0.00  0.00    +0.000 A 
ATOM     20  C   UNL     1      -5.402  12.175  17.933  0.00  0.00    +0.000 C 
ATOM     21  O   UNL     1      -6.410  12.308  17.251  0.00  0.00    +0.000 OA
ATOM     22  N   UNL     1      -2.794  13.575  21.892  0.00  0.00    +0.000 N 
ATOM     23  H   UNL     1      -2.021  13.417  21.248  0.00  0.00    +0.000 HD
ENDROOT
BRANCH   4  24
ATOM     24  C   UNL     1      -3.998  15.348  23.723  0.00  0.00    +0.000 C 
BRANCH  24  25
ATOM     25  C   UNL     1      -3.994  16.220  24.979  0.00  0.00    +0.000 C 
BRANCH  25  26
ATOM     26  C   UNL     1      -2.558  16.354  25.434  0.00  0.00    +0.000 A 
ATOM     27  N   UNL     1      -1.854  15.426  26.060  0.00  0.00    +0.000 NA
ATOM     28  C   UNL     1      -0.663  16.015  26.395  0.00  0.00    +0.000 A 
ATOM     29  C   UNL     1      -0.619  17.309  25.932  0.00  0.00    +0.000 A 
ATOM     30  N   UNL     1      -1.824  17.506  25.313  0.00  0.00    +0.000 N 
ATOM     31  H   UNL     1      -2.124  18.368  24.879  0.00  0.00    +0.000 HD
ENDBRANCH  25  26
ENDBRANCH  24  25
ENDBRANCH   4  24
TORSDOF 3
ENDMDL
MODEL 7
REMARK VINA RESULT:      -6.7      3.342      7.831
REMARK  Name = 
REMARK  3 active torsions:
REMARK  status: ('A' for Active; 'I' for Inactive)
REMARK    1  A    between atoms: N_4  and  C_5
REMARK    2  A    between atoms: C_5  and  C_6
REMARK    3  A    between atoms: C_6  and  C_7
REMARK                            x       y       z     vdW  Elec       q    Type
REMARK                         _______ _______ _______ _____ _____    ______ ____
ROOT
ATOM      1  O   UNL     1      -1.835  11.105  23.485  0.00  0.00    +0.000 OA
ATOM      2  C   UNL     1      -1.444  11.698  22.485  0.00  0.00    +0.000 C 
ATOM      3  C   UNL     1      -2.359  12.692  21.719  0.00  0.00    +0.000 C 
ATOM      4  N   UNL     1      -1.470  13.510  20.912  0.00  0.00    +0.000 N 
ATOM      5  C   UNL     1      -0.985  12.530  19.968  0.00  0.00    +0.000 C 
ATOM      6  O   UNL     1      -1.570  12.261  18.918  0.00  0.00    +0.000 OA
ATOM      7  C   UNL     1       0.208  11.679  20.541  0.00  0.00    +0.000 C 
ATOM      8  C   UNL     1       1.400  12.593  20.121  0.00  0.00    +0.000 C 
ATOM      9  S   UNL     1       1.882  11.998  18.444  0.00  0.00    +0.000 S 
ATOM     10  C   UNL     1       1.393  10.391  18.854  0.00  0.00    +0.000 C 
ATOM     11  C   UNL     1       0.635  10.329  19.960  0.00  0.00    +0.000 C 
ATOM     12  C   UNL     1       0.719   9.058  20.733  0.00  0.00    +0.000 C 
ATOM     13  O   UNL     1       0.350   8.999  21.900  0.00  0.00    +0.000 OA
ATOM     14  C   UNL     1       1.404   7.882  20.143  0.00  0.00    +0.000 A 
ATOM     15  C   UNL     1       1.496   6.684  20.872  0.00  0.00    +0.000 A 
ATOM     16  C   UNL     1       2.129   5.567  20.320  0.00  0.00    +0.000 A 
ATOM     17  C   UNL     1       2.677   5.637  19.040  0.00  0.00    +0.000 A 
ATOM     18  C   UNL     1       2.624   6.835  18.328  0.00  0.00    +0.000 A 
ATOM     19  C   UNL     1       1.999   7.960  18.887  0.00  0.00    +0.000 A 
ATOM     20  C   UNL     1       2.045   9.247  18.175  0.00  0.00    +0.000 C 
ATOM     21  O   UNL     1       2.625   9.341  17.102  0.00  0.00    +0.000 OA
ATOM     22  N   UNL     1      -0.134  11.519  21.987  0.00  0.00    +0.000 N 
ATOM     23  H   UNL     1       0.312  10.759  22.497  0.00  0.00    +0.000 HD
ENDROOT
BRANCH   4  24
ATOM     24  C   UNL     1      -0.556  14.301  21.816  0.00  0.00    +0.000 C 
BRANCH  24  25
ATOM     25  C   UNL     1      -0.879  15.762  22.129  0.00  0.00    +0.000 C 
BRANCH  25  26
ATOM     26  C   UNL     1      -1.092  15.869  23.623  0.00  0.00    +0.000 A 
ATOM     27  N   UNL     1      -0.954  14.887  24.497  0.00  0.00    +0.000 NA
ATOM     28  C   UNL     1      -1.369  15.389  25.702  0.00  0.00    +0.000 A 
ATOM     29  C   UNL     1      -1.728  16.711  25.574  0.00  0.00    +0.000 A 
ATOM     30  N   UNL     1      -1.535  17.005  24.250  0.00  0.00    +0.000 N 
ATOM     31  H   UNL     1      -1.726  17.897  23.816  0.00  0.00    +0.000 HD
ENDBRANCH  25  26
ENDBRANCH  24  25
ENDBRANCH   4  24
TORSDOF 3
ENDMDL
MODEL 8
REMARK VINA RESULT:      -6.6      2.897      4.711
REMARK  Name = 
REMARK  3 active torsions:
REMARK  status: ('A' for Active; 'I' for Inactive)
REMARK    1  A    between atoms: N_4  and  C_5
REMARK    2  A    between atoms: C_5  and  C_6
REMARK    3  A    between atoms: C_6  and  C_7
REMARK                            x       y       z     vdW  Elec       q    Type
REMARK                         _______ _______ _______ _____ _____    ______ ____
ROOT
ATOM      1  O   UNL     1      -2.535  11.507  17.107  0.00  0.00    +0.000 OA
ATOM      2  C   UNL     1      -1.831  11.698  18.093  0.00  0.00    +0.000 C 
ATOM      3  C   UNL     1      -0.575  10.829  18.375  0.00  0.00    +0.000 C 
ATOM      4  N   UNL     1       0.231  11.589  19.314  0.00  0.00    +0.000 N 
ATOM      5  C   UNL     1      -0.612  11.550  20.487  0.00  0.00    +0.000 C 
ATOM      6  O   UNL     1      -0.577  10.635  21.310  0.00  0.00    +0.000 OA
ATOM      7  C   UNL     1      -1.737  12.650  20.457  0.00  0.00    +0.000 C 
ATOM      8  C   UNL     1      -0.960  13.828  21.123  0.00  0.00    +0.000 C 
ATOM      9  S   UNL     1      -1.289  13.648  22.928  0.00  0.00    +0.000 S 
ATOM     10  C   UNL     1      -2.846  12.975  22.595  0.00  0.00    +0.000 C 
ATOM     11  C   UNL     1      -2.999  12.587  21.320  0.00  0.00    +0.000 C 
ATOM     12  C   UNL     1      -4.393  12.627  20.793  0.00  0.00    +0.000 C 
ATOM     13  O   UNL     1      -4.616  12.619  19.588  0.00  0.00    +0.000 OA
ATOM     14  C   UNL     1      -5.526  12.837  21.726  0.00  0.00    +0.000 A 
ATOM     15  C   UNL     1      -6.841  12.887  21.234  0.00  0.00    +0.000 A 
ATOM     16  C   UNL     1      -7.917  13.073  22.107  0.00  0.00    +0.000 A 
ATOM     17  C   UNL     1      -7.689  13.216  23.475  0.00  0.00    +0.000 A 
ATOM     18  C   UNL     1      -6.383  13.208  23.964  0.00  0.00    +0.000 A 
ATOM     19  C   UNL     1      -5.303  13.033  23.087  0.00  0.00    +0.000 A 
ATOM     20  C   UNL     1      -3.927  13.137  23.597  0.00  0.00    +0.000 C 
ATOM     21  O   UNL     1      -3.720  13.375  24.779  0.00  0.00    +0.000 OA
ATOM     22  N   UNL     1      -2.116  12.730  19.015  0.00  0.00    +0.000 N 
ATOM     23  H   UNL     1      -3.021  13.136  18.786  0.00  0.00    +0.000 HD
ENDROOT
BRANCH   4  24
ATOM     24  C   UNL     1       0.677  12.877  18.667  0.00  0.00    +0.000 C 
BRANCH  24  25
ATOM     25  C   UNL     1       2.167  13.137  18.443  0.00  0.00    +0.000 C 
BRANCH  25  26
ATOM     26  C   UNL     1       2.653  14.000  19.585  0.00  0.00    +0.000 A 
ATOM     27  N   UNL     1       3.027  15.266  19.494  0.00  0.00    +0.000 NA
ATOM     28  C   UNL     1       3.512  15.608  20.729  0.00  0.00    +0.000 A 
ATOM     29  C   UNL     1       3.397  14.551  21.601  0.00  0.00    +0.000 A 
ATOM     30  N   UNL     1       2.838  13.541  20.864  0.00  0.00    +0.000 N 
ATOM     31  H   UNL     1       2.637  12.611  21.204  0.00  0.00    +0.000 HD
ENDBRANCH  25  26
ENDBRANCH  24  25
ENDBRANCH   4  24
TORSDOF 3
ENDMDL
MODEL 9
REMARK VINA RESULT:      -6.6      3.832      7.642
REMARK  Name = 
REMARK  3 active torsions:
REMARK  status: ('A' for Active; 'I' for Inactive)
REMARK    1  A    between atoms: N_4  and  C_5
REMARK    2  A    between atoms: C_5  and  C_6
REMARK    3  A    between atoms: C_6  and  C_7
REMARK                            x       y       z     vdW  Elec       q    Type
REMARK                         _______ _______ _______ _____ _____    ______ ____
ROOT
ATOM      1  O   UNL     1      -1.296  12.140  23.312  0.00  0.00    +0.000 OA
ATOM      2  C   UNL     1      -2.402  12.628  23.109  0.00  0.00    +0.000 C 
ATOM      3  C   UNL     1      -3.516  12.593  24.192  0.00  0.00    +0.000 C 
ATOM      4  N   UNL     1      -4.478  13.610  23.804  0.00  0.00    +0.000 N 
ATOM      5  C   UNL     1      -5.013  13.029  22.594  0.00  0.00    +0.000 C 
ATOM      6  O   UNL     1      -5.957  12.238  22.588  0.00  0.00    +0.000 OA
ATOM      7  C   UNL     1      -4.106  13.312  21.339  0.00  0.00    +0.000 C 
ATOM      8  C   UNL     1      -4.714  14.676  20.887  0.00  0.00    +0.000 C 
ATOM      9  S   UNL     1      -6.065  14.224  19.715  0.00  0.00    +0.000 S 
ATOM     10  C   UNL     1      -5.189  12.819  19.219  0.00  0.00    +0.000 C 
ATOM     11  C   UNL     1      -4.182  12.497  20.045  0.00  0.00    +0.000 C 
ATOM     12  C   UNL     1      -3.032  11.785  19.420  0.00  0.00    +0.000 C 
ATOM     13  O   UNL     1      -1.940  11.733  19.974  0.00  0.00    +0.000 OA
ATOM     14  C   UNL     1      -3.154  11.264  18.037  0.00  0.00    +0.000 A 
ATOM     15  C   UNL     1      -2.069  10.602  17.438  0.00  0.00    +0.000 A 
ATOM     16  C   UNL     1      -2.178  10.097  16.139  0.00  0.00    +0.000 A 
ATOM     17  C   UNL     1      -3.366  10.252  15.427  0.00  0.00    +0.000 A 
ATOM     18  C   UNL     1      -4.432  10.944  16.001  0.00  0.00    +0.000 A 
ATOM     19  C   UNL     1      -4.319  11.461  17.301  0.00  0.00    +0.000 A 
ATOM     20  C   UNL     1      -5.406  12.282  17.855  0.00  0.00    +0.000 C 
ATOM     21  O   UNL     1      -6.407  12.517  17.189  0.00  0.00    +0.000 OA
ATOM     22  N   UNL     1      -2.717  13.260  21.886  0.00  0.00    +0.000 N 
ATOM     23  H   UNL     1      -1.956  13.105  21.229  0.00  0.00    +0.000 HD
ENDROOT
BRANCH   4  24
ATOM     24  C   UNL     1      -3.818  14.966  23.841  0.00  0.00    +0.000 C 
BRANCH  24  25
ATOM     25  C   UNL     1      -4.475  16.108  24.618  0.00  0.00    +0.000 C 
BRANCH  25  26
ATOM     26  C   UNL     1      -5.632  16.615  23.788  0.00  0.00    +0.000 A 
ATOM     27  N   UNL     1      -6.835  16.067  23.720  0.00  0.00    +0.000 NA
ATOM     28  C   UNL     1      -7.517  16.767  22.760  0.00  0.00    +0.000 A 
ATOM     29  C   UNL     1      -6.737  17.783  22.260  0.00  0.00    +0.000 A 
ATOM     30  N   UNL     1      -5.548  17.682  22.932  0.00  0.00    +0.000 N 
ATOM     31  H   UNL     1      -4.741  18.273  22.785  0.00  0.00    +0.000 HD
ENDBRANCH  25  26
ENDBRANCH  24  25
ENDBRANCH   4  24
TORSDOF 3
ENDMDL
