MODEL 1
REMARK VINA RESULT:      -8.1      0.000      0.000
REMARK  Name = 
REMARK  6 active torsions:
REMARK  status: ('A' for Active; 'I' for Inactive)
REMARK    1  A    between atoms: C_1  and  N_2
REMARK    2  A    between atoms: N_2  and  C_13
REMARK    3  A    between atoms: C_6  and  C_7
REMARK    4  A    between atoms: N_25  and  C_26
REMARK    5  A    between atoms: C_26  and  C_27
REMARK    6  A    between atoms: C_27  and  O_29
REMARK                            x       y       z     vdW  Elec       q    Type
REMARK                         _______ _______ _______ _____ _____    ______ ____
ROOT
ATOM      1  C   UNL     1       1.298   8.748  18.958  0.00  0.00    +0.000 C 
ATOM      2  C   UNL     1       1.502   8.249  20.417  0.00  0.00    +0.000 C 
ATOM      3  C   UNL     1       1.650   6.715  20.500  0.00  0.00    +0.000 C 
ATOM      4  C   UNL     1       2.586   6.231  19.439  0.00  0.00    +0.000 A 
ATOM      5  C   UNL     1       2.981   6.977  18.348  0.00  0.00    +0.000 A 
ATOM      6  C   UNL     1       3.877   6.190  17.587  0.00  0.00    +0.000 A 
ATOM      7  C   UNL     1       4.608   6.445  16.410  0.00  0.00    +0.000 A 
ATOM      8  C   UNL     1       5.436   5.452  15.905  0.00  0.00    +0.000 A 
ATOM      9  F   UNL     1       6.144   5.695  14.794  0.00  0.00    +0.000 F 
ATOM     10  C   UNL     1       5.551   4.220  16.532  0.00  0.00    +0.000 A 
ATOM     11  C   UNL     1       4.831   3.943  17.702  0.00  0.00    +0.000 A 
ATOM     12  C   UNL     1       3.995   4.949  18.225  0.00  0.00    +0.000 A 
ATOM     13  N   UNL     1       3.195   4.998  19.363  0.00  0.00    +0.000 N 
ATOM     14  C   UNL     1       2.540   8.383  18.101  0.00  0.00    +0.000 C 
ENDROOT
BRANCH   1  16
ATOM     15  C   UNL     1       2.021  11.143  18.498  0.00  0.00    +0.000 C 
ATOM     16  N   UNL     1       0.991  10.198  18.904  0.00  0.00    +0.000 N 
ATOM     17  C   UNL     1      -0.322  10.550  18.608  0.00  0.00    +0.000 A 
ATOM     18  N   UNL     1      -0.584  11.777  18.123  0.00  0.00    +0.000 NA
ATOM     19  C   UNL     1      -1.863  12.103  17.845  0.00  0.00    +0.000 A 
ATOM     20  C   UNL     1      -2.919  11.250  18.026  0.00  0.00    +0.000 A 
ATOM     21  C   UNL     1      -2.575  10.023  18.529  0.00  0.00    +0.000 A 
ATOM     22  N   UNL     1      -1.307   9.659  18.822  0.00  0.00    +0.000 NA
BRANCH  20  23
ATOM     23  C   UNL     1      -4.318  11.614  17.698  0.00  0.00    +0.000 C 
ATOM     24  F   UNL     1      -4.473  12.083  16.428  0.00  0.00    +0.000 F 
ATOM     25  F   UNL     1      -5.171  10.560  17.810  0.00  0.00    +0.000 F 
ATOM     26  F   UNL     1      -4.814  12.583  18.514  0.00  0.00    +0.000 F 
ENDBRANCH  20  23
ENDBRANCH   1  16
BRANCH  13  27
ATOM     27  C   UNL     1       3.105   3.949  20.374  0.00  0.00    +0.000 C 
BRANCH  27  28
ATOM     28  C   UNL     1       1.985   2.952  20.189  0.00  0.00    +0.000 C 
ATOM     29  O   UNL     1       2.068   2.012  19.409  0.00  0.00    +0.000 OA
BRANCH  28  30
ATOM     30  O   UNL     1       0.843   3.198  20.870  0.00  0.00    +0.000 OA
ATOM     31  H   UNL     1       0.953   3.640  21.734  0.00  0.00    +0.000 HD
ENDBRANCH  28  30
ENDBRANCH  27  28
ENDBRANCH  13  27
TORSDOF 5
ENDMDL
MODEL 2
REMARK VINA RESULT:      -8.1      3.795      5.020
REMARK  Name = 
REMARK  6 active torsions:
REMARK  status: ('A' for Active; 'I' for Inactive)
REMARK    1  A    between atoms: C_1  and  N_2
REMARK    2  A    between atoms: N_2  and  C_13
REMARK    3  A    between atoms: C_6  and  C_7
REMARK    4  A    between atoms: N_25  and  C_26
REMARK    5  A    between atoms: C_26  and  C_27
REMARK    6  A    between atoms: C_27  and  O_29
REMARK                            x       y       z     vdW  Elec       q    Type
REMARK                         _______ _______ _______ _____ _____    ______ ____
ROOT
ATOM      1  C   UNL     1       1.836   8.900  19.242  0.00  0.00    +0.000 C 
ATOM      2  C   UNL     1       2.171   8.713  17.735  0.00  0.00    +0.000 C 
ATOM      3  C   UNL     1       3.373   7.771  17.510  0.00  0.00    +0.000 C 
ATOM      4  C   UNL     1       3.240   6.555  18.371  0.00  0.00    +0.000 A 
ATOM      5  C   UNL     1       2.378   6.448  19.442  0.00  0.00    +0.000 A 
ATOM      6  C   UNL     1       2.527   5.152  19.990  0.00  0.00    +0.000 A 
ATOM      7  C   UNL     1       1.888   4.488  21.055  0.00  0.00    +0.000 A 
ATOM      8  C   UNL     1       2.252   3.180  21.345  0.00  0.00    +0.000 A 
ATOM      9  F   UNL     1       1.637   2.538  22.348  0.00  0.00    +0.000 F 
ATOM     10  C   UNL     1       3.231   2.524  20.614  0.00  0.00    +0.000 A 
ATOM     11  C   UNL     1       3.882   3.166  19.552  0.00  0.00    +0.000 A 
ATOM     12  C   UNL     1       3.513   4.491  19.246  0.00  0.00    +0.000 A 
ATOM     13  N   UNL     1       3.934   5.372  18.254  0.00  0.00    +0.000 N 
ATOM     14  C   UNL     1       1.440   7.532  19.863  0.00  0.00    +0.000 C 
ENDROOT
BRANCH   1  16
ATOM     15  C   UNL     1      -0.243   9.718  20.458  0.00  0.00    +0.000 C 
ATOM     16  N   UNL     1       0.792   9.930  19.457  0.00  0.00    +0.000 N 
ATOM     17  C   UNL     1       1.157  11.252  19.215  0.00  0.00    +0.000 A 
ATOM     18  N   UNL     1       0.450  12.246  19.780  0.00  0.00    +0.000 NA
ATOM     19  C   UNL     1       0.815  13.521  19.532  0.00  0.00    +0.000 A 
ATOM     20  C   UNL     1       1.875  13.864  18.735  0.00  0.00    +0.000 A 
ATOM     21  C   UNL     1       2.541  12.798  18.190  0.00  0.00    +0.000 A 
ATOM     22  N   UNL     1       2.205  11.508  18.412  0.00  0.00    +0.000 NA
BRANCH  20  23
ATOM     23  C   UNL     1       2.277  15.269  18.487  0.00  0.00    +0.000 C 
ATOM     24  F   UNL     1       3.084  15.418  17.399  0.00  0.00    +0.000 F 
ATOM     25  F   UNL     1       1.211  16.086  18.271  0.00  0.00    +0.000 F 
ATOM     26  F   UNL     1       2.959  15.813  19.531  0.00  0.00    +0.000 F 
ENDBRANCH  20  23
ENDBRANCH   1  16
BRANCH  13  27
ATOM     27  C   UNL     1       4.882   5.050  17.191  0.00  0.00    +0.000 C 
BRANCH  27  28
ATOM     28  C   UNL     1       6.342   5.241  17.530  0.00  0.00    +0.000 C 
ATOM     29  O   UNL     1       6.957   6.254  17.221  0.00  0.00    +0.000 OA
BRANCH  28  30
ATOM     30  O   UNL     1       6.963   4.196  18.121  0.00  0.00    +0.000 OA
ATOM     31  H   UNL     1       7.903   4.074  17.885  0.00  0.00    +0.000 HD
ENDBRANCH  28  30
ENDBRANCH  27  28
ENDBRANCH  13  27
TORSDOF 5
ENDMDL
MODEL 3
REMARK VINA RESULT:      -7.7      2.651      3.719
REMARK  Name = 
REMARK  6 active torsions:
REMARK  status: ('A' for Active; 'I' for Inactive)
REMARK    1  A    between atoms: C_1  and  N_2
REMARK    2  A    between atoms: N_2  and  C_13
REMARK    3  A    between atoms: C_6  and  C_7
REMARK    4  A    between atoms: N_25  and  C_26
REMARK    5  A    between atoms: C_26  and  C_27
REMARK    6  A    between atoms: C_27  and  O_29
REMARK                            x       y       z     vdW  Elec       q    Type
REMARK                         _______ _______ _______ _____ _____    ______ ____
ROOT
ATOM      1  C   UNL     1       1.635   9.301  19.582  0.00  0.00    +0.000 C 
ATOM      2  C   UNL     1       1.844   9.245  18.041  0.00  0.00    +0.000 C 
ATOM      3  C   UNL     1       3.033   8.347  17.640  0.00  0.00    +0.000 C 
ATOM      4  C   UNL     1       2.988   7.063  18.404  0.00  0.00    +0.000 A 
ATOM      5  C   UNL     1       2.220   6.852  19.531  0.00  0.00    +0.000 A 
ATOM      6  C   UNL     1       2.430   5.519  19.955  0.00  0.00    +0.000 A 
ATOM      7  C   UNL     1       1.891   4.757  21.010  0.00  0.00    +0.000 A 
ATOM      8  C   UNL     1       2.293   3.437  21.159  0.00  0.00    +0.000 A 
ATOM      9  F   UNL     1       1.773   2.704  22.153  0.00  0.00    +0.000 F 
ATOM     10  C   UNL     1       3.215   2.861  20.296  0.00  0.00    +0.000 A 
ATOM     11  C   UNL     1       3.767   3.601  19.242  0.00  0.00    +0.000 A 
ATOM     12  C   UNL     1       3.357   4.939  19.079  0.00  0.00    +0.000 A 
ATOM     13  N   UNL     1       3.683   5.906  18.132  0.00  0.00    +0.000 N 
ATOM     14  C   UNL     1       1.309   7.880  20.117  0.00  0.00    +0.000 C 
ENDROOT
BRANCH   1  16
ATOM     15  C   UNL     1       0.959  11.424  20.809  0.00  0.00    +0.000 C 
ATOM     16  N   UNL     1       0.601  10.291  19.967  0.00  0.00    +0.000 N 
ATOM     17  C   UNL     1      -0.439  10.495  19.066  0.00  0.00    +0.000 A 
ATOM     18  N   UNL     1      -1.147  11.637  19.122  0.00  0.00    +0.000 NA
ATOM     19  C   UNL     1      -2.155  11.817  18.243  0.00  0.00    +0.000 A 
ATOM     20  C   UNL     1      -2.498  10.899  17.287  0.00  0.00    +0.000 A 
ATOM     21  C   UNL     1      -1.737   9.759  17.296  0.00  0.00    +0.000 A 
ATOM     22  N   UNL     1      -0.722   9.541  18.161  0.00  0.00    +0.000 NA
BRANCH  20  23
ATOM     23  C   UNL     1      -3.595  11.117  16.314  0.00  0.00    +0.000 C 
ATOM     24  F   UNL     1      -4.365  10.012  16.107  0.00  0.00    +0.000 F 
ATOM     25  F   UNL     1      -4.453  12.097  16.707  0.00  0.00    +0.000 F 
ATOM     26  F   UNL     1      -3.143  11.489  15.086  0.00  0.00    +0.000 F 
ENDBRANCH  20  23
ENDBRANCH   1  16
BRANCH  13  27
ATOM     27  C   UNL     1       4.541   5.689  16.970  0.00  0.00    +0.000 C 
BRANCH  27  28
ATOM     28  C   UNL     1       6.000   6.033  17.157  0.00  0.00    +0.000 C 
ATOM     29  O   UNL     1       6.488   7.070  16.726  0.00  0.00    +0.000 OA
BRANCH  28  30
ATOM     30  O   UNL     1       6.767   5.093  17.754  0.00  0.00    +0.000 OA
ATOM     31  H   UNL     1       6.434   4.755  18.608  0.00  0.00    +0.000 HD
ENDBRANCH  28  30
ENDBRANCH  27  28
ENDBRANCH  13  27
TORSDOF 5
ENDMDL
MODEL 4
REMARK VINA RESULT:      -7.7      2.342      2.802
REMARK  Name = 
REMARK  6 active torsions:
REMARK  status: ('A' for Active; 'I' for Inactive)
REMARK    1  A    between atoms: C_1  and  N_2
REMARK    2  A    between atoms: N_2  and  C_13
REMARK    3  A    between atoms: C_6  and  C_7
REMARK    4  A    between atoms: N_25  and  C_26
REMARK    5  A    between atoms: C_26  and  C_27
REMARK    6  A    between atoms: C_27  and  O_29
REMARK                            x       y       z     vdW  Elec       q    Type
REMARK                         _______ _______ _______ _____ _____    ______ ____
ROOT
ATOM      1  C   UNL     1       1.805   8.577  18.928  0.00  0.00    +0.000 C 
ATOM      2  C   UNL     1       1.896   7.867  20.309  0.00  0.00    +0.000 C 
ATOM      3  C   UNL     1       1.831   6.330  20.188  0.00  0.00    +0.000 C 
ATOM      4  C   UNL     1       2.724   5.864  19.082  0.00  0.00    +0.000 A 
ATOM      5  C   UNL     1       3.249   6.684  18.105  0.00  0.00    +0.000 A 
ATOM      6  C   UNL     1       4.051   5.887  17.255  0.00  0.00    +0.000 A 
ATOM      7  C   UNL     1       4.844   6.191  16.132  0.00  0.00    +0.000 A 
ATOM      8  C   UNL     1       5.544   5.167  15.508  0.00  0.00    +0.000 A 
ATOM      9  F   UNL     1       6.311   5.453  14.447  0.00  0.00    +0.000 F 
ATOM     10  C   UNL     1       5.471   3.859  15.965  0.00  0.00    +0.000 A 
ATOM     11  C   UNL     1       4.687   3.534  17.079  0.00  0.00    +0.000 A 
ATOM     12  C   UNL     1       3.980   4.569  17.723  0.00  0.00    +0.000 A 
ATOM     13  N   UNL     1       3.161   4.579  18.848  0.00  0.00    +0.000 N 
ATOM     14  C   UNL     1       3.011   8.158  18.044  0.00  0.00    +0.000 C 
ENDROOT
BRANCH   1  16
ATOM     15  C   UNL     1       1.975  10.906  17.921  0.00  0.00    +0.000 C 
ATOM     16  N   UNL     1       1.700  10.049  19.065  0.00  0.00    +0.000 N 
ATOM     17  C   UNL     1       0.777  10.529  19.989  0.00  0.00    +0.000 A 
ATOM     18  N   UNL     1       0.317  11.787  19.871  0.00  0.00    +0.000 NA
ATOM     19  C   UNL     1      -0.575  12.237  20.777  0.00  0.00    +0.000 A 
ATOM     20  C   UNL     1      -1.047  11.480  21.816  0.00  0.00    +0.000 A 
ATOM     21  C   UNL     1      -0.527  10.214  21.875  0.00  0.00    +0.000 A 
ATOM     22  N   UNL     1       0.369   9.727  20.989  0.00  0.00    +0.000 NA
BRANCH  20  23
ATOM     23  C   UNL     1      -2.042  11.981  22.795  0.00  0.00    +0.000 C 
ATOM     24  F   UNL     1      -2.435  11.041  23.699  0.00  0.00    +0.000 F 
ATOM     25  F   UNL     1      -1.571  13.026  23.528  0.00  0.00    +0.000 F 
ATOM     26  F   UNL     1      -3.183  12.426  22.202  0.00  0.00    +0.000 F 
ENDBRANCH  20  23
ENDBRANCH   1  16
BRANCH  13  27
ATOM     27  C   UNL     1       2.899   3.429  19.708  0.00  0.00    +0.000 C 
BRANCH  27  28
ATOM     28  C   UNL     1       1.771   2.523  19.271  0.00  0.00    +0.000 C 
ATOM     29  O   UNL     1       0.608   2.723  19.597  0.00  0.00    +0.000 OA
BRANCH  28  30
ATOM     30  O   UNL     1       2.122   1.425  18.566  0.00  0.00    +0.000 OA
ATOM     31  H   UNL     1       1.464   0.704  18.549  0.00  0.00    +0.000 HD
ENDBRANCH  28  30
ENDBRANCH  27  28
ENDBRANCH  13  27
TORSDOF 5
ENDMDL
MODEL 5
REMARK VINA RESULT:      -7.7      0.751      1.161
REMARK  Name = 
REMARK  6 active torsions:
REMARK  status: ('A' for Active; 'I' for Inactive)
REMARK    1  A    between atoms: C_1  and  N_2
REMARK    2  A    between atoms: N_2  and  C_13
REMARK    3  A    between atoms: C_6  and  C_7
REMARK    4  A    between atoms: N_25  and  C_26
REMARK    5  A    between atoms: C_26  and  C_27
REMARK    6  A    between atoms: C_27  and  O_29
REMARK                            x       y       z     vdW  Elec       q    Type
REMARK                         _______ _______ _______ _____ _____    ______ ____
ROOT
ATOM      1  C   UNL     1       1.554   8.695  18.736  0.00  0.00    +0.000 C 
ATOM      2  C   UNL     1       1.793   8.167  20.179  0.00  0.00    +0.000 C 
ATOM      3  C   UNL     1       1.966   6.635  20.226  0.00  0.00    +0.000 C 
ATOM      4  C   UNL     1       2.889   6.189  19.137  0.00  0.00    +0.000 A 
ATOM      5  C   UNL     1       3.252   6.964  18.055  0.00  0.00    +0.000 A 
ATOM      6  C   UNL     1       4.145   6.208  17.260  0.00  0.00    +0.000 A 
ATOM      7  C   UNL     1       4.849   6.500  16.076  0.00  0.00    +0.000 A 
ATOM      8  C   UNL     1       5.682   5.531  15.534  0.00  0.00    +0.000 A 
ATOM      9  F   UNL     1       6.365   5.809  14.414  0.00  0.00    +0.000 F 
ATOM     10  C   UNL     1       5.827   4.287  16.131  0.00  0.00    +0.000 A 
ATOM     11  C   UNL     1       5.135   3.974  17.308  0.00  0.00    +0.000 A 
ATOM     12  C   UNL     1       4.293   4.955  17.869  0.00  0.00    +0.000 A 
ATOM     13  N   UNL     1       3.515   4.967  19.022  0.00  0.00    +0.000 N 
ATOM     14  C   UNL     1       2.785   8.368  17.848  0.00  0.00    +0.000 C 
ENDROOT
BRANCH   1  16
ATOM     15  C   UNL     1       2.218  11.106  18.272  0.00  0.00    +0.000 C 
ATOM     16  N   UNL     1       1.224  10.140  18.719  0.00  0.00    +0.000 N 
ATOM     17  C   UNL     1      -0.108  10.477  18.500  0.00  0.00    +0.000 A 
ATOM     18  N   UNL     1      -0.413  11.706  18.047  0.00  0.00    +0.000 NA
ATOM     19  C   UNL     1      -1.709  12.017  17.843  0.00  0.00    +0.000 A 
ATOM     20  C   UNL     1      -2.742  11.146  18.069  0.00  0.00    +0.000 A 
ATOM     21  C   UNL     1      -2.354   9.918  18.535  0.00  0.00    +0.000 A 
ATOM     22  N   UNL     1      -1.067   9.569  18.754  0.00  0.00    +0.000 NA
BRANCH  20  23
ATOM     23  C   UNL     1      -4.162  11.494  17.822  0.00  0.00    +0.000 C 
ATOM     24  F   UNL     1      -4.635  12.465  18.653  0.00  0.00    +0.000 F 
ATOM     25  F   UNL     1      -4.374  11.953  16.559  0.00  0.00    +0.000 F 
ATOM     26  F   UNL     1      -4.998  10.432  17.979  0.00  0.00    +0.000 F 
ENDBRANCH  20  23
ENDBRANCH   1  16
BRANCH  13  27
ATOM     27  C   UNL     1       3.460   3.895  20.012  0.00  0.00    +0.000 C 
BRANCH  27  28
ATOM     28  C   UNL     1       3.642   2.494  19.475  0.00  0.00    +0.000 C 
ATOM     29  O   UNL     1       2.765   1.916  18.846  0.00  0.00    +0.000 OA
BRANCH  28  30
ATOM     30  O   UNL     1       4.798   1.873  19.798  0.00  0.00    +0.000 OA
ATOM     31  H   UNL     1       5.614   2.385  19.636  0.00  0.00    +0.000 HD
ENDBRANCH  28  30
ENDBRANCH  27  28
ENDBRANCH  13  27
TORSDOF 5
ENDMDL
MODEL 6
REMARK VINA RESULT:      -7.7      3.684      4.820
REMARK  Name = 
REMARK  6 active torsions:
REMARK  status: ('A' for Active; 'I' for Inactive)
REMARK    1  A    between atoms: C_1  and  N_2
REMARK    2  A    between atoms: N_2  and  C_13
REMARK    3  A    between atoms: C_6  and  C_7
REMARK    4  A    between atoms: N_25  and  C_26
REMARK    5  A    between atoms: C_26  and  C_27
REMARK    6  A    between atoms: C_27  and  O_29
REMARK                            x       y       z     vdW  Elec       q    Type
REMARK                         _______ _______ _______ _____ _____    ______ ____
ROOT
ATOM      1  C   UNL     1       1.568   8.874  19.872  0.00  0.00    +0.000 C 
ATOM      2  C   UNL     1       1.701   8.881  18.322  0.00  0.00    +0.000 C 
ATOM      3  C   UNL     1       2.915   8.065  17.830  0.00  0.00    +0.000 C 
ATOM      4  C   UNL     1       2.977   6.755  18.549  0.00  0.00    +0.000 A 
ATOM      5  C   UNL     1       2.280   6.464  19.703  0.00  0.00    +0.000 A 
ATOM      6  C   UNL     1       2.583   5.131  20.067  0.00  0.00    +0.000 A 
ATOM      7  C   UNL     1       2.140   4.305  21.119  0.00  0.00    +0.000 A 
ATOM      8  C   UNL     1       2.619   3.005  21.199  0.00  0.00    +0.000 A 
ATOM      9  F   UNL     1       2.190   2.211  22.190  0.00  0.00    +0.000 F 
ATOM     10  C   UNL     1       3.525   2.511  20.273  0.00  0.00    +0.000 A 
ATOM     11  C   UNL     1       3.982   3.315  19.220  0.00  0.00    +0.000 A 
ATOM     12  C   UNL     1       3.493   4.633  19.127  0.00  0.00    +0.000 A 
ATOM     13  N   UNL     1       3.719   5.648  18.201  0.00  0.00    +0.000 N 
ATOM     14  C   UNL     1       1.346   7.420  20.371  0.00  0.00    +0.000 C 
ENDROOT
BRANCH   1  16
ATOM     15  C   UNL     1      -0.227   9.488  21.565  0.00  0.00    +0.000 C 
ATOM     16  N   UNL     1       0.504   9.792  20.344  0.00  0.00    +0.000 N 
ATOM     17  C   UNL     1       0.655  11.140  20.031  0.00  0.00    +0.000 A 
ATOM     18  N   UNL     1       0.004  12.063  20.761  0.00  0.00    +0.000 NA
ATOM     19  C   UNL     1       0.159  13.365  20.442  0.00  0.00    +0.000 A 
ATOM     20  C   UNL     1       0.949  13.804  19.414  0.00  0.00    +0.000 A 
ATOM     21  C   UNL     1       1.573  12.806  18.713  0.00  0.00    +0.000 A 
ATOM     22  N   UNL     1       1.442  11.492  19.000  0.00  0.00    +0.000 NA
BRANCH  20  23
ATOM     23  C   UNL     1       1.126  15.239  19.087  0.00  0.00    +0.000 C 
ATOM     24  F   UNL     1       0.071  15.776  18.412  0.00  0.00    +0.000 F 
ATOM     25  F   UNL     1       1.287  16.011  20.197  0.00  0.00    +0.000 F 
ATOM     26  F   UNL     1       2.219  15.471  18.311  0.00  0.00    +0.000 F 
ENDBRANCH  20  23
ENDBRANCH   1  16
BRANCH  13  27
ATOM     27  C   UNL     1       4.527   5.519  16.991  0.00  0.00    +0.000 C 
BRANCH  27  28
ATOM     28  C   UNL     1       5.958   5.991  17.103  0.00  0.00    +0.000 C 
ATOM     29  O   UNL     1       6.524   6.111  18.181  0.00  0.00    +0.000 OA
BRANCH  28  30
ATOM     30  O   UNL     1       6.559   6.360  15.950  0.00  0.00    +0.000 OA
ATOM     31  H   UNL     1       7.273   5.771  15.637  0.00  0.00    +0.000 HD
ENDBRANCH  28  30
ENDBRANCH  27  28
ENDBRANCH  13  27
TORSDOF 5
ENDMDL
MODEL 7
REMARK VINA RESULT:      -7.4      3.613      4.886
REMARK  Name = 
REMARK  6 active torsions:
REMARK  status: ('A' for Active; 'I' for Inactive)
REMARK    1  A    between atoms: C_1  and  N_2
REMARK    2  A    between atoms: N_2  and  C_13
REMARK    3  A    between atoms: C_6  and  C_7
REMARK    4  A    between atoms: N_25  and  C_26
REMARK    5  A    between atoms: C_26  and  C_27
REMARK    6  A    between atoms: C_27  and  O_29
REMARK                            x       y       z     vdW  Elec       q    Type
REMARK                         _______ _______ _______ _____ _____    ______ ____
ROOT
ATOM      1  C   UNL     1       1.810   8.903  19.252  0.00  0.00    +0.000 C 
ATOM      2  C   UNL     1       2.282   8.708  17.783  0.00  0.00    +0.000 C 
ATOM      3  C   UNL     1       3.521   7.793  17.678  0.00  0.00    +0.000 C 
ATOM      4  C   UNL     1       3.341   6.585  18.540  0.00  0.00    +0.000 A 
ATOM      5  C   UNL     1       2.390   6.468  19.532  0.00  0.00    +0.000 A 
ATOM      6  C   UNL     1       2.521   5.183  20.108  0.00  0.00    +0.000 A 
ATOM      7  C   UNL     1       1.806   4.515  21.121  0.00  0.00    +0.000 A 
ATOM      8  C   UNL     1       2.174   3.220  21.460  0.00  0.00    +0.000 A 
ATOM      9  F   UNL     1       1.488   2.574  22.413  0.00  0.00    +0.000 F 
ATOM     10  C   UNL     1       3.229   2.580  20.827  0.00  0.00    +0.000 A 
ATOM     11  C   UNL     1       3.957   3.226  19.819  0.00  0.00    +0.000 A 
ATOM     12  C   UNL     1       3.584   4.538  19.464  0.00  0.00    +0.000 A 
ATOM     13  N   UNL     1       4.071   5.418  18.501  0.00  0.00    +0.000 N 
ATOM     14  C   UNL     1       1.393   7.534  19.854  0.00  0.00    +0.000 C 
ENDROOT
BRANCH   1  16
ATOM     15  C   UNL     1      -0.398   9.674  20.253  0.00  0.00    +0.000 C 
ATOM     16  N   UNL     1       0.727   9.910  19.359  0.00  0.00    +0.000 N 
ATOM     17  C   UNL     1       1.084  11.239  19.153  0.00  0.00    +0.000 A 
ATOM     18  N   UNL     1       0.302  12.217  19.643  0.00  0.00    +0.000 NA
ATOM     19  C   UNL     1       0.661  13.500  19.430  0.00  0.00    +0.000 A 
ATOM     20  C   UNL     1       1.787  13.867  18.742  0.00  0.00    +0.000 A 
ATOM     21  C   UNL     1       2.528  12.817  18.268  0.00  0.00    +0.000 A 
ATOM     22  N   UNL     1       2.201  11.520  18.458  0.00  0.00    +0.000 NA
BRANCH  20  23
ATOM     23  C   UNL     1       2.180  15.281  18.532  0.00  0.00    +0.000 C 
ATOM     24  F   UNL     1       3.024  15.459  17.477  0.00  0.00    +0.000 F 
ATOM     25  F   UNL     1       1.112  16.089  18.292  0.00  0.00    +0.000 F 
ATOM     26  F   UNL     1       2.817  15.815  19.610  0.00  0.00    +0.000 F 
ENDBRANCH  20  23
ENDBRANCH   1  16
BRANCH  13  27
ATOM     27  C   UNL     1       5.116   5.107  17.530  0.00  0.00    +0.000 C 
BRANCH  27  28
ATOM     28  C   UNL     1       4.795   4.006  16.547  0.00  0.00    +0.000 C 
ATOM     29  O   UNL     1       3.645   3.686  16.277  0.00  0.00    +0.000 OA
BRANCH  28  30
ATOM     30  O   UNL     1       5.848   3.328  16.039  0.00  0.00    +0.000 OA
ATOM     31  H   UNL     1       6.587   3.876  15.712  0.00  0.00    +0.000 HD
ENDBRANCH  28  30
ENDBRANCH  27  28
ENDBRANCH  13  27
TORSDOF 5
ENDMDL
MODEL 8
REMARK VINA RESULT:      -7.4      1.387      1.615
REMARK  Name = 
REMARK  6 active torsions:
REMARK  status: ('A' for Active; 'I' for Inactive)
REMARK    1  A    between atoms: C_1  and  N_2
REMARK    2  A    between atoms: N_2  and  C_13
REMARK    3  A    between atoms: C_6  and  C_7
REMARK    4  A    between atoms: N_25  and  C_26
REMARK    5  A    between atoms: C_26  and  C_27
REMARK    6  A    between atoms: C_27  and  O_29
REMARK                            x       y       z     vdW  Elec       q    Type
REMARK                         _______ _______ _______ _____ _____    ______ ____
ROOT
ATOM      1  C   UNL     1       1.762   8.984  18.632  0.00  0.00    +0.000 C 
ATOM      2  C   UNL     1       1.762   8.341  20.048  0.00  0.00    +0.000 C 
ATOM      3  C   UNL     1       1.648   6.803  19.998  0.00  0.00    +0.000 C 
ATOM      4  C   UNL     1       2.575   6.253  18.961  0.00  0.00    +0.000 A 
ATOM      5  C   UNL     1       3.175   7.005  17.973  0.00  0.00    +0.000 A 
ATOM      6  C   UNL     1       3.988   6.140  17.203  0.00  0.00    +0.000 A 
ATOM      7  C   UNL     1       4.843   6.360  16.107  0.00  0.00    +0.000 A 
ATOM      8  C   UNL     1       5.535   5.283  15.568  0.00  0.00    +0.000 A 
ATOM      9  F   UNL     1       6.361   5.490  14.533  0.00  0.00    +0.000 F 
ATOM     10  C   UNL     1       5.393   4.003  16.083  0.00  0.00    +0.000 A 
ATOM     11  C   UNL     1       4.545   3.761  17.172  0.00  0.00    +0.000 A 
ATOM     12  C   UNL     1       3.846   4.850  17.730  0.00  0.00    +0.000 A 
ATOM     13  N   UNL     1       2.976   4.944  18.811  0.00  0.00    +0.000 N 
ATOM     14  C   UNL     1       2.993   8.481  17.829  0.00  0.00    +0.000 C 
ENDROOT
BRANCH   1  16
ATOM     15  C   UNL     1       2.502  11.260  17.770  0.00  0.00    +0.000 C 
ATOM     16  N   UNL     1       1.705  10.464  18.692  0.00  0.00    +0.000 N 
ATOM     17  C   UNL     1       0.506  11.028  19.118  0.00  0.00    +0.000 A 
ATOM     18  N   UNL     1       0.225  12.303  18.797  0.00  0.00    +0.000 NA
ATOM     19  C   UNL     1      -0.940  12.835  19.222  0.00  0.00    +0.000 A 
ATOM     20  C   UNL     1      -1.862  12.145  19.963  0.00  0.00    +0.000 A 
ATOM     21  C   UNL     1      -1.502  10.856  20.257  0.00  0.00    +0.000 A 
ATOM     22  N   UNL     1      -0.345  10.288  19.852  0.00  0.00    +0.000 NA
BRANCH  20  23
ATOM     23  C   UNL     1      -3.147  12.736  20.407  0.00  0.00    +0.000 C 
ATOM     24  F   UNL     1      -4.203  12.396  19.615  0.00  0.00    +0.000 F 
ATOM     25  F   UNL     1      -3.491  12.350  21.666  0.00  0.00    +0.000 F 
ATOM     26  F   UNL     1      -3.122  14.096  20.428  0.00  0.00    +0.000 F 
ENDBRANCH  20  23
ENDBRANCH   1  16
BRANCH  13  27
ATOM     27  C   UNL     1       2.632   3.847  19.712  0.00  0.00    +0.000 C 
BRANCH  27  28
ATOM     28  C   UNL     1       1.333   3.135  19.415  0.00  0.00    +0.000 C 
ATOM     29  O   UNL     1       1.107   2.614  18.331  0.00  0.00    +0.000 OA
BRANCH  28  30
ATOM     30  O   UNL     1       0.391   3.174  20.384  0.00  0.00    +0.000 OA
ATOM     31  H   UNL     1       0.661   2.816  21.252  0.00  0.00    +0.000 HD
ENDBRANCH  28  30
ENDBRANCH  27  28
ENDBRANCH  13  27
TORSDOF 5
ENDMDL
MODEL 9
REMARK VINA RESULT:      -7.4      3.448      4.650
REMARK  Name = 
REMARK  6 active torsions:
REMARK  status: ('A' for Active; 'I' for Inactive)
REMARK    1  A    between atoms: C_1  and  N_2
REMARK    2  A    between atoms: N_2  and  C_13
REMARK    3  A    between atoms: C_6  and  C_7
REMARK    4  A    between atoms: N_25  and  C_26
REMARK    5  A    between atoms: C_26  and  C_27
REMARK    6  A    between atoms: C_27  and  O_29
REMARK                            x       y       z     vdW  Elec       q    Type
REMARK                         _______ _______ _______ _____ _____    ______ ____
ROOT
ATOM      1  C   UNL     1       2.126   8.391  18.635  0.00  0.00    +0.000 C 
ATOM      2  C   UNL     1       2.919   8.023  17.348  0.00  0.00    +0.000 C 
ATOM      3  C   UNL     1       4.115   7.093  17.638  0.00  0.00    +0.000 C 
ATOM      4  C   UNL     1       3.699   5.994  18.562  0.00  0.00    +0.000 A 
ATOM      5  C   UNL     1       2.540   6.000  19.311  0.00  0.00    +0.000 A 
ATOM      6  C   UNL     1       2.489   4.789  20.040  0.00  0.00    +0.000 A 
ATOM      7  C   UNL     1       1.536   4.248  20.925  0.00  0.00    +0.000 A 
ATOM      8  C   UNL     1       1.770   2.998  21.481  0.00  0.00    +0.000 A 
ATOM      9  F   UNL     1       0.859   2.473  22.313  0.00  0.00    +0.000 F 
ATOM     10  C   UNL     1       2.920   2.281  21.188  0.00  0.00    +0.000 A 
ATOM     11  C   UNL     1       3.883   2.800  20.313  0.00  0.00    +0.000 A 
ATOM     12  C   UNL     1       3.649   4.065  19.737  0.00  0.00    +0.000 A 
ATOM     13  N   UNL     1       4.376   4.824  18.825  0.00  0.00    +0.000 N 
ATOM     14  C   UNL     1       1.534   7.104  19.271  0.00  0.00    +0.000 C 
ENDROOT
BRANCH   1  16
ATOM     15  C   UNL     1       0.292   9.347  17.155  0.00  0.00    +0.000 C 
ATOM     16  N   UNL     1       1.084   9.412  18.375  0.00  0.00    +0.000 N 
ATOM     17  C   UNL     1       0.461   9.971  19.487  0.00  0.00    +0.000 A 
ATOM     18  N   UNL     1      -0.745  10.550  19.348  0.00  0.00    +0.000 NA
ATOM     19  C   UNL     1      -1.333  11.089  20.436  0.00  0.00    +0.000 A 
ATOM     20  C   UNL     1      -0.771  11.077  21.684  0.00  0.00    +0.000 A 
ATOM     21  C   UNL     1       0.460  10.477  21.746  0.00  0.00    +0.000 A 
ATOM     22  N   UNL     1       1.082   9.928  20.680  0.00  0.00    +0.000 NA
BRANCH  20  23
ATOM     23  C   UNL     1      -1.437  11.656  22.876  0.00  0.00    +0.000 C 
ATOM     24  F   UNL     1      -0.798  12.750  23.376  0.00  0.00    +0.000 F 
ATOM     25  F   UNL     1      -2.710  12.058  22.617  0.00  0.00    +0.000 F 
ATOM     26  F   UNL     1      -1.527  10.775  23.908  0.00  0.00    +0.000 F 
ENDBRANCH  20  23
ENDBRANCH   1  16
BRANCH  13  27
ATOM     27  C   UNL     1       5.607   4.394  18.165  0.00  0.00    +0.000 C 
BRANCH  27  28
ATOM     28  C   UNL     1       6.893   4.804  18.843  0.00  0.00    +0.000 C 
ATOM     29  O   UNL     1       6.908   5.462  19.876  0.00  0.00    +0.000 OA
BRANCH  28  30
ATOM     30  O   UNL     1       8.039   4.480  18.203  0.00  0.00    +0.000 OA
ATOM     31  H   UNL     1       7.941   3.882  17.437  0.00  0.00    +0.000 HD
ENDBRANCH  28  30
ENDBRANCH  27  28
ENDBRANCH  13  27
TORSDOF 5
ENDMDL
