MODEL 1
REMARK VINA RESULT:      -8.7      0.000      0.000
REMARK  Name = 
REMARK  10 active torsions:
REMARK  status: ('A' for Active; 'I' for Inactive)
REMARK    1  A    between atoms: C_2  and  O_3
REMARK    2  A    between atoms: C_2  and  C_4
REMARK    3  A    between atoms: C_4  and  C_5
REMARK    4  A    between atoms: C_5  and  C_6
REMARK    5  A    between atoms: C_5  and  C_30
REMARK    6  A    between atoms: C_9  and  O_10
REMARK    7  A    between atoms: O_10  and  C_11
REMARK    8  A    between atoms: C_11  and  C_12
REMARK    9  A    between atoms: C_16  and  C_17
REMARK   10  A    between atoms: C_20  and  C_21
REMARK                            x       y       z     vdW  Elec       q    Type
REMARK                         _______ _______ _______ _____ _____    ______ ____
ROOT
ATOM      1  O   UNL     1       8.819   8.361  18.817  0.00  0.00    +0.000 OA
ENDROOT
BRANCH   1   5
ATOM      2  C   UNL     1       6.162   5.501  17.346  0.00  0.00    +0.000 A 
ATOM      3  C   UNL     1       6.091   6.851  16.975  0.00  0.00    +0.000 A 
ATOM      4  C   UNL     1       6.982   7.780  17.510  0.00  0.00    +0.000 A 
ATOM      5  C   UNL     1       7.940   7.384  18.440  0.00  0.00    +0.000 A 
ATOM      6  C   UNL     1       7.978   6.056  18.864  0.00  0.00    +0.000 A 
ATOM      7  C   UNL     1       7.079   5.124  18.338  0.00  0.00    +0.000 A 
BRANCH   2   8
ATOM      8  C   UNL     1       5.358   4.433  16.609  0.00  0.00    +0.000 C 
BRANCH   8   9
ATOM      9  C   UNL     1       4.027   4.149  17.309  0.00  0.00    +0.000 A 
ATOM     10  C   UNL     1       3.065   5.069  17.695  0.00  0.00    +0.000 A 
ATOM     11  C   UNL     1       1.919   4.459  18.287  0.00  0.00    +0.000 A 
ATOM     12  C   UNL     1       2.037   3.091  18.347  0.00  0.00    +0.000 A 
ATOM     13  S   UNL     1       3.524   2.552  17.711  0.00  0.00    +0.000 S 
ENDBRANCH   8   9
BRANCH   8  14
ATOM     14  C   UNL     1       5.198   4.811  15.124  0.00  0.00    +0.000 C 
BRANCH  14  16
ATOM     15  O   UNL     1       7.335   5.202  14.084  0.00  0.00    +0.000 OA
ATOM     16  C   UNL     1       6.376   4.460  14.247  0.00  0.00    +0.000 C 
BRANCH  16  17
ATOM     17  O   UNL     1       6.326   3.233  13.685  0.00  0.00    +0.000 OA
ATOM     18  H   UNL     1       5.494   3.010  13.226  0.00  0.00    +0.000 HD
ENDBRANCH  16  17
ENDBRANCH  14  16
ENDBRANCH   8  14
ENDBRANCH   2   8
ENDBRANCH   1   5
BRANCH   1  19
ATOM     19  C   UNL     1       8.664   9.612  18.150  0.00  0.00    +0.000 C 
BRANCH  19  20
ATOM     20  C   UNL     1       9.389  10.676  18.937  0.00  0.00    +0.000 A 
ATOM     21  C   UNL     1      10.611  11.191  18.490  0.00  0.00    +0.000 A 
ATOM     22  C   UNL     1      11.286  12.139  19.258  0.00  0.00    +0.000 A 
ATOM     23  C   UNL     1      10.747  12.559  20.468  0.00  0.00    +0.000 A 
ATOM     24  C   UNL     1       9.528  12.055  20.954  0.00  0.00    +0.000 A 
ATOM     25  C   UNL     1       8.853  11.122  20.150  0.00  0.00    +0.000 A 
BRANCH  24  26
ATOM     26  C   UNL     1       8.993  12.475  22.264  0.00  0.00    +0.000 A 
ATOM     27  C   UNL     1       8.417  11.558  23.156  0.00  0.00    +0.000 A 
ATOM     28  C   UNL     1       7.912  11.971  24.390  0.00  0.00    +0.000 A 
ATOM     29  C   UNL     1       7.970  13.317  24.768  0.00  0.00    +0.000 A 
ATOM     30  C   UNL     1       8.555  14.239  23.892  0.00  0.00    +0.000 A 
ATOM     31  C   UNL     1       9.062  13.821  22.665  0.00  0.00    +0.000 A 
BRANCH  29  32
ATOM     32  C   UNL     1       7.418  13.772  26.092  0.00  0.00    +0.000 C 
ATOM     33  F   UNL     1       6.117  13.417  26.285  0.00  0.00    +0.000 F 
ATOM     34  F   UNL     1       8.106  13.259  27.147  0.00  0.00    +0.000 F 
ATOM     35  F   UNL     1       7.461  15.126  26.235  0.00  0.00    +0.000 F 
ENDBRANCH  29  32
ENDBRANCH  24  26
ENDBRANCH  19  20
ENDBRANCH   1  19
TORSDOF 10
ENDMDL
MODEL 2
REMARK VINA RESULT:      -8.5      5.402      7.629
REMARK  Name = 
REMARK  10 active torsions:
REMARK  status: ('A' for Active; 'I' for Inactive)
REMARK    1  A    between atoms: C_2  and  O_3
REMARK    2  A    between atoms: C_2  and  C_4
REMARK    3  A    between atoms: C_4  and  C_5
REMARK    4  A    between atoms: C_5  and  C_6
REMARK    5  A    between atoms: C_5  and  C_30
REMARK    6  A    between atoms: C_9  and  O_10
REMARK    7  A    between atoms: O_10  and  C_11
REMARK    8  A    between atoms: C_11  and  C_12
REMARK    9  A    between atoms: C_16  and  C_17
REMARK   10  A    between atoms: C_20  and  C_21
REMARK                            x       y       z     vdW  Elec       q    Type
REMARK                         _______ _______ _______ _____ _____    ______ ____
ROOT
ATOM      1  O   UNL     1       3.889   6.036  17.460  0.00  0.00    +0.000 OA
ENDROOT
BRANCH   1   5
ATOM      2  C   UNL     1       1.469   8.646  19.635  0.00  0.00    +0.000 A 
ATOM      3  C   UNL     1       1.870   7.401  20.139  0.00  0.00    +0.000 A 
ATOM      4  C   UNL     1       2.658   6.546  19.369  0.00  0.00    +0.000 A 
ATOM      5  C   UNL     1       3.037   6.908  18.078  0.00  0.00    +0.000 A 
ATOM      6  C   UNL     1       2.590   8.116  17.544  0.00  0.00    +0.000 A 
ATOM      7  C   UNL     1       1.791   8.970  18.309  0.00  0.00    +0.000 A 
BRANCH   2   8
ATOM      8  C   UNL     1       0.807   9.687  20.533  0.00  0.00    +0.000 C 
BRANCH   8   9
ATOM      9  C   UNL     1       0.014  10.711  19.717  0.00  0.00    +0.000 A 
ATOM     10  C   UNL     1      -1.206  10.523  19.086  0.00  0.00    +0.000 A 
ATOM     11  C   UNL     1      -1.688  11.703  18.445  0.00  0.00    +0.000 A 
ATOM     12  C   UNL     1      -0.823  12.759  18.595  0.00  0.00    +0.000 A 
ATOM     13  S   UNL     1       0.565  12.326  19.484  0.00  0.00    +0.000 S 
ENDBRANCH   8   9
BRANCH   8  14
ATOM     14  C   UNL     1      -0.031   8.998  21.628  0.00  0.00    +0.000 C 
BRANCH  14  16
ATOM     15  O   UNL     1      -1.156  10.632  22.993  0.00  0.00    +0.000 OA
ATOM     16  C   UNL     1      -0.248   9.820  22.875  0.00  0.00    +0.000 C 
BRANCH  16  17
ATOM     17  O   UNL     1       0.609   9.563  23.887  0.00  0.00    +0.000 OA
ATOM     18  H   UNL     1       0.459   8.727  24.368  0.00  0.00    +0.000 HD
ENDBRANCH  16  17
ENDBRANCH  14  16
ENDBRANCH   8  14
ENDBRANCH   2   8
ENDBRANCH   1   5
BRANCH   1  19
ATOM     19  C   UNL     1       4.868   6.636  16.614  0.00  0.00    +0.000 C 
BRANCH  19  20
ATOM     20  C   UNL     1       6.150   6.800  17.392  0.00  0.00    +0.000 A 
ATOM     21  C   UNL     1       6.714   5.722  18.083  0.00  0.00    +0.000 A 
ATOM     22  C   UNL     1       7.873   5.909  18.835  0.00  0.00    +0.000 A 
ATOM     23  C   UNL     1       8.456   7.168  18.902  0.00  0.00    +0.000 A 
ATOM     24  C   UNL     1       7.912   8.277  18.232  0.00  0.00    +0.000 A 
ATOM     25  C   UNL     1       6.760   8.058  17.458  0.00  0.00    +0.000 A 
BRANCH  24  26
ATOM     26  C   UNL     1       8.516   9.619  18.354  0.00  0.00    +0.000 A 
ATOM     27  C   UNL     1       9.516   9.897  19.297  0.00  0.00    +0.000 A 
ATOM     28  C   UNL     1      10.074  11.171  19.403  0.00  0.00    +0.000 A 
ATOM     29  C   UNL     1       9.647  12.207  18.564  0.00  0.00    +0.000 A 
ATOM     30  C   UNL     1       8.659  11.938  17.609  0.00  0.00    +0.000 A 
ATOM     31  C   UNL     1       8.110  10.664  17.505  0.00  0.00    +0.000 A 
BRANCH  29  32
ATOM     32  C   UNL     1      10.236  13.587  18.680  0.00  0.00    +0.000 C 
ATOM     33  F   UNL     1       9.361  14.510  19.167  0.00  0.00    +0.000 F 
ATOM     34  F   UNL     1      11.318  13.624  19.504  0.00  0.00    +0.000 F 
ATOM     35  F   UNL     1      10.661  14.073  17.480  0.00  0.00    +0.000 F 
ENDBRANCH  29  32
ENDBRANCH  24  26
ENDBRANCH  19  20
ENDBRANCH   1  19
TORSDOF 10
ENDMDL
MODEL 3
REMARK VINA RESULT:      -8.4      7.660      8.994
REMARK  Name = 
REMARK  10 active torsions:
REMARK  status: ('A' for Active; 'I' for Inactive)
REMARK    1  A    between atoms: C_2  and  O_3
REMARK    2  A    between atoms: C_2  and  C_4
REMARK    3  A    between atoms: C_4  and  C_5
REMARK    4  A    between atoms: C_5  and  C_6
REMARK    5  A    between atoms: C_5  and  C_30
REMARK    6  A    between atoms: C_9  and  O_10
REMARK    7  A    between atoms: O_10  and  C_11
REMARK    8  A    between atoms: C_11  and  C_12
REMARK    9  A    between atoms: C_16  and  C_17
REMARK   10  A    between atoms: C_20  and  C_21
REMARK                            x       y       z     vdW  Elec       q    Type
REMARK                         _______ _______ _______ _____ _____    ______ ____
ROOT
ATOM      1  O   UNL     1       0.754   9.375  18.883  0.00  0.00    +0.000 OA
ENDROOT
BRANCH   1   5
ATOM      2  C   UNL     1       3.715   6.498  18.290  0.00  0.00    +0.000 A 
ATOM      3  C   UNL     1       2.887   6.499  19.421  0.00  0.00    +0.000 A 
ATOM      4  C   UNL     1       1.927   7.494  19.595  0.00  0.00    +0.000 A 
ATOM      5  C   UNL     1       1.793   8.516  18.658  0.00  0.00    +0.000 A 
ATOM      6  C   UNL     1       2.654   8.561  17.562  0.00  0.00    +0.000 A 
ATOM      7  C   UNL     1       3.626   7.571  17.390  0.00  0.00    +0.000 A 
BRANCH   2   8
ATOM      8  C   UNL     1       4.609   5.305  17.963  0.00  0.00    +0.000 C 
BRANCH   8   9
ATOM      9  C   UNL     1       3.859   3.980  18.121  0.00  0.00    +0.000 A 
ATOM     10  C   UNL     1       2.858   3.476  17.304  0.00  0.00    +0.000 A 
ATOM     11  C   UNL     1       2.403   2.188  17.715  0.00  0.00    +0.000 A 
ATOM     12  C   UNL     1       3.059   1.744  18.837  0.00  0.00    +0.000 A 
ATOM     13  S   UNL     1       4.200   2.878  19.399  0.00  0.00    +0.000 S 
ENDBRANCH   8   9
BRANCH   8  14
ATOM     14  C   UNL     1       5.252   5.481  16.573  0.00  0.00    +0.000 C 
BRANCH  14  16
ATOM     15  O   UNL     1       7.509   5.934  15.868  0.00  0.00    +0.000 OA
ATOM     16  C   UNL     1       6.742   5.245  16.527  0.00  0.00    +0.000 C 
BRANCH  16  17
ATOM     17  O   UNL     1       7.187   4.240  17.311  0.00  0.00    +0.000 OA
ATOM     18  H   UNL     1       7.078   3.339  16.951  0.00  0.00    +0.000 HD
ENDBRANCH  16  17
ENDBRANCH  14  16
ENDBRANCH   8  14
ENDBRANCH   2   8
ENDBRANCH   1   5
BRANCH   1  19
ATOM     19  C   UNL     1       1.085  10.557  19.608  0.00  0.00    +0.000 C 
BRANCH  19  20
ATOM     20  C   UNL     1       0.358  10.539  20.930  0.00  0.00    +0.000 A 
ATOM     21  C   UNL     1       0.707   9.624  21.929  0.00  0.00    +0.000 A 
ATOM     22  C   UNL     1      -0.011   9.593  23.124  0.00  0.00    +0.000 A 
ATOM     23  C   UNL     1      -1.077  10.465  23.311  0.00  0.00    +0.000 A 
ATOM     24  C   UNL     1      -1.464  11.390  22.326  0.00  0.00    +0.000 A 
ATOM     25  C   UNL     1      -0.708  11.421  21.142  0.00  0.00    +0.000 A 
BRANCH  24  26
ATOM     26  C   UNL     1      -2.629  12.275  22.521  0.00  0.00    +0.000 A 
ATOM     27  C   UNL     1      -3.392  12.743  21.440  0.00  0.00    +0.000 A 
ATOM     28  C   UNL     1      -4.488  13.582  21.640  0.00  0.00    +0.000 A 
ATOM     29  C   UNL     1      -4.854  13.979  22.932  0.00  0.00    +0.000 A 
ATOM     30  C   UNL     1      -4.108  13.508  24.019  0.00  0.00    +0.000 A 
ATOM     31  C   UNL     1      -3.020  12.666  23.814  0.00  0.00    +0.000 A 
BRANCH  29  32
ATOM     32  C   UNL     1      -6.028  14.893  23.154  0.00  0.00    +0.000 C 
ATOM     33  F   UNL     1      -6.704  15.195  22.011  0.00  0.00    +0.000 F 
ATOM     34  F   UNL     1      -6.949  14.362  24.004  0.00  0.00    +0.000 F 
ATOM     35  F   UNL     1      -5.661  16.088  23.697  0.00  0.00    +0.000 F 
ENDBRANCH  29  32
ENDBRANCH  24  26
ENDBRANCH  19  20
ENDBRANCH   1  19
TORSDOF 10
ENDMDL
MODEL 4
REMARK VINA RESULT:      -8.3      9.889     12.489
REMARK  Name = 
REMARK  10 active torsions:
REMARK  status: ('A' for Active; 'I' for Inactive)
REMARK    1  A    between atoms: C_2  and  O_3
REMARK    2  A    between atoms: C_2  and  C_4
REMARK    3  A    between atoms: C_4  and  C_5
REMARK    4  A    between atoms: C_5  and  C_6
REMARK    5  A    between atoms: C_5  and  C_30
REMARK    6  A    between atoms: C_9  and  O_10
REMARK    7  A    between atoms: O_10  and  C_11
REMARK    8  A    between atoms: C_11  and  C_12
REMARK    9  A    between atoms: C_16  and  C_17
REMARK   10  A    between atoms: C_20  and  C_21
REMARK                            x       y       z     vdW  Elec       q    Type
REMARK                         _______ _______ _______ _____ _____    ______ ____
ROOT
ATOM      1  O   UNL     1      -0.765  12.064  19.876  0.00  0.00    +0.000 OA
ENDROOT
BRANCH   1   5
ATOM      2  C   UNL     1      -4.918  12.297  19.557  0.00  0.00    +0.000 A 
ATOM      3  C   UNL     1      -4.233  12.685  20.716  0.00  0.00    +0.000 A 
ATOM      4  C   UNL     1      -2.846  12.567  20.793  0.00  0.00    +0.000 A 
ATOM      5  C   UNL     1      -2.124  12.038  19.725  0.00  0.00    +0.000 A 
ATOM      6  C   UNL     1      -2.802  11.589  18.592  0.00  0.00    +0.000 A 
ATOM      7  C   UNL     1      -4.193  11.695  18.517  0.00  0.00    +0.000 A 
BRANCH   2   8
ATOM      8  C   UNL     1      -6.395  12.627  19.361  0.00  0.00    +0.000 C 
BRANCH   8   9
ATOM      9  C   UNL     1      -6.584  13.851  18.462  0.00  0.00    +0.000 A 
ATOM     10  C   UNL     1      -6.746  13.868  17.086  0.00  0.00    +0.000 A 
ATOM     11  C   UNL     1      -6.942  15.183  16.566  0.00  0.00    +0.000 A 
ATOM     12  C   UNL     1      -6.916  16.136  17.555  0.00  0.00    +0.000 A 
ATOM     13  S   UNL     1      -6.640  15.453  19.092  0.00  0.00    +0.000 S 
ENDBRANCH   8   9
BRANCH   8  14
ATOM     14  C   UNL     1      -7.162  11.383  18.869  0.00  0.00    +0.000 C 
BRANCH  14  16
ATOM     15  O   UNL     1      -7.248  10.414  21.072  0.00  0.00    +0.000 OA
ATOM     16  C   UNL     1      -7.232  10.246  19.860  0.00  0.00    +0.000 C 
BRANCH  16  17
ATOM     17  O   UNL     1      -7.328   9.015  19.313  0.00  0.00    +0.000 OA
ATOM     18  H   UNL     1      -8.234   8.671  19.196  0.00  0.00    +0.000 HD
ENDBRANCH  16  17
ENDBRANCH  14  16
ENDBRANCH   8  14
ENDBRANCH   2   8
ENDBRANCH   1   5
BRANCH   1  19
ATOM     19  C   UNL     1      -0.211  10.974  20.609  0.00  0.00    +0.000 C 
BRANCH  19  20
ATOM     20  C   UNL     1       0.745  10.223  19.716  0.00  0.00    +0.000 A 
ATOM     21  C   UNL     1       1.238  10.803  18.542  0.00  0.00    +0.000 A 
ATOM     22  C   UNL     1       2.082  10.071  17.707  0.00  0.00    +0.000 A 
ATOM     23  C   UNL     1       2.421   8.766  18.041  0.00  0.00    +0.000 A 
ATOM     24  C   UNL     1       1.936   8.146  19.206  0.00  0.00    +0.000 A 
ATOM     25  C   UNL     1       1.110   8.912  20.045  0.00  0.00    +0.000 A 
BRANCH  24  26
ATOM     26  C   UNL     1       2.266   6.742  19.521  0.00  0.00    +0.000 A 
ATOM     27  C   UNL     1       3.125   5.984  18.711  0.00  0.00    +0.000 A 
ATOM     28  C   UNL     1       3.424   4.657  19.021  0.00  0.00    +0.000 A 
ATOM     29  C   UNL     1       2.871   4.048  20.153  0.00  0.00    +0.000 A 
ATOM     30  C   UNL     1       2.023   4.799  20.977  0.00  0.00    +0.000 A 
ATOM     31  C   UNL     1       1.733   6.123  20.666  0.00  0.00    +0.000 A 
BRANCH  29  32
ATOM     32  C   UNL     1       3.180   2.613  20.487  0.00  0.00    +0.000 C 
ATOM     33  F   UNL     1       2.625   1.724  19.618  0.00  0.00    +0.000 F 
ATOM     34  F   UNL     1       4.516   2.355  20.485  0.00  0.00    +0.000 F 
ATOM     35  F   UNL     1       2.730   2.259  21.723  0.00  0.00    +0.000 F 
ENDBRANCH  29  32
ENDBRANCH  24  26
ENDBRANCH  19  20
ENDBRANCH   1  19
TORSDOF 10
ENDMDL
MODEL 5
REMARK VINA RESULT:      -8.3      5.178      7.418
REMARK  Name = 
REMARK  10 active torsions:
REMARK  status: ('A' for Active; 'I' for Inactive)
REMARK    1  A    between atoms: C_2  and  O_3
REMARK    2  A    between atoms: C_2  and  C_4
REMARK    3  A    between atoms: C_4  and  C_5
REMARK    4  A    between atoms: C_5  and  C_6
REMARK    5  A    between atoms: C_5  and  C_30
REMARK    6  A    between atoms: C_9  and  O_10
REMARK    7  A    between atoms: O_10  and  C_11
REMARK    8  A    between atoms: C_11  and  C_12
REMARK    9  A    between atoms: C_16  and  C_17
REMARK   10  A    between atoms: C_20  and  C_21
REMARK                            x       y       z     vdW  Elec       q    Type
REMARK                         _______ _______ _______ _____ _____    ______ ____
ROOT
ATOM      1  O   UNL     1       3.813   5.980  17.185  0.00  0.00    +0.000 OA
ENDROOT
BRANCH   1   5
ATOM      2  C   UNL     1       1.645   8.759  19.416  0.00  0.00    +0.000 A 
ATOM      3  C   UNL     1       2.115   9.037  18.125  0.00  0.00    +0.000 A 
ATOM      4  C   UNL     1       2.859   8.091  17.422  0.00  0.00    +0.000 A 
ATOM      5  C   UNL     1       3.167   6.862  18.004  0.00  0.00    +0.000 A 
ATOM      6  C   UNL     1       2.759   6.601  19.312  0.00  0.00    +0.000 A 
ATOM      7  C   UNL     1       2.023   7.552  20.024  0.00  0.00    +0.000 A 
BRANCH   2   8
ATOM      8  C   UNL     1       0.644   9.678  20.110  0.00  0.00    +0.000 C 
BRANCH   8   9
ATOM      9  C   UNL     1      -0.299  10.344  19.105  0.00  0.00    +0.000 A 
ATOM     10  C   UNL     1      -1.263   9.731  18.320  0.00  0.00    +0.000 A 
ATOM     11  C   UNL     1      -1.999  10.656  17.521  0.00  0.00    +0.000 A 
ATOM     12  C   UNL     1      -1.575  11.949  17.708  0.00  0.00    +0.000 A 
ATOM     13  S   UNL     1      -0.289  12.043  18.823  0.00  0.00    +0.000 S 
ENDBRANCH   8   9
BRANCH   8  14
ATOM     14  C   UNL     1      -0.094   8.919  21.230  0.00  0.00    +0.000 C 
BRANCH  14  16
ATOM     15  O   UNL     1      -0.844   9.752  23.361  0.00  0.00    +0.000 OA
ATOM     16  C   UNL     1       0.090   9.492  22.615  0.00  0.00    +0.000 C 
BRANCH  16  17
ATOM     17  O   UNL     1       1.374   9.654  23.001  0.00  0.00    +0.000 OA
ATOM     18  H   UNL     1       1.866  10.368  22.552  0.00  0.00    +0.000 HD
ENDBRANCH  16  17
ENDBRANCH  14  16
ENDBRANCH   8  14
ENDBRANCH   2   8
ENDBRANCH   1   5
BRANCH   1  19
ATOM     19  C   UNL     1       4.840   6.542  16.371  0.00  0.00    +0.000 C 
BRANCH  19  20
ATOM     20  C   UNL     1       6.095   6.681  17.198  0.00  0.00    +0.000 A 
ATOM     21  C   UNL     1       6.631   5.583  17.879  0.00  0.00    +0.000 A 
ATOM     22  C   UNL     1       7.763   5.746  18.676  0.00  0.00    +0.000 A 
ATOM     23  C   UNL     1       8.348   7.001  18.797  0.00  0.00    +0.000 A 
ATOM     24  C   UNL     1       7.830   8.129  18.137  0.00  0.00    +0.000 A 
ATOM     25  C   UNL     1       6.705   7.935  17.319  0.00  0.00    +0.000 A 
BRANCH  24  26
ATOM     26  C   UNL     1       8.433   9.465  18.315  0.00  0.00    +0.000 A 
ATOM     27  C   UNL     1       9.392   9.717  19.307  0.00  0.00    +0.000 A 
ATOM     28  C   UNL     1       9.950  10.986  19.465  0.00  0.00    +0.000 A 
ATOM     29  C   UNL     1       9.564  12.043  18.632  0.00  0.00    +0.000 A 
ATOM     30  C   UNL     1       8.617  11.799  17.629  0.00  0.00    +0.000 A 
ATOM     31  C   UNL     1       8.068  10.530  17.473  0.00  0.00    +0.000 A 
BRANCH  29  32
ATOM     32  C   UNL     1      10.153  13.417  18.804  0.00  0.00    +0.000 C 
ATOM     33  F   UNL     1       9.398  14.403  18.245  0.00  0.00    +0.000 F 
ATOM     34  F   UNL     1      10.305  13.758  20.112  0.00  0.00    +0.000 F 
ATOM     35  F   UNL     1      11.388  13.527  18.239  0.00  0.00    +0.000 F 
ENDBRANCH  29  32
ENDBRANCH  24  26
ENDBRANCH  19  20
ENDBRANCH   1  19
TORSDOF 10
ENDMDL
MODEL 6
REMARK VINA RESULT:      -8.2      6.832      8.541
REMARK  Name = 
REMARK  10 active torsions:
REMARK  status: ('A' for Active; 'I' for Inactive)
REMARK    1  A    between atoms: C_2  and  O_3
REMARK    2  A    between atoms: C_2  and  C_4
REMARK    3  A    between atoms: C_4  and  C_5
REMARK    4  A    between atoms: C_5  and  C_6
REMARK    5  A    between atoms: C_5  and  C_30
REMARK    6  A    between atoms: C_9  and  O_10
REMARK    7  A    between atoms: O_10  and  C_11
REMARK    8  A    between atoms: C_11  and  C_12
REMARK    9  A    between atoms: C_16  and  C_17
REMARK   10  A    between atoms: C_20  and  C_21
REMARK                            x       y       z     vdW  Elec       q    Type
REMARK                         _______ _______ _______ _____ _____    ______ ____
ROOT
ATOM      1  O   UNL     1       1.478   9.484  19.766  0.00  0.00    +0.000 OA
ENDROOT
BRANCH   1   5
ATOM      2  C   UNL     1       2.831   5.686  18.696  0.00  0.00    +0.000 A 
ATOM      3  C   UNL     1       2.826   6.761  17.796  0.00  0.00    +0.000 A 
ATOM      4  C   UNL     1       2.340   8.008  18.185  0.00  0.00    +0.000 A 
ATOM      5  C   UNL     1       1.831   8.198  19.468  0.00  0.00    +0.000 A 
ATOM      6  C   UNL     1       1.772   7.119  20.350  0.00  0.00    +0.000 A 
ATOM      7  C   UNL     1       2.247   5.864  19.960  0.00  0.00    +0.000 A 
BRANCH   2   8
ATOM      8  C   UNL     1       3.560   4.385  18.373  0.00  0.00    +0.000 C 
BRANCH   8   9
ATOM      9  C   UNL     1       5.026   4.638  18.010  0.00  0.00    +0.000 A 
ATOM     10  C   UNL     1       5.644   4.402  16.791  0.00  0.00    +0.000 A 
ATOM     11  C   UNL     1       7.017   4.792  16.781  0.00  0.00    +0.000 A 
ATOM     12  C   UNL     1       7.414   5.308  17.991  0.00  0.00    +0.000 A 
ATOM     13  S   UNL     1       6.149   5.304  19.132  0.00  0.00    +0.000 S 
ENDBRANCH   8   9
BRANCH   8  14
ATOM     14  C   UNL     1       3.382   3.371  19.520  0.00  0.00    +0.000 C 
BRANCH  14  16
ATOM     15  O   UNL     1       3.633   1.237  18.433  0.00  0.00    +0.000 OA
ATOM     16  C   UNL     1       4.023   2.025  19.284  0.00  0.00    +0.000 C 
BRANCH  16  17
ATOM     17  O   UNL     1       5.104   1.762  20.051  0.00  0.00    +0.000 OA
ATOM     18  H   UNL     1       5.964   1.769  19.589  0.00  0.00    +0.000 HD
ENDBRANCH  16  17
ENDBRANCH  14  16
ENDBRANCH   8  14
ENDBRANCH   2   8
ENDBRANCH   1   5
BRANCH   1  19
ATOM     19  C   UNL     1       1.091  10.285  18.652  0.00  0.00    +0.000 C 
BRANCH  19  20
ATOM     20  C   UNL     1      -0.283  10.851  18.912  0.00  0.00    +0.000 A 
ATOM     21  C   UNL     1      -1.291  10.762  17.947  0.00  0.00    +0.000 A 
ATOM     22  C   UNL     1      -2.539  11.336  18.190  0.00  0.00    +0.000 A 
ATOM     23  C   UNL     1      -2.770  12.002  19.388  0.00  0.00    +0.000 A 
ATOM     24  C   UNL     1      -1.778  12.122  20.376  0.00  0.00    +0.000 A 
ATOM     25  C   UNL     1      -0.538  11.512  20.120  0.00  0.00    +0.000 A 
BRANCH  24  26
ATOM     26  C   UNL     1      -2.024  12.875  21.622  0.00  0.00    +0.000 A 
ATOM     27  C   UNL     1      -3.272  12.859  22.262  0.00  0.00    +0.000 A 
ATOM     28  C   UNL     1      -3.490  13.579  23.437  0.00  0.00    +0.000 A 
ATOM     29  C   UNL     1      -2.461  14.338  24.008  0.00  0.00    +0.000 A 
ATOM     30  C   UNL     1      -1.207  14.351  23.385  0.00  0.00    +0.000 A 
ATOM     31  C   UNL     1      -0.995  13.626  22.217  0.00  0.00    +0.000 A 
BRANCH  29  32
ATOM     32  C   UNL     1      -2.692  15.126  25.269  0.00  0.00    +0.000 C 
ATOM     33  F   UNL     1      -1.706  16.028  25.531  0.00  0.00    +0.000 F 
ATOM     34  F   UNL     1      -3.851  15.838  25.233  0.00  0.00    +0.000 F 
ATOM     35  F   UNL     1      -2.773  14.330  26.371  0.00  0.00    +0.000 F 
ENDBRANCH  29  32
ENDBRANCH  24  26
ENDBRANCH  19  20
ENDBRANCH   1  19
TORSDOF 10
ENDMDL
MODEL 7
REMARK VINA RESULT:      -8.1      6.777      8.363
REMARK  Name = 
REMARK  10 active torsions:
REMARK  status: ('A' for Active; 'I' for Inactive)
REMARK    1  A    between atoms: C_2  and  O_3
REMARK    2  A    between atoms: C_2  and  C_4
REMARK    3  A    between atoms: C_4  and  C_5
REMARK    4  A    between atoms: C_5  and  C_6
REMARK    5  A    between atoms: C_5  and  C_30
REMARK    6  A    between atoms: C_9  and  O_10
REMARK    7  A    between atoms: O_10  and  C_11
REMARK    8  A    between atoms: C_11  and  C_12
REMARK    9  A    between atoms: C_16  and  C_17
REMARK   10  A    between atoms: C_20  and  C_21
REMARK                            x       y       z     vdW  Elec       q    Type
REMARK                         _______ _______ _______ _____ _____    ______ ____
ROOT
ATOM      1  O   UNL     1       0.899   9.855  19.262  0.00  0.00    +0.000 OA
ENDROOT
BRANCH   1   5
ATOM      2  C   UNL     1       3.379   6.624  18.361  0.00  0.00    +0.000 A 
ATOM      3  C   UNL     1       3.123   7.651  17.443  0.00  0.00    +0.000 A 
ATOM      4  C   UNL     1       2.266   8.700  17.773  0.00  0.00    +0.000 A 
ATOM      5  C   UNL     1       1.634   8.730  19.014  0.00  0.00    +0.000 A 
ATOM      6  C   UNL     1       1.832   7.680  19.911  0.00  0.00    +0.000 A 
ATOM      7  C   UNL     1       2.681   6.621  19.578  0.00  0.00    +0.000 A 
BRANCH   2   8
ATOM      8  C   UNL     1       4.479   5.596  18.115  0.00  0.00    +0.000 C 
BRANCH   8   9
ATOM      9  C   UNL     1       3.941   4.166  18.194  0.00  0.00    +0.000 A 
ATOM     10  C   UNL     1       3.041   3.555  17.335  0.00  0.00    +0.000 A 
ATOM     11  C   UNL     1       2.785   2.193  17.675  0.00  0.00    +0.000 A 
ATOM     12  C   UNL     1       3.487   1.800  18.788  0.00  0.00    +0.000 A 
ATOM     13  S   UNL     1       4.432   3.067  19.426  0.00  0.00    +0.000 S 
ENDBRANCH   8   9
BRANCH   8  14
ATOM     14  C   UNL     1       5.212   5.900  16.793  0.00  0.00    +0.000 C 
BRANCH  14  16
ATOM     15  O   UNL     1       7.078   7.408  16.994  0.00  0.00    +0.000 OA
ATOM     16  C   UNL     1       6.671   6.255  16.941  0.00  0.00    +0.000 C 
BRANCH  16  17
ATOM     17  O   UNL     1       7.507   5.202  17.064  0.00  0.00    +0.000 OA
ATOM     18  H   UNL     1       7.703   4.717  16.239  0.00  0.00    +0.000 HD
ENDBRANCH  16  17
ENDBRANCH  14  16
ENDBRANCH   8  14
ENDBRANCH   2   8
ENDBRANCH   1   5
BRANCH   1  19
ATOM     19  C   UNL     1       0.175  10.370  18.147  0.00  0.00    +0.000 C 
BRANCH  19  20
ATOM     20  C   UNL     1      -1.112  10.982  18.641  0.00  0.00    +0.000 A 
ATOM     21  C   UNL     1      -2.269  10.953  17.855  0.00  0.00    +0.000 A 
ATOM     22  C   UNL     1      -3.434  11.567  18.312  0.00  0.00    +0.000 A 
ATOM     23  C   UNL     1      -3.437  12.214  19.542  0.00  0.00    +0.000 A 
ATOM     24  C   UNL     1      -2.291  12.273  20.353  0.00  0.00    +0.000 A 
ATOM     25  C   UNL     1      -1.137  11.624  19.885  0.00  0.00    +0.000 A 
BRANCH  24  26
ATOM     26  C   UNL     1      -2.296  13.007  21.635  0.00  0.00    +0.000 A 
ATOM     27  C   UNL     1      -3.490  13.329  22.298  0.00  0.00    +0.000 A 
ATOM     28  C   UNL     1      -3.479  14.025  23.507  0.00  0.00    +0.000 A 
ATOM     29  C   UNL     1      -2.269  14.420  24.090  0.00  0.00    +0.000 A 
ATOM     30  C   UNL     1      -1.071  14.092  23.444  0.00  0.00    +0.000 A 
ATOM     31  C   UNL     1      -1.088  13.393  22.241  0.00  0.00    +0.000 A 
BRANCH  29  32
ATOM     32  C   UNL     1      -2.250  15.181  25.387  0.00  0.00    +0.000 C 
ATOM     33  F   UNL     1      -2.981  14.590  26.373  0.00  0.00    +0.000 F 
ATOM     34  F   UNL     1      -0.993  15.325  25.888  0.00  0.00    +0.000 F 
ATOM     35  F   UNL     1      -2.750  16.442  25.258  0.00  0.00    +0.000 F 
ENDBRANCH  29  32
ENDBRANCH  24  26
ENDBRANCH  19  20
ENDBRANCH   1  19
TORSDOF 10
ENDMDL
MODEL 8
REMARK VINA RESULT:      -8.0      5.525      6.614
REMARK  Name = 
REMARK  10 active torsions:
REMARK  status: ('A' for Active; 'I' for Inactive)
REMARK    1  A    between atoms: C_2  and  O_3
REMARK    2  A    between atoms: C_2  and  C_4
REMARK    3  A    between atoms: C_4  and  C_5
REMARK    4  A    between atoms: C_5  and  C_6
REMARK    5  A    between atoms: C_5  and  C_30
REMARK    6  A    between atoms: C_9  and  O_10
REMARK    7  A    between atoms: O_10  and  C_11
REMARK    8  A    between atoms: C_11  and  C_12
REMARK    9  A    between atoms: C_16  and  C_17
REMARK   10  A    between atoms: C_20  and  C_21
REMARK                            x       y       z     vdW  Elec       q    Type
REMARK                         _______ _______ _______ _____ _____    ______ ____
ROOT
ATOM      1  O   UNL     1       0.653  10.976  18.792  0.00  0.00    +0.000 OA
ENDROOT
BRANCH   1   5
ATOM      2  C   UNL     1       2.388   7.221  19.331  0.00  0.00    +0.000 A 
ATOM      3  C   UNL     1       2.409   7.886  18.097  0.00  0.00    +0.000 A 
ATOM      4  C   UNL     1       1.794   9.129  17.952  0.00  0.00    +0.000 A 
ATOM      5  C   UNL     1       1.128   9.716  19.026  0.00  0.00    +0.000 A 
ATOM      6  C   UNL     1       1.046   9.033  20.239  0.00  0.00    +0.000 A 
ATOM      7  C   UNL     1       1.652   7.782  20.385  0.00  0.00    +0.000 A 
BRANCH   2   8
ATOM      8  C   UNL     1       3.241   5.980  19.577  0.00  0.00    +0.000 C 
BRANCH   8   9
ATOM      9  C   UNL     1       2.379   4.725  19.731  0.00  0.00    +0.000 A 
ATOM     10  C   UNL     1       1.673   4.061  18.740  0.00  0.00    +0.000 A 
ATOM     11  C   UNL     1       1.004   2.895  19.220  0.00  0.00    +0.000 A 
ATOM     12  C   UNL     1       1.209   2.702  20.565  0.00  0.00    +0.000 A 
ATOM     13  S   UNL     1       2.183   3.926  21.244  0.00  0.00    +0.000 S 
ENDBRANCH   8   9
BRANCH   8  14
ATOM     14  C   UNL     1       4.322   5.847  18.486  0.00  0.00    +0.000 C 
BRANCH  14  16
ATOM     15  O   UNL     1       6.273   5.064  19.661  0.00  0.00    +0.000 OA
ATOM     16  C   UNL     1       5.426   4.866  18.800  0.00  0.00    +0.000 C 
BRANCH  16  17
ATOM     17  O   UNL     1       5.388   3.716  18.094  0.00  0.00    +0.000 OA
ATOM     18  H   UNL     1       4.821   3.724  17.299  0.00  0.00    +0.000 HD
ENDBRANCH  16  17
ENDBRANCH  14  16
ENDBRANCH   8  14
ENDBRANCH   2   8
ENDBRANCH   1   5
BRANCH   1  19
ATOM     19  C   UNL     1       0.582  11.824  19.936  0.00  0.00    +0.000 C 
BRANCH  19  20
ATOM     20  C   UNL     1       1.131  13.181  19.571  0.00  0.00    +0.000 A 
ATOM     21  C   UNL     1       0.275  14.230  19.220  0.00  0.00    +0.000 A 
ATOM     22  C   UNL     1       0.806  15.462  18.839  0.00  0.00    +0.000 A 
ATOM     23  C   UNL     1       2.184  15.637  18.802  0.00  0.00    +0.000 A 
ATOM     24  C   UNL     1       3.075  14.603  19.137  0.00  0.00    +0.000 A 
ATOM     25  C   UNL     1       2.516  13.380  19.543  0.00  0.00    +0.000 A 
BRANCH  24  26
ATOM     26  C   UNL     1       4.537  14.790  19.044  0.00  0.00    +0.000 A 
ATOM     27  C   UNL     1       5.228  14.631  17.834  0.00  0.00    +0.000 A 
ATOM     28  C   UNL     1       6.610  14.808  17.763  0.00  0.00    +0.000 A 
ATOM     29  C   UNL     1       7.343  15.150  18.906  0.00  0.00    +0.000 A 
ATOM     30  C   UNL     1       6.662  15.325  20.117  0.00  0.00    +0.000 A 
ATOM     31  C   UNL     1       5.283  15.153  20.179  0.00  0.00    +0.000 A 
BRANCH  29  32
ATOM     32  C   UNL     1       8.835  15.331  18.840  0.00  0.00    +0.000 C 
ATOM     33  F   UNL     1       9.274  15.775  17.629  0.00  0.00    +0.000 F 
ATOM     34  F   UNL     1       9.292  16.228  19.755  0.00  0.00    +0.000 F 
ATOM     35  F   UNL     1       9.510  14.172  19.079  0.00  0.00    +0.000 F 
ENDBRANCH  29  32
ENDBRANCH  24  26
ENDBRANCH  19  20
ENDBRANCH   1  19
TORSDOF 10
ENDMDL
MODEL 9
REMARK VINA RESULT:      -8.0      7.784      9.740
REMARK  Name = 
REMARK  10 active torsions:
REMARK  status: ('A' for Active; 'I' for Inactive)
REMARK    1  A    between atoms: C_2  and  O_3
REMARK    2  A    between atoms: C_2  and  C_4
REMARK    3  A    between atoms: C_4  and  C_5
REMARK    4  A    between atoms: C_5  and  C_6
REMARK    5  A    between atoms: C_5  and  C_30
REMARK    6  A    between atoms: C_9  and  O_10
REMARK    7  A    between atoms: O_10  and  C_11
REMARK    8  A    between atoms: C_11  and  C_12
REMARK    9  A    between atoms: C_16  and  C_17
REMARK   10  A    between atoms: C_20  and  C_21
REMARK                            x       y       z     vdW  Elec       q    Type
REMARK                         _______ _______ _______ _____ _____    ______ ____
ROOT
ATOM      1  O   UNL     1       0.942   9.020  20.288  0.00  0.00    +0.000 OA
ENDROOT
BRANCH   1   5
ATOM      2  C   UNL     1       3.003   5.732  18.757  0.00  0.00    +0.000 A 
ATOM      3  C   UNL     1       2.431   5.728  20.037  0.00  0.00    +0.000 A 
ATOM      4  C   UNL     1       1.773   6.857  20.522  0.00  0.00    +0.000 A 
ATOM      5  C   UNL     1       1.696   8.014  19.749  0.00  0.00    +0.000 A 
ATOM      6  C   UNL     1       2.317   8.050  18.501  0.00  0.00    +0.000 A 
ATOM      7  C   UNL     1       2.987   6.923  18.016  0.00  0.00    +0.000 A 
BRANCH   2   8
ATOM      8  C   UNL     1       3.523   4.447  18.117  0.00  0.00    +0.000 C 
BRANCH   8   9
ATOM      9  C   UNL     1       5.002   4.564  17.742  0.00  0.00    +0.000 A 
ATOM     10  C   UNL     1       6.056   4.915  18.571  0.00  0.00    +0.000 A 
ATOM     11  C   UNL     1       7.319   4.884  17.908  0.00  0.00    +0.000 A 
ATOM     12  C   UNL     1       7.198   4.520  16.588  0.00  0.00    +0.000 A 
ATOM     13  S   UNL     1       5.575   4.235  16.152  0.00  0.00    +0.000 S 
ENDBRANCH   8   9
BRANCH   8  14
ATOM     14  C   UNL     1       3.215   3.236  19.020  0.00  0.00    +0.000 C 
BRANCH  14  16
ATOM     15  O   UNL     1       3.843   0.966  18.519  0.00  0.00    +0.000 OA
ATOM     16  C   UNL     1       3.104   1.916  18.296  0.00  0.00    +0.000 C 
BRANCH  16  17
ATOM     17  O   UNL     1       2.091   1.832  17.408  0.00  0.00    +0.000 OA
ATOM     18  H   UNL     1       1.320   2.404  17.588  0.00  0.00    +0.000 HD
ENDBRANCH  16  17
ENDBRANCH  14  16
ENDBRANCH   8  14
ENDBRANCH   2   8
ENDBRANCH   1   5
BRANCH   1  19
ATOM     19  C   UNL     1       0.975  10.255  19.576  0.00  0.00    +0.000 C 
BRANCH  19  20
ATOM     20  C   UNL     1      -0.407  10.548  19.047  0.00  0.00    +0.000 A 
ATOM     21  C   UNL     1      -0.821  10.054  17.805  0.00  0.00    +0.000 A 
ATOM     22  C   UNL     1      -2.085  10.378  17.314  0.00  0.00    +0.000 A 
ATOM     23  C   UNL     1      -2.924  11.200  18.057  0.00  0.00    +0.000 A 
ATOM     24  C   UNL     1      -2.539  11.725  19.303  0.00  0.00    +0.000 A 
ATOM     25  C   UNL     1      -1.272  11.362  19.789  0.00  0.00    +0.000 A 
BRANCH  24  26
ATOM     26  C   UNL     1      -3.422  12.636  20.057  0.00  0.00    +0.000 A 
ATOM     27  C   UNL     1      -4.815  12.621  19.891  0.00  0.00    +0.000 A 
ATOM     28  C   UNL     1      -5.637  13.492  20.609  0.00  0.00    +0.000 A 
ATOM     29  C   UNL     1      -5.086  14.404  21.516  0.00  0.00    +0.000 A 
ATOM     30  C   UNL     1      -3.698  14.418  21.701  0.00  0.00    +0.000 A 
ATOM     31  C   UNL     1      -2.885  13.544  20.986  0.00  0.00    +0.000 A 
BRANCH  29  32
ATOM     32  C   UNL     1      -5.965  15.353  22.286  0.00  0.00    +0.000 C 
ATOM     33  F   UNL     1      -5.785  15.285  23.634  0.00  0.00    +0.000 F 
ATOM     34  F   UNL     1      -5.751  16.653  21.945  0.00  0.00    +0.000 F 
ATOM     35  F   UNL     1      -7.290  15.121  22.073  0.00  0.00    +0.000 F 
ENDBRANCH  29  32
ENDBRANCH  24  26
ENDBRANCH  19  20
ENDBRANCH   1  19
TORSDOF 10
ENDMDL
