MODEL 1
REMARK VINA RESULT:      -7.3      0.000      0.000
REMARK  Name = 
REMARK  8 active torsions:
REMARK  status: ('A' for Active; 'I' for Inactive)
REMARK    1  A    between atoms: C_1  and  C_2
REMARK    2  A    between atoms: C_2  and  C_3
REMARK    3  A    between atoms: C_6  and  C_7
REMARK    4  A    between atoms: C_7  and  N_8
REMARK    5  A    between atoms: C_9  and  C_11
REMARK    6  A    between atoms: C_14  and  C_15
REMARK    7  A    between atoms: C_16  and  C_17
REMARK    8  A    between atoms: C_17  and  O_18
REMARK                            x       y       z     vdW  Elec       q    Type
REMARK                         _______ _______ _______ _____ _____    ______ ____
ROOT
ATOM      1  N   UNL     1       5.985   4.290  15.144  0.00  0.00    +0.000 N 
ATOM      2  C   UNL     1       5.304   5.355  15.697  0.00  0.00    +0.000 C 
ATOM      3  O   UNL     1       5.302   6.482  15.221  0.00  0.00    +0.000 OA
ATOM      4  H   UNL     1       6.171   3.479  15.720  0.00  0.00    +0.000 HD
ENDROOT
BRANCH   2   5
ATOM      5  C   UNL     1       4.557   5.069  16.958  0.00  0.00    +0.000 A 
ATOM      6  C   UNL     1       4.221   6.090  17.851  0.00  0.00    +0.000 A 
ATOM      7  C   UNL     1       3.554   5.785  19.040  0.00  0.00    +0.000 A 
ATOM      8  C   UNL     1       3.190   4.464  19.347  0.00  0.00    +0.000 A 
ATOM      9  C   UNL     1       2.498   4.181  20.654  0.00  0.00    +0.000 C 
ATOM     10  C   UNL     1       3.484   3.433  18.427  0.00  0.00    +0.000 A 
ATOM     11  C   UNL     1       4.212   3.745  17.261  0.00  0.00    +0.000 A 
BRANCH  10  12
ATOM     12  C   UNL     1       3.033   2.009  18.655  0.00  0.00    +0.000 C 
BRANCH  12  13
ATOM     13  O   UNL     1       4.117   1.106  18.542  0.00  0.00    +0.000 OA
ATOM     14  H   UNL     1       4.888   1.623  18.253  0.00  0.00    +0.000 HD
ENDBRANCH  12  13
ENDBRANCH  10  12
ENDBRANCH   2   5
BRANCH   1  15
ATOM     15  C   UNL     1       6.767   4.431  13.936  0.00  0.00    +0.000 C 
BRANCH  15  19
ATOM     16  C   UNL     1       4.522   3.051  11.532  0.00  0.00    +0.000 A 
ATOM     17  N   UNL     1       5.514   2.251  11.199  0.00  0.00    +0.000 NA
ATOM     18  C   UNL     1       6.530   2.621  12.042  0.00  0.00    +0.000 A 
ATOM     19  C   UNL     1       6.117   3.645  12.863  0.00  0.00    +0.000 A 
ATOM     20  O   UNL     1       4.815   3.934  12.539  0.00  0.00    +0.000 OA
BRANCH  16  22
ATOM     21  C   UNL     1       3.180   3.970   9.669  0.00  0.00    +0.000 C 
ATOM     22  C   UNL     1       3.167   3.127  10.932  0.00  0.00    +0.000 C 
ENDBRANCH  16  22
ENDBRANCH  15  19
ENDBRANCH   1  15
TORSDOF 6
ENDMDL
MODEL 2
REMARK VINA RESULT:      -7.3      2.131      2.845
REMARK  Name = 
REMARK  8 active torsions:
REMARK  status: ('A' for Active; 'I' for Inactive)
REMARK    1  A    between atoms: C_1  and  C_2
REMARK    2  A    between atoms: C_2  and  C_3
REMARK    3  A    between atoms: C_6  and  C_7
REMARK    4  A    between atoms: C_7  and  N_8
REMARK    5  A    between atoms: C_9  and  C_11
REMARK    6  A    between atoms: C_14  and  C_15
REMARK    7  A    between atoms: C_16  and  C_17
REMARK    8  A    between atoms: C_17  and  O_18
REMARK                            x       y       z     vdW  Elec       q    Type
REMARK                         _______ _______ _______ _____ _____    ______ ____
ROOT
ATOM      1  N   UNL     1       5.828   4.699  16.259  0.00  0.00    +0.000 N 
ATOM      2  C   UNL     1       5.772   4.372  17.599  0.00  0.00    +0.000 C 
ATOM      3  O   UNL     1       6.741   4.394  18.345  0.00  0.00    +0.000 OA
ATOM      4  H   UNL     1       5.075   4.398  15.653  0.00  0.00    +0.000 HD
ENDROOT
BRANCH   2   5
ATOM      5  C   UNL     1       4.434   3.955  18.114  0.00  0.00    +0.000 A 
ATOM      6  C   UNL     1       3.780   2.827  17.610  0.00  0.00    +0.000 A 
ATOM      7  C   UNL     1       2.513   2.484  18.087  0.00  0.00    +0.000 A 
ATOM      8  C   UNL     1       1.888   3.244  19.089  0.00  0.00    +0.000 A 
ATOM      9  C   UNL     1       0.508   2.851  19.550  0.00  0.00    +0.000 C 
ATOM     10  C   UNL     1       2.562   4.357  19.636  0.00  0.00    +0.000 A 
ATOM     11  C   UNL     1       3.813   4.728  19.103  0.00  0.00    +0.000 A 
BRANCH  10  12
ATOM     12  C   UNL     1       1.984   5.154  20.782  0.00  0.00    +0.000 C 
BRANCH  12  13
ATOM     13  O   UNL     1       2.261   6.535  20.635  0.00  0.00    +0.000 OA
ATOM     14  H   UNL     1       3.227   6.636  20.677  0.00  0.00    +0.000 HD
ENDBRANCH  12  13
ENDBRANCH  10  12
ENDBRANCH   2   5
BRANCH   1  15
ATOM     15  C   UNL     1       7.064   5.098  15.624  0.00  0.00    +0.000 C 
BRANCH  15  19
ATOM     16  C   UNL     1       6.329   3.573  12.484  0.00  0.00    +0.000 A 
ATOM     17  N   UNL     1       7.223   4.398  11.977  0.00  0.00    +0.000 NA
ATOM     18  C   UNL     1       7.661   5.113  13.062  0.00  0.00    +0.000 A 
ATOM     19  C   UNL     1       7.010   4.696  14.200  0.00  0.00    +0.000 A 
ATOM     20  O   UNL     1       6.140   3.698  13.837  0.00  0.00    +0.000 OA
BRANCH  16  22
ATOM     21  C   UNL     1       4.205   3.197  11.274  0.00  0.00    +0.000 C 
ATOM     22  C   UNL     1       5.498   2.573  11.770  0.00  0.00    +0.000 C 
ENDBRANCH  16  22
ENDBRANCH  15  19
ENDBRANCH   1  15
TORSDOF 6
ENDMDL
MODEL 3
REMARK VINA RESULT:      -7.3      1.241      1.617
REMARK  Name = 
REMARK  8 active torsions:
REMARK  status: ('A' for Active; 'I' for Inactive)
REMARK    1  A    between atoms: C_1  and  C_2
REMARK    2  A    between atoms: C_2  and  C_3
REMARK    3  A    between atoms: C_6  and  C_7
REMARK    4  A    between atoms: C_7  and  N_8
REMARK    5  A    between atoms: C_9  and  C_11
REMARK    6  A    between atoms: C_14  and  C_15
REMARK    7  A    between atoms: C_16  and  C_17
REMARK    8  A    between atoms: C_17  and  O_18
REMARK                            x       y       z     vdW  Elec       q    Type
REMARK                         _______ _______ _______ _____ _____    ______ ____
ROOT
ATOM      1  N   UNL     1       6.300   4.847  16.224  0.00  0.00    +0.000 N 
ATOM      2  C   UNL     1       5.278   5.759  16.393  0.00  0.00    +0.000 C 
ATOM      3  O   UNL     1       5.271   6.874  15.889  0.00  0.00    +0.000 OA
ATOM      4  H   UNL     1       6.376   4.075  16.874  0.00  0.00    +0.000 HD
ENDROOT
BRANCH   2   5
ATOM      5  C   UNL     1       4.147   5.319  17.263  0.00  0.00    +0.000 A 
ATOM      6  C   UNL     1       3.443   6.230  18.056  0.00  0.00    +0.000 A 
ATOM      7  C   UNL     1       2.414   5.781  18.886  0.00  0.00    +0.000 A 
ATOM      8  C   UNL     1       2.053   4.424  18.923  0.00  0.00    +0.000 A 
ATOM      9  C   UNL     1       0.956   3.985  19.857  0.00  0.00    +0.000 C 
ATOM     10  C   UNL     1       2.728   3.506  18.090  0.00  0.00    +0.000 A 
ATOM     11  C   UNL     1       3.805   3.961  17.302  0.00  0.00    +0.000 A 
BRANCH  10  12
ATOM     12  C   UNL     1       2.322   2.053  18.012  0.00  0.00    +0.000 C 
BRANCH  12  13
ATOM     13  O   UNL     1       3.409   1.201  18.324  0.00  0.00    +0.000 OA
ATOM     14  H   UNL     1       3.901   1.055  17.498  0.00  0.00    +0.000 HD
ENDBRANCH  12  13
ENDBRANCH  10  12
ENDBRANCH   2   5
BRANCH   1  15
ATOM     15  C   UNL     1       7.466   5.151  15.426  0.00  0.00    +0.000 C 
BRANCH  15  19
ATOM     16  C   UNL     1       6.279   3.557  12.464  0.00  0.00    +0.000 A 
ATOM     17  N   UNL     1       7.106   4.350  11.814  0.00  0.00    +0.000 NA
ATOM     18  C   UNL     1       7.701   5.086  12.806  0.00  0.00    +0.000 A 
ATOM     19  C   UNL     1       7.208   4.712  14.035  0.00  0.00    +0.000 A 
ATOM     20  O   UNL     1       6.281   3.721  13.825  0.00  0.00    +0.000 OA
BRANCH  16  22
ATOM     21  C   UNL     1       4.165   3.232  11.221  0.00  0.00    +0.000 C 
ATOM     22  C   UNL     1       5.342   2.553  11.901  0.00  0.00    +0.000 C 
ENDBRANCH  16  22
ENDBRANCH  15  19
ENDBRANCH   1  15
TORSDOF 6
ENDMDL
MODEL 4
REMARK VINA RESULT:      -7.1      1.046      1.046
REMARK  Name = 
REMARK  8 active torsions:
REMARK  status: ('A' for Active; 'I' for Inactive)
REMARK    1  A    between atoms: C_1  and  C_2
REMARK    2  A    between atoms: C_2  and  C_3
REMARK    3  A    between atoms: C_6  and  C_7
REMARK    4  A    between atoms: C_7  and  N_8
REMARK    5  A    between atoms: C_9  and  C_11
REMARK    6  A    between atoms: C_14  and  C_15
REMARK    7  A    between atoms: C_16  and  C_17
REMARK    8  A    between atoms: C_17  and  O_18
REMARK                            x       y       z     vdW  Elec       q    Type
REMARK                         _______ _______ _______ _____ _____    ______ ____
ROOT
ATOM      1  N   UNL     1       5.645   4.657  14.957  0.00  0.00    +0.000 N 
ATOM      2  C   UNL     1       5.980   4.521  16.289  0.00  0.00    +0.000 C 
ATOM      3  O   UNL     1       7.109   4.262  16.683  0.00  0.00    +0.000 OA
ATOM      4  H   UNL     1       4.670   4.594  14.691  0.00  0.00    +0.000 HD
ENDROOT
BRANCH   2   5
ATOM      5  C   UNL     1       4.862   4.691  17.264  0.00  0.00    +0.000 A 
ATOM      6  C   UNL     1       4.770   5.826  18.074  0.00  0.00    +0.000 A 
ATOM      7  C   UNL     1       3.732   5.938  19.002  0.00  0.00    +0.000 A 
ATOM      8  C   UNL     1       2.756   4.935  19.121  0.00  0.00    +0.000 A 
ATOM      9  C   UNL     1       1.674   5.088  20.157  0.00  0.00    +0.000 C 
ATOM     10  C   UNL     1       2.816   3.807  18.274  0.00  0.00    +0.000 A 
ATOM     11  C   UNL     1       3.902   3.677  17.385  0.00  0.00    +0.000 A 
BRANCH  10  12
ATOM     12  C   UNL     1       1.744   2.743  18.287  0.00  0.00    +0.000 C 
BRANCH  12  13
ATOM     13  O   UNL     1       2.309   1.447  18.209  0.00  0.00    +0.000 OA
ATOM     14  H   UNL     1       3.066   1.504  17.602  0.00  0.00    +0.000 HD
ENDBRANCH  12  13
ENDBRANCH  10  12
ENDBRANCH   2   5
BRANCH   1  15
ATOM     15  C   UNL     1       6.625   4.497  13.906  0.00  0.00    +0.000 C 
BRANCH  15  19
ATOM     16  C   UNL     1       4.521   2.971  11.463  0.00  0.00    +0.000 A 
ATOM     17  N   UNL     1       5.531   2.158  11.232  0.00  0.00    +0.000 NA
ATOM     18  C   UNL     1       6.498   2.580  12.108  0.00  0.00    +0.000 A 
ATOM     19  C   UNL     1       6.038   3.647  12.845  0.00  0.00    +0.000 A 
ATOM     20  O   UNL     1       4.755   3.912  12.433  0.00  0.00    +0.000 OA
BRANCH  16  22
ATOM     21  C   UNL     1       3.121   4.173   9.815  0.00  0.00    +0.000 C 
ATOM     22  C   UNL     1       3.201   3.006  10.785  0.00  0.00    +0.000 C 
ENDBRANCH  16  22
ENDBRANCH  15  19
ENDBRANCH   1  15
TORSDOF 6
ENDMDL
MODEL 5
REMARK VINA RESULT:      -7.1      1.975      2.674
REMARK  Name = 
REMARK  8 active torsions:
REMARK  status: ('A' for Active; 'I' for Inactive)
REMARK    1  A    between atoms: C_1  and  C_2
REMARK    2  A    between atoms: C_2  and  C_3
REMARK    3  A    between atoms: C_6  and  C_7
REMARK    4  A    between atoms: C_7  and  N_8
REMARK    5  A    between atoms: C_9  and  C_11
REMARK    6  A    between atoms: C_14  and  C_15
REMARK    7  A    between atoms: C_16  and  C_17
REMARK    8  A    between atoms: C_17  and  O_18
REMARK                            x       y       z     vdW  Elec       q    Type
REMARK                         _______ _______ _______ _____ _____    ______ ____
ROOT
ATOM      1  N   UNL     1       5.718   4.661  16.168  0.00  0.00    +0.000 N 
ATOM      2  C   UNL     1       5.583   4.547  17.537  0.00  0.00    +0.000 C 
ATOM      3  O   UNL     1       6.478   4.797  18.332  0.00  0.00    +0.000 OA
ATOM      4  H   UNL     1       5.053   4.185  15.572  0.00  0.00    +0.000 HD
ENDROOT
BRANCH   2   5
ATOM      5  C   UNL     1       4.255   4.069  18.024  0.00  0.00    +0.000 A 
ATOM      6  C   UNL     1       3.320   3.506  17.150  0.00  0.00    +0.000 A 
ATOM      7  C   UNL     1       2.072   3.102  17.630  0.00  0.00    +0.000 A 
ATOM      8  C   UNL     1       1.744   3.229  18.990  0.00  0.00    +0.000 A 
ATOM      9  C   UNL     1       0.375   2.807  19.454  0.00  0.00    +0.000 C 
ATOM     10  C   UNL     1       2.700   3.754  19.886  0.00  0.00    +0.000 A 
ATOM     11  C   UNL     1       3.932   4.215  19.379  0.00  0.00    +0.000 A 
BRANCH  10  12
ATOM     12  C   UNL     1       2.443   3.826  21.374  0.00  0.00    +0.000 C 
BRANCH  12  13
ATOM     13  O   UNL     1       2.746   2.595  22.004  0.00  0.00    +0.000 OA
ATOM     14  H   UNL     1       3.244   2.805  22.812  0.00  0.00    +0.000 HD
ENDBRANCH  12  13
ENDBRANCH  10  12
ENDBRANCH   2   5
BRANCH   1  15
ATOM     15  C   UNL     1       6.957   5.091  15.560  0.00  0.00    +0.000 C 
BRANCH  15  19
ATOM     16  C   UNL     1       6.342   3.504  12.425  0.00  0.00    +0.000 A 
ATOM     17  N   UNL     1       7.252   4.320  11.935  0.00  0.00    +0.000 NA
ATOM     18  C   UNL     1       7.649   5.057  13.021  0.00  0.00    +0.000 A 
ATOM     19  C   UNL     1       6.956   4.661  14.142  0.00  0.00    +0.000 A 
ATOM     20  O   UNL     1       6.102   3.654  13.767  0.00  0.00    +0.000 OA
BRANCH  16  22
ATOM     21  C   UNL     1       6.435   1.421  11.094  0.00  0.00    +0.000 C 
ATOM     22  C   UNL     1       5.539   2.487  11.700  0.00  0.00    +0.000 C 
ENDBRANCH  16  22
ENDBRANCH  15  19
ENDBRANCH   1  15
TORSDOF 6
ENDMDL
MODEL 6
REMARK VINA RESULT:      -6.9      3.776      5.567
REMARK  Name = 
REMARK  8 active torsions:
REMARK  status: ('A' for Active; 'I' for Inactive)
REMARK    1  A    between atoms: C_1  and  C_2
REMARK    2  A    between atoms: C_2  and  C_3
REMARK    3  A    between atoms: C_6  and  C_7
REMARK    4  A    between atoms: C_7  and  N_8
REMARK    5  A    between atoms: C_9  and  C_11
REMARK    6  A    between atoms: C_14  and  C_15
REMARK    7  A    between atoms: C_16  and  C_17
REMARK    8  A    between atoms: C_17  and  O_18
REMARK                            x       y       z     vdW  Elec       q    Type
REMARK                         _______ _______ _______ _____ _____    ______ ____
ROOT
ATOM      1  N   UNL     1       3.871   5.533  18.242  0.00  0.00    +0.000 N 
ATOM      2  C   UNL     1       3.072   5.887  19.310  0.00  0.00    +0.000 C 
ATOM      3  O   UNL     1       2.904   5.183  20.297  0.00  0.00    +0.000 OA
ATOM      4  H   UNL     1       3.748   6.017  17.361  0.00  0.00    +0.000 HD
ENDROOT
BRANCH   2   5
ATOM      5  C   UNL     1       2.379   7.205  19.199  0.00  0.00    +0.000 A 
ATOM      6  C   UNL     1       2.351   7.912  17.994  0.00  0.00    +0.000 A 
ATOM      7  C   UNL     1       1.725   9.159  17.931  0.00  0.00    +0.000 A 
ATOM      8  C   UNL     1       1.098   9.711  19.060  0.00  0.00    +0.000 A 
ATOM      9  C   UNL     1       0.463  11.072  18.950  0.00  0.00    +0.000 C 
ATOM     10  C   UNL     1       1.081   8.982  20.269  0.00  0.00    +0.000 A 
ATOM     11  C   UNL     1       1.769   7.752  20.335  0.00  0.00    +0.000 A 
BRANCH  10  12
ATOM     12  C   UNL     1       0.340   9.477  21.489  0.00  0.00    +0.000 C 
BRANCH  12  13
ATOM     13  O   UNL     1      -0.612   8.526  21.929  0.00  0.00    +0.000 OA
ATOM     14  H   UNL     1      -1.488   8.936  21.832  0.00  0.00    +0.000 HD
ENDBRANCH  12  13
ENDBRANCH  10  12
ENDBRANCH   2   5
BRANCH   1  15
ATOM     15  C   UNL     1       4.582   4.275  18.208  0.00  0.00    +0.000 C 
BRANCH  15  19
ATOM     16  C   UNL     1       6.805   4.615  15.440  0.00  0.00    +0.000 A 
ATOM     17  N   UNL     1       7.769   4.668  16.336  0.00  0.00    +0.000 NA
ATOM     18  C   UNL     1       7.110   4.546  17.532  0.00  0.00    +0.000 A 
ATOM     19  C   UNL     1       5.757   4.425  17.319  0.00  0.00    +0.000 A 
ATOM     20  O   UNL     1       5.546   4.471  15.963  0.00  0.00    +0.000 OA
BRANCH  16  22
ATOM     21  C   UNL     1       6.044   3.695  13.273  0.00  0.00    +0.000 C 
ATOM     22  C   UNL     1       6.921   4.725  13.964  0.00  0.00    +0.000 C 
ENDBRANCH  16  22
ENDBRANCH  15  19
ENDBRANCH   1  15
TORSDOF 6
ENDMDL
MODEL 7
REMARK VINA RESULT:      -6.8      1.710      2.043
REMARK  Name = 
REMARK  8 active torsions:
REMARK  status: ('A' for Active; 'I' for Inactive)
REMARK    1  A    between atoms: C_1  and  C_2
REMARK    2  A    between atoms: C_2  and  C_3
REMARK    3  A    between atoms: C_6  and  C_7
REMARK    4  A    between atoms: C_7  and  N_8
REMARK    5  A    between atoms: C_9  and  C_11
REMARK    6  A    between atoms: C_14  and  C_15
REMARK    7  A    between atoms: C_16  and  C_17
REMARK    8  A    between atoms: C_17  and  O_18
REMARK                            x       y       z     vdW  Elec       q    Type
REMARK                         _______ _______ _______ _____ _____    ______ ____
ROOT
ATOM      1  N   UNL     1       6.116   4.828  16.151  0.00  0.00    +0.000 N 
ATOM      2  C   UNL     1       5.650   5.596  17.199  0.00  0.00    +0.000 C 
ATOM      3  O   UNL     1       6.169   6.645  17.557  0.00  0.00    +0.000 OA
ATOM      4  H   UNL     1       5.823   3.862  16.088  0.00  0.00    +0.000 HD
ENDROOT
BRANCH   2   5
ATOM      5  C   UNL     1       4.454   5.064  17.916  0.00  0.00    +0.000 A 
ATOM      6  C   UNL     1       3.182   5.607  17.711  0.00  0.00    +0.000 A 
ATOM      7  C   UNL     1       2.089   5.111  18.424  0.00  0.00    +0.000 A 
ATOM      8  C   UNL     1       2.239   4.053  19.335  0.00  0.00    +0.000 A 
ATOM      9  C   UNL     1       1.035   3.573  20.103  0.00  0.00    +0.000 C 
ATOM     10  C   UNL     1       3.512   3.469  19.514  0.00  0.00    +0.000 A 
ATOM     11  C   UNL     1       4.618   4.018  18.833  0.00  0.00    +0.000 A 
BRANCH  10  12
ATOM     12  C   UNL     1       3.719   2.266  20.405  0.00  0.00    +0.000 C 
BRANCH  12  13
ATOM     13  O   UNL     1       5.057   1.808  20.342  0.00  0.00    +0.000 OA
ATOM     14  H   UNL     1       5.133   1.264  19.540  0.00  0.00    +0.000 HD
ENDBRANCH  12  13
ENDBRANCH  10  12
ENDBRANCH   2   5
BRANCH   1  15
ATOM     15  C   UNL     1       7.280   5.213  15.384  0.00  0.00    +0.000 C 
BRANCH  15  19
ATOM     16  C   UNL     1       6.270   3.516  12.414  0.00  0.00    +0.000 A 
ATOM     17  N   UNL     1       7.159   4.264  11.793  0.00  0.00    +0.000 NA
ATOM     18  C   UNL     1       7.699   5.030  12.793  0.00  0.00    +0.000 A 
ATOM     19  C   UNL     1       7.112   4.720  13.998  0.00  0.00    +0.000 A 
ATOM     20  O   UNL     1       6.180   3.739  13.764  0.00  0.00    +0.000 OA
BRANCH  16  22
ATOM     21  C   UNL     1       6.132   1.391  11.155  0.00  0.00    +0.000 C 
ATOM     22  C   UNL     1       5.352   2.508  11.828  0.00  0.00    +0.000 C 
ENDBRANCH  16  22
ENDBRANCH  15  19
ENDBRANCH   1  15
TORSDOF 6
ENDMDL
MODEL 8
REMARK VINA RESULT:      -6.8      1.685      2.291
REMARK  Name = 
REMARK  8 active torsions:
REMARK  status: ('A' for Active; 'I' for Inactive)
REMARK    1  A    between atoms: C_1  and  C_2
REMARK    2  A    between atoms: C_2  and  C_3
REMARK    3  A    between atoms: C_6  and  C_7
REMARK    4  A    between atoms: C_7  and  N_8
REMARK    5  A    between atoms: C_9  and  C_11
REMARK    6  A    between atoms: C_14  and  C_15
REMARK    7  A    between atoms: C_16  and  C_17
REMARK    8  A    between atoms: C_17  and  O_18
REMARK                            x       y       z     vdW  Elec       q    Type
REMARK                         _______ _______ _______ _____ _____    ______ ____
ROOT
ATOM      1  N   UNL     1       5.512   4.057  15.692  0.00  0.00    +0.000 N 
ATOM      2  C   UNL     1       4.761   5.005  16.357  0.00  0.00    +0.000 C 
ATOM      3  O   UNL     1       4.910   6.211  16.216  0.00  0.00    +0.000 OA
ATOM      4  H   UNL     1       5.531   3.111  16.052  0.00  0.00    +0.000 HD
ENDROOT
BRANCH   2   5
ATOM      5  C   UNL     1       3.734   4.479  17.304  0.00  0.00    +0.000 A 
ATOM      6  C   UNL     1       3.245   3.173  17.194  0.00  0.00    +0.000 A 
ATOM      7  C   UNL     1       2.259   2.722  18.074  0.00  0.00    +0.000 A 
ATOM      8  C   UNL     1       1.760   3.553  19.090  0.00  0.00    +0.000 A 
ATOM      9  C   UNL     1       0.674   3.031  19.994  0.00  0.00    +0.000 C 
ATOM     10  C   UNL     1       2.281   4.857  19.236  0.00  0.00    +0.000 A 
ATOM     11  C   UNL     1       3.233   5.321  18.304  0.00  0.00    +0.000 A 
BRANCH  10  12
ATOM     12  C   UNL     1       1.856   5.763  20.367  0.00  0.00    +0.000 C 
BRANCH  12  13
ATOM     13  O   UNL     1       2.616   6.958  20.378  0.00  0.00    +0.000 OA
ATOM     14  H   UNL     1       1.987   7.694  20.293  0.00  0.00    +0.000 HD
ENDBRANCH  12  13
ENDBRANCH  10  12
ENDBRANCH   2   5
BRANCH   1  15
ATOM     15  C   UNL     1       6.556   4.427  14.764  0.00  0.00    +0.000 C 
BRANCH  15  19
ATOM     16  C   UNL     1       4.869   3.286  11.835  0.00  0.00    +0.000 A 
ATOM     17  N   UNL     1       6.070   3.131  11.314  0.00  0.00    +0.000 NA
ATOM     18  C   UNL     1       6.915   3.527  12.318  0.00  0.00    +0.000 A 
ATOM     19  C   UNL     1       6.193   3.914  13.422  0.00  0.00    +0.000 A 
ATOM     20  O   UNL     1       4.862   3.764  13.120  0.00  0.00    +0.000 OA
BRANCH  16  22
ATOM     21  C   UNL     1       3.330   3.994  10.033  0.00  0.00    +0.000 C 
ATOM     22  C   UNL     1       3.554   3.039  11.193  0.00  0.00    +0.000 C 
ENDBRANCH  16  22
ENDBRANCH  15  19
ENDBRANCH   1  15
TORSDOF 6
ENDMDL
MODEL 9
REMARK VINA RESULT:      -6.7      1.427      2.395
REMARK  Name = 
REMARK  8 active torsions:
REMARK  status: ('A' for Active; 'I' for Inactive)
REMARK    1  A    between atoms: C_1  and  C_2
REMARK    2  A    between atoms: C_2  and  C_3
REMARK    3  A    between atoms: C_6  and  C_7
REMARK    4  A    between atoms: C_7  and  N_8
REMARK    5  A    between atoms: C_9  and  C_11
REMARK    6  A    between atoms: C_14  and  C_15
REMARK    7  A    between atoms: C_16  and  C_17
REMARK    8  A    between atoms: C_17  and  O_18
REMARK                            x       y       z     vdW  Elec       q    Type
REMARK                         _______ _______ _______ _____ _____    ______ ____
ROOT
ATOM      1  N   UNL     1       5.449   4.474  15.079  0.00  0.00    +0.000 N 
ATOM      2  C   UNL     1       5.779   4.340  16.413  0.00  0.00    +0.000 C 
ATOM      3  O   UNL     1       6.924   4.199  16.819  0.00  0.00    +0.000 OA
ATOM      4  H   UNL     1       4.491   4.309  14.796  0.00  0.00    +0.000 HD
ENDROOT
BRANCH   2   5
ATOM      5  C   UNL     1       4.636   4.357  17.373  0.00  0.00    +0.000 A 
ATOM      6  C   UNL     1       4.097   3.171  17.881  0.00  0.00    +0.000 A 
ATOM      7  C   UNL     1       3.004   3.219  18.750  0.00  0.00    +0.000 A 
ATOM      8  C   UNL     1       2.447   4.446  19.146  0.00  0.00    +0.000 A 
ATOM      9  C   UNL     1       1.251   4.443  20.061  0.00  0.00    +0.000 C 
ATOM     10  C   UNL     1       3.016   5.648  18.674  0.00  0.00    +0.000 A 
ATOM     11  C   UNL     1       4.079   5.585  17.750  0.00  0.00    +0.000 A 
BRANCH  10  12
ATOM     12  C   UNL     1       2.524   6.999  19.139  0.00  0.00    +0.000 C 
BRANCH  12  13
ATOM     13  O   UNL     1       2.028   7.763  18.055  0.00  0.00    +0.000 OA
ATOM     14  H   UNL     1       2.797   8.048  17.534  0.00  0.00    +0.000 HD
ENDBRANCH  12  13
ENDBRANCH  10  12
ENDBRANCH   2   5
BRANCH   1  15
ATOM     15  C   UNL     1       6.454   4.452  14.041  0.00  0.00    +0.000 C 
BRANCH  15  19
ATOM     16  C   UNL     1       4.492   2.994  11.443  0.00  0.00    +0.000 A 
ATOM     17  N   UNL     1       5.553   2.257  11.180  0.00  0.00    +0.000 NA
ATOM     18  C   UNL     1       6.475   2.668  12.107  0.00  0.00    +0.000 A 
ATOM     19  C   UNL     1       5.939   3.651  12.907  0.00  0.00    +0.000 A 
ATOM     20  O   UNL     1       4.652   3.873  12.483  0.00  0.00    +0.000 OA
BRANCH  16  22
ATOM     21  C   UNL     1       3.106   4.170   9.765  0.00  0.00    +0.000 C 
ATOM     22  C   UNL     1       3.187   3.005  10.736  0.00  0.00    +0.000 C 
ENDBRANCH  16  22
ENDBRANCH  15  19
ENDBRANCH   1  15
TORSDOF 6
ENDMDL
