MODEL 1
REMARK VINA RESULT:      -8.4      0.000      0.000
REMARK  Name = 
REMARK  9 active torsions:
REMARK  status: ('A' for Active; 'I' for Inactive)
REMARK    1  A    between atoms: C_2  and  C_3
REMARK    2  A    between atoms: C_3  and  C_4
REMARK    3  A    between atoms: C_7  and  N_8
REMARK    4  A    between atoms: N_11  and  C_12
REMARK    5  A    between atoms: C_19  and  C_20
REMARK    6  A    between atoms: C_20  and  O_21
REMARK    7  A    between atoms: N_23  and  C_24
REMARK    8  A    between atoms: C_24  and  C_25
REMARK    9  A    between atoms: C_28  and  C_29
REMARK                            x       y       z     vdW  Elec       q    Type
REMARK                         _______ _______ _______ _____ _____    ______ ____
ROOT
ATOM      1  C   UNL     1       4.348   5.200  19.149  0.00  0.00    +0.000 C 
ATOM      2  C   UNL     1       3.719   6.330  18.378  0.00  0.00    +0.000 C 
ATOM      3  C   UNL     1       2.596   6.963  18.752  0.00  0.00    +0.000 C 
ATOM      4  C   UNL     1       1.795   6.524  19.933  0.00  0.00    +0.000 C 
ATOM      5  C   UNL     1       2.231   5.113  20.418  0.00  0.00    +0.000 C 
ATOM      6  O   UNL     1       3.660   4.913  20.387  0.00  0.00    +0.000 OA
ENDROOT
BRANCH   4   7
ATOM      7  N   UNL     1       1.885   7.575  20.936  0.00  0.00    +0.000 N 
ATOM      8  C   UNL     1       0.852   8.476  21.043  0.00  0.00    +0.000 C 
ATOM      9  O   UNL     1      -0.162   8.413  20.358  0.00  0.00    +0.000 OA
ATOM     10  N   UNL     1       1.144   9.483  21.940  0.00  0.00    +0.000 N 
ATOM     11  H   UNL     1       2.407   7.411  21.787  0.00  0.00    +0.000 HD
ATOM     12  H   UNL     1       2.119   9.757  21.946  0.00  0.00    +0.000 HD
BRANCH  10  13
ATOM     13  C   UNL     1       0.233  10.543  22.168  0.00  0.00    +0.000 A 
ATOM     14  C   UNL     1      -0.817  10.435  23.083  0.00  0.00    +0.000 A 
ATOM     15  C   UNL     1      -1.712  11.494  23.242  0.00  0.00    +0.000 A 
ATOM     16  C   UNL     1      -1.570  12.656  22.483  0.00  0.00    +0.000 A 
ATOM     17  C   UNL     1      -0.517  12.769  21.574  0.00  0.00    +0.000 A 
ATOM     18  C   UNL     1       0.387  11.722  21.440  0.00  0.00    +0.000 A 
ATOM     19  F   UNL     1       1.386  11.827  20.547  0.00  0.00    +0.000 F 
ENDBRANCH  10  13
ENDBRANCH   4   7
BRANCH   1  20
ATOM     20  C   UNL     1       4.516   3.879  18.403  0.00  0.00    +0.000 C 
BRANCH  20  22
ATOM     21  O   UNL     1       3.993   3.920  16.038  0.00  0.00    +0.000 OA
ATOM     22  C   UNL     1       4.835   3.968  16.930  0.00  0.00    +0.000 C 
ATOM     23  N   UNL     1       6.166   4.078  16.618  0.00  0.00    +0.000 N 
ATOM     24  H   UNL     1       6.385   4.070  15.628  0.00  0.00    +0.000 HD
BRANCH  23  25
ATOM     25  C   UNL     1       7.227   4.254  17.580  0.00  0.00    +0.000 C 
BRANCH  25  26
ATOM     26  C   UNL     1       7.530   5.696  17.850  0.00  0.00    +0.000 A 
ATOM     27  C   UNL     1       8.183   6.069  19.028  0.00  0.00    +0.000 A 
ATOM     28  C   UNL     1       8.525   7.404  19.244  0.00  0.00    +0.000 A 
ATOM     29  C   UNL     1       8.251   8.400  18.291  0.00  0.00    +0.000 A 
ATOM     30  C   UNL     1       7.575   8.002  17.121  0.00  0.00    +0.000 A 
ATOM     31  C   UNL     1       7.213   6.672  16.904  0.00  0.00    +0.000 A 
BRANCH  29  32
ATOM     32  C   UNL     1       8.671   9.803  18.492  0.00  0.00    +0.000 A 
ATOM     33  C   UNL     1       8.303  10.812  17.583  0.00  0.00    +0.000 A 
ATOM     34  C   UNL     1       8.690  12.141  17.774  0.00  0.00    +0.000 A 
ATOM     35  C   UNL     1       9.439  12.495  18.888  0.00  0.00    +0.000 A 
ATOM     36  C   UNL     1       9.810  11.520  19.809  0.00  0.00    +0.000 A 
ATOM     37  C   UNL     1       9.437  10.188  19.607  0.00  0.00    +0.000 A 
ENDBRANCH  29  32
ENDBRANCH  25  26
ENDBRANCH  23  25
ENDBRANCH  20  22
ENDBRANCH   1  20
BRANCH   5  38
ATOM     38  C   UNL     1       1.524   4.015  19.625  0.00  0.00    +0.000 C 
BRANCH  38  39
ATOM     39  O   UNL     1       0.361   3.587  20.299  0.00  0.00    +0.000 OA
ATOM     40  H   UNL     1       0.452   3.844  21.230  0.00  0.00    +0.000 HD
ENDBRANCH  38  39
ENDBRANCH   5  38
TORSDOF 9
ENDMDL
MODEL 2
REMARK VINA RESULT:      -8.4      1.281      1.710
REMARK  Name = 
REMARK  9 active torsions:
REMARK  status: ('A' for Active; 'I' for Inactive)
REMARK    1  A    between atoms: C_2  and  C_3
REMARK    2  A    between atoms: C_3  and  C_4
REMARK    3  A    between atoms: C_7  and  N_8
REMARK    4  A    between atoms: N_11  and  C_12
REMARK    5  A    between atoms: C_19  and  C_20
REMARK    6  A    between atoms: C_20  and  O_21
REMARK    7  A    between atoms: N_23  and  C_24
REMARK    8  A    between atoms: C_24  and  C_25
REMARK    9  A    between atoms: C_28  and  C_29
REMARK                            x       y       z     vdW  Elec       q    Type
REMARK                         _______ _______ _______ _____ _____    ______ ____
ROOT
ATOM      1  C   UNL     1       3.924   6.060  18.776  0.00  0.00    +0.000 C 
ATOM      2  C   UNL     1       2.996   7.021  18.082  0.00  0.00    +0.000 C 
ATOM      3  C   UNL     1       1.899   7.549  18.647  0.00  0.00    +0.000 C 
ATOM      4  C   UNL     1       1.432   7.139  20.005  0.00  0.00    +0.000 C 
ATOM      5  C   UNL     1       2.153   5.847  20.484  0.00  0.00    +0.000 C 
ATOM      6  O   UNL     1       3.558   5.819  20.153  0.00  0.00    +0.000 OA
ENDROOT
BRANCH   4   7
ATOM      7  N   UNL     1       1.582   8.290  20.884  0.00  0.00    +0.000 N 
ATOM      8  C   UNL     1       0.557   9.204  20.955  0.00  0.00    +0.000 C 
ATOM      9  O   UNL     1      -0.496   9.074  20.342  0.00  0.00    +0.000 OA
ATOM     10  N   UNL     1       0.901  10.299  21.721  0.00  0.00    +0.000 N 
ATOM     11  H   UNL     1       2.153   8.213  21.715  0.00  0.00    +0.000 HD
ATOM     12  H   UNL     1       1.875  10.565  21.640  0.00  0.00    +0.000 HD
BRANCH  10  13
ATOM     13  C   UNL     1       0.006  11.382  21.888  0.00  0.00    +0.000 A 
ATOM     14  C   UNL     1       0.128  12.565  21.155  0.00  0.00    +0.000 A 
ATOM     15  C   UNL     1      -0.756  13.620  21.386  0.00  0.00    +0.000 A 
ATOM     16  C   UNL     1      -1.754  13.504  22.354  0.00  0.00    +0.000 A 
ATOM     17  C   UNL     1      -1.882  12.320  23.083  0.00  0.00    +0.000 A 
ATOM     18  C   UNL     1      -1.015  11.263  22.829  0.00  0.00    +0.000 A 
ATOM     19  F   UNL     1      -1.129  10.134  23.549  0.00  0.00    +0.000 F 
ENDBRANCH  10  13
ENDBRANCH   4   7
BRANCH   1  20
ATOM     20  C   UNL     1       4.116   4.700  18.110  0.00  0.00    +0.000 C 
BRANCH  20  22
ATOM     21  O   UNL     1       4.875   2.952  19.608  0.00  0.00    +0.000 OA
ATOM     22  C   UNL     1       5.134   3.778  18.737  0.00  0.00    +0.000 C 
ATOM     23  N   UNL     1       6.424   3.931  18.293  0.00  0.00    +0.000 N 
ATOM     24  H   UNL     1       7.118   3.360  18.762  0.00  0.00    +0.000 HD
BRANCH  23  25
ATOM     25  C   UNL     1       6.824   4.786  17.202  0.00  0.00    +0.000 C 
BRANCH  25  26
ATOM     26  C   UNL     1       7.318   6.121  17.666  0.00  0.00    +0.000 A 
ATOM     27  C   UNL     1       8.065   6.225  18.843  0.00  0.00    +0.000 A 
ATOM     28  C   UNL     1       8.582   7.461  19.236  0.00  0.00    +0.000 A 
ATOM     29  C   UNL     1       8.394   8.618  18.462  0.00  0.00    +0.000 A 
ATOM     30  C   UNL     1       7.623   8.492  17.290  0.00  0.00    +0.000 A 
ATOM     31  C   UNL     1       7.087   7.264  16.899  0.00  0.00    +0.000 A 
BRANCH  29  32
ATOM     32  C   UNL     1       8.997   9.913  18.845  0.00  0.00    +0.000 A 
ATOM     33  C   UNL     1       9.222  10.242  20.195  0.00  0.00    +0.000 A 
ATOM     34  C   UNL     1       9.800  11.461  20.561  0.00  0.00    +0.000 A 
ATOM     35  C   UNL     1      10.182  12.371  19.585  0.00  0.00    +0.000 A 
ATOM     36  C   UNL     1       9.980  12.069  18.241  0.00  0.00    +0.000 A 
ATOM     37  C   UNL     1       9.386  10.857  17.878  0.00  0.00    +0.000 A 
ENDBRANCH  29  32
ENDBRANCH  25  26
ENDBRANCH  23  25
ENDBRANCH  20  22
ENDBRANCH   1  20
BRANCH   5  38
ATOM     38  C   UNL     1       1.457   4.598  19.949  0.00  0.00    +0.000 C 
BRANCH  38  39
ATOM     39  O   UNL     1       2.012   3.436  20.525  0.00  0.00    +0.000 OA
ATOM     40  H   UNL     1       1.850   3.478  21.480  0.00  0.00    +0.000 HD
ENDBRANCH  38  39
ENDBRANCH   5  38
TORSDOF 9
ENDMDL
MODEL 3
REMARK VINA RESULT:      -8.3      0.970      1.277
REMARK  Name = 
REMARK  9 active torsions:
REMARK  status: ('A' for Active; 'I' for Inactive)
REMARK    1  A    between atoms: C_2  and  C_3
REMARK    2  A    between atoms: C_3  and  C_4
REMARK    3  A    between atoms: C_7  and  N_8
REMARK    4  A    between atoms: N_11  and  C_12
REMARK    5  A    between atoms: C_19  and  C_20
REMARK    6  A    between atoms: C_20  and  O_21
REMARK    7  A    between atoms: N_23  and  C_24
REMARK    8  A    between atoms: C_24  and  C_25
REMARK    9  A    between atoms: C_28  and  C_29
REMARK                            x       y       z     vdW  Elec       q    Type
REMARK                         _______ _______ _______ _____ _____    ______ ____
ROOT
ATOM      1  C   UNL     1       4.095   6.126  18.716  0.00  0.00    +0.000 C 
ATOM      2  C   UNL     1       3.178   7.107  18.036  0.00  0.00    +0.000 C 
ATOM      3  C   UNL     1       2.045   7.580  18.578  0.00  0.00    +0.000 C 
ATOM      4  C   UNL     1       1.526   7.083  19.887  0.00  0.00    +0.000 C 
ATOM      5  C   UNL     1       2.253   5.781  20.325  0.00  0.00    +0.000 C 
ATOM      6  O   UNL     1       3.672   5.800  20.059  0.00  0.00    +0.000 OA
ENDROOT
BRANCH   4   7
ATOM      7  N   UNL     1       1.610   8.185  20.835  0.00  0.00    +0.000 N 
ATOM      8  C   UNL     1       0.521   9.010  20.986  0.00  0.00    +0.000 C 
ATOM      9  O   UNL     1      -0.534   8.839  20.387  0.00  0.00    +0.000 OA
ATOM     10  N   UNL     1       0.800  10.078  21.814  0.00  0.00    +0.000 N 
ATOM     11  H   UNL     1       2.206   8.100  21.648  0.00  0.00    +0.000 HD
ATOM     12  H   UNL     1       1.749  10.423  21.732  0.00  0.00    +0.000 HD
BRANCH  10  13
ATOM     13  C   UNL     1      -0.170  11.076  22.070  0.00  0.00    +0.000 A 
ATOM     14  C   UNL     1      -1.159  10.918  23.043  0.00  0.00    +0.000 A 
ATOM     15  C   UNL     1      -2.118  11.916  23.228  0.00  0.00    +0.000 A 
ATOM     16  C   UNL     1      -2.100  13.065  22.438  0.00  0.00    +0.000 A 
ATOM     17  C   UNL     1      -1.108  13.229  21.471  0.00  0.00    +0.000 A 
ATOM     18  C   UNL     1      -0.139  12.244  21.309  0.00  0.00    +0.000 A 
ATOM     19  F   UNL     1       0.800  12.397  20.361  0.00  0.00    +0.000 F 
ENDBRANCH  10  13
ENDBRANCH   4   7
BRANCH   1  20
ATOM     20  C   UNL     1       4.348   4.811  17.985  0.00  0.00    +0.000 C 
BRANCH  20  22
ATOM     21  O   UNL     1       5.046   3.032  19.475  0.00  0.00    +0.000 OA
ATOM     22  C   UNL     1       5.337   3.863  18.619  0.00  0.00    +0.000 C 
ATOM     23  N   UNL     1       6.638   3.998  18.202  0.00  0.00    +0.000 N 
ATOM     24  H   UNL     1       7.312   3.409  18.677  0.00  0.00    +0.000 HD
BRANCH  23  25
ATOM     25  C   UNL     1       7.074   4.858  17.129  0.00  0.00    +0.000 C 
BRANCH  25  26
ATOM     26  C   UNL     1       7.482   6.217  17.608  0.00  0.00    +0.000 A 
ATOM     27  C   UNL     1       8.184   6.358  18.808  0.00  0.00    +0.000 A 
ATOM     28  C   UNL     1       8.623   7.619  19.217  0.00  0.00    +0.000 A 
ATOM     29  C   UNL     1       8.399   8.766  18.437  0.00  0.00    +0.000 A 
ATOM     30  C   UNL     1       7.674   8.601  17.241  0.00  0.00    +0.000 A 
ATOM     31  C   UNL     1       7.215   7.347  16.834  0.00  0.00    +0.000 A 
BRANCH  29  32
ATOM     32  C   UNL     1       8.920  10.091  18.839  0.00  0.00    +0.000 A 
ATOM     33  C   UNL     1       9.430  10.312  20.132  0.00  0.00    +0.000 A 
ATOM     34  C   UNL     1       9.932  11.559  20.512  0.00  0.00    +0.000 A 
ATOM     35  C   UNL     1       9.952  12.609  19.604  0.00  0.00    +0.000 A 
ATOM     36  C   UNL     1       9.462  12.416  18.316  0.00  0.00    +0.000 A 
ATOM     37  C   UNL     1       8.944  11.173  17.942  0.00  0.00    +0.000 A 
ENDBRANCH  29  32
ENDBRANCH  25  26
ENDBRANCH  23  25
ENDBRANCH  20  22
ENDBRANCH   1  20
BRANCH   5  38
ATOM     38  C   UNL     1       1.610   4.551  19.688  0.00  0.00    +0.000 C 
BRANCH  38  39
ATOM     39  O   UNL     1       0.530   4.093  20.472  0.00  0.00    +0.000 OA
ATOM     40  H   UNL     1       0.133   4.867  20.901  0.00  0.00    +0.000 HD
ENDBRANCH  38  39
ENDBRANCH   5  38
TORSDOF 9
ENDMDL
MODEL 4
REMARK VINA RESULT:      -8.2      0.891      1.650
REMARK  Name = 
REMARK  9 active torsions:
REMARK  status: ('A' for Active; 'I' for Inactive)
REMARK    1  A    between atoms: C_2  and  C_3
REMARK    2  A    between atoms: C_3  and  C_4
REMARK    3  A    between atoms: C_7  and  N_8
REMARK    4  A    between atoms: N_11  and  C_12
REMARK    5  A    between atoms: C_19  and  C_20
REMARK    6  A    between atoms: C_20  and  O_21
REMARK    7  A    between atoms: N_23  and  C_24
REMARK    8  A    between atoms: C_24  and  C_25
REMARK    9  A    between atoms: C_28  and  C_29
REMARK                            x       y       z     vdW  Elec       q    Type
REMARK                         _______ _______ _______ _____ _____    ______ ____
ROOT
ATOM      1  C   UNL     1       4.120   5.186  19.682  0.00  0.00    +0.000 C 
ATOM      2  C   UNL     1       3.765   6.395  18.858  0.00  0.00    +0.000 C 
ATOM      3  C   UNL     1       2.660   7.134  19.042  0.00  0.00    +0.000 C 
ATOM      4  C   UNL     1       1.607   6.751  20.030  0.00  0.00    +0.000 C 
ATOM      5  C   UNL     1       1.800   5.289  20.523  0.00  0.00    +0.000 C 
ATOM      6  O   UNL     1       3.182   4.940  20.753  0.00  0.00    +0.000 OA
ENDROOT
BRANCH   4   7
ATOM      7  N   UNL     1       1.606   7.760  21.078  0.00  0.00    +0.000 N 
ATOM      8  C   UNL     1       0.768   8.843  20.952  0.00  0.00    +0.000 C 
ATOM      9  O   UNL     1      -0.008   8.980  20.013  0.00  0.00    +0.000 OA
ATOM     10  N   UNL     1       0.977   9.771  21.951  0.00  0.00    +0.000 N 
ATOM     11  H   UNL     1       1.830   7.494  22.028  0.00  0.00    +0.000 HD
ATOM     12  H   UNL     1       1.946   9.851  22.239  0.00  0.00    +0.000 HD
BRANCH  10  13
ATOM     13  C   UNL     1       0.251  10.985  21.983  0.00  0.00    +0.000 A 
ATOM     14  C   UNL     1       0.637  12.101  21.236  0.00  0.00    +0.000 A 
ATOM     15  C   UNL     1      -0.090  13.288  21.334  0.00  0.00    +0.000 A 
ATOM     16  C   UNL     1      -1.195  13.370  22.182  0.00  0.00    +0.000 A 
ATOM     17  C   UNL     1      -1.586  12.254  22.923  0.00  0.00    +0.000 A 
ATOM     18  C   UNL     1      -0.875  11.066  22.802  0.00  0.00    +0.000 A 
ATOM     19  F   UNL     1      -1.243  10.002  23.534  0.00  0.00    +0.000 F 
ENDBRANCH  10  13
ENDBRANCH   4   7
BRANCH   1  20
ATOM     20  C   UNL     1       4.298   3.874  18.922  0.00  0.00    +0.000 C 
BRANCH  20  22
ATOM     21  O   UNL     1       3.318   4.021  16.710  0.00  0.00    +0.000 OA
ATOM     22  C   UNL     1       4.322   3.962  17.415  0.00  0.00    +0.000 C 
ATOM     23  N   UNL     1       5.568   3.942  16.840  0.00  0.00    +0.000 N 
ATOM     24  H   UNL     1       5.582   3.933  15.827  0.00  0.00    +0.000 HD
BRANCH  23  25
ATOM     25  C   UNL     1       6.813   3.987  17.570  0.00  0.00    +0.000 C 
BRANCH  25  26
ATOM     26  C   UNL     1       7.323   5.383  17.756  0.00  0.00    +0.000 A 
ATOM     27  C   UNL     1       7.181   6.325  16.734  0.00  0.00    +0.000 A 
ATOM     28  C   UNL     1       7.596   7.643  16.935  0.00  0.00    +0.000 A 
ATOM     29  C   UNL     1       8.140   8.065  18.160  0.00  0.00    +0.000 A 
ATOM     30  C   UNL     1       8.290   7.093  19.168  0.00  0.00    +0.000 A 
ATOM     31  C   UNL     1       7.895   5.769  18.968  0.00  0.00    +0.000 A 
BRANCH  29  32
ATOM     32  C   UNL     1       8.519   9.475  18.395  0.00  0.00    +0.000 A 
ATOM     33  C   UNL     1       9.320   9.841  19.493  0.00  0.00    +0.000 A 
ATOM     34  C   UNL     1       9.688  11.171  19.714  0.00  0.00    +0.000 A 
ATOM     35  C   UNL     1       9.280  12.163  18.832  0.00  0.00    +0.000 A 
ATOM     36  C   UNL     1       8.495  11.828  17.733  0.00  0.00    +0.000 A 
ATOM     37  C   UNL     1       8.112  10.500  17.523  0.00  0.00    +0.000 A 
ENDBRANCH  29  32
ENDBRANCH  25  26
ENDBRANCH  23  25
ENDBRANCH  20  22
ENDBRANCH   1  20
BRANCH   5  38
ATOM     38  C   UNL     1       1.155   4.294  19.561  0.00  0.00    +0.000 C 
BRANCH  38  39
ATOM     39  O   UNL     1       0.609   3.202  20.270  0.00  0.00    +0.000 OA
ATOM     40  H   UNL     1      -0.336   3.380  20.396  0.00  0.00    +0.000 HD
ENDBRANCH  38  39
ENDBRANCH   5  38
TORSDOF 9
ENDMDL
MODEL 5
REMARK VINA RESULT:      -8.1      3.850     10.529
REMARK  Name = 
REMARK  9 active torsions:
REMARK  status: ('A' for Active; 'I' for Inactive)
REMARK    1  A    between atoms: C_2  and  C_3
REMARK    2  A    between atoms: C_3  and  C_4
REMARK    3  A    between atoms: C_7  and  N_8
REMARK    4  A    between atoms: N_11  and  C_12
REMARK    5  A    between atoms: C_19  and  C_20
REMARK    6  A    between atoms: C_20  and  O_21
REMARK    7  A    between atoms: N_23  and  C_24
REMARK    8  A    between atoms: C_24  and  C_25
REMARK    9  A    between atoms: C_28  and  C_29
REMARK                            x       y       z     vdW  Elec       q    Type
REMARK                         _______ _______ _______ _____ _____    ______ ____
ROOT
ATOM      1  C   UNL     1       2.950   6.247  18.357  0.00  0.00    +0.000 C 
ATOM      2  C   UNL     1       3.905   7.226  17.728  0.00  0.00    +0.000 C 
ATOM      3  C   UNL     1       4.900   6.880  16.897  0.00  0.00    +0.000 C 
ATOM      4  C   UNL     1       5.224   5.452  16.601  0.00  0.00    +0.000 C 
ATOM      5  C   UNL     1       4.516   4.494  17.600  0.00  0.00    +0.000 C 
ATOM      6  O   UNL     1       3.164   4.888  17.912  0.00  0.00    +0.000 OA
ENDROOT
BRANCH   4   7
ATOM      7  N   UNL     1       4.915   5.217  15.198  0.00  0.00    +0.000 N 
ATOM      8  C   UNL     1       5.587   4.220  14.532  0.00  0.00    +0.000 C 
ATOM      9  O   UNL     1       6.408   3.491  15.075  0.00  0.00    +0.000 OA
ATOM     10  N   UNL     1       5.282   4.208  13.186  0.00  0.00    +0.000 N 
ATOM     11  H   UNL     1       3.988   5.424  14.849  0.00  0.00    +0.000 HD
ATOM     12  H   UNL     1       5.129   5.130  12.793  0.00  0.00    +0.000 HD
BRANCH  10  13
ATOM     13  C   UNL     1       5.900   3.288  12.306  0.00  0.00    +0.000 A 
ATOM     14  C   UNL     1       5.285   2.091  11.933  0.00  0.00    +0.000 A 
ATOM     15  C   UNL     1       5.954   1.198  11.094  0.00  0.00    +0.000 A 
ATOM     16  C   UNL     1       7.238   1.490  10.634  0.00  0.00    +0.000 A 
ATOM     17  C   UNL     1       7.850   2.690  10.999  0.00  0.00    +0.000 A 
ATOM     18  C   UNL     1       7.169   3.588  11.813  0.00  0.00    +0.000 A 
ATOM     19  F   UNL     1       7.772   4.731  12.179  0.00  0.00    +0.000 F 
ENDBRANCH  10  13
ENDBRANCH   4   7
BRANCH   1  20
ATOM     20  C   UNL     1       2.905   6.225  19.883  0.00  0.00    +0.000 C 
BRANCH  20  22
ATOM     21  O   UNL     1       0.947   4.983  20.587  0.00  0.00    +0.000 OA
ATOM     22  C   UNL     1       1.546   6.053  20.517  0.00  0.00    +0.000 C 
ATOM     23  N   UNL     1       0.971   7.199  21.006  0.00  0.00    +0.000 N 
ATOM     24  H   UNL     1       0.032   7.096  21.370  0.00  0.00    +0.000 HD
BRANCH  23  25
ATOM     25  C   UNL     1       1.626   8.483  21.078  0.00  0.00    +0.000 C 
BRANCH  25  26
ATOM     26  C   UNL     1       0.750   9.546  21.666  0.00  0.00    +0.000 A 
ATOM     27  C   UNL     1       0.685  10.810  21.073  0.00  0.00    +0.000 A 
ATOM     28  C   UNL     1      -0.185  11.777  21.582  0.00  0.00    +0.000 A 
ATOM     29  C   UNL     1      -1.026  11.509  22.675  0.00  0.00    +0.000 A 
ATOM     30  C   UNL     1      -0.928  10.235  23.267  0.00  0.00    +0.000 A 
ATOM     31  C   UNL     1      -0.048   9.268  22.776  0.00  0.00    +0.000 A 
BRANCH  29  32
ATOM     32  C   UNL     1      -1.992  12.511  23.173  0.00  0.00    +0.000 A 
ATOM     33  C   UNL     1      -1.710  13.889  23.114  0.00  0.00    +0.000 A 
ATOM     34  C   UNL     1      -2.624  14.840  23.576  0.00  0.00    +0.000 A 
ATOM     35  C   UNL     1      -3.849  14.437  24.090  0.00  0.00    +0.000 A 
ATOM     36  C   UNL     1      -4.159  13.081  24.152  0.00  0.00    +0.000 A 
ATOM     37  C   UNL     1      -3.237  12.130  23.707  0.00  0.00    +0.000 A 
ENDBRANCH  29  32
ENDBRANCH  25  26
ENDBRANCH  23  25
ENDBRANCH  20  22
ENDBRANCH   1  20
BRANCH   5  38
ATOM     38  C   UNL     1       5.332   4.335  18.881  0.00  0.00    +0.000 C 
BRANCH  38  39
ATOM     39  O   UNL     1       5.381   2.981  19.274  0.00  0.00    +0.000 OA
ATOM     40  H   UNL     1       5.316   2.442  18.470  0.00  0.00    +0.000 HD
ENDBRANCH  38  39
ENDBRANCH   5  38
TORSDOF 9
ENDMDL
MODEL 6
REMARK VINA RESULT:      -8.0      3.809     10.444
REMARK  Name = 
REMARK  9 active torsions:
REMARK  status: ('A' for Active; 'I' for Inactive)
REMARK    1  A    between atoms: C_2  and  C_3
REMARK    2  A    between atoms: C_3  and  C_4
REMARK    3  A    between atoms: C_7  and  N_8
REMARK    4  A    between atoms: N_11  and  C_12
REMARK    5  A    between atoms: C_19  and  C_20
REMARK    6  A    between atoms: C_20  and  O_21
REMARK    7  A    between atoms: N_23  and  C_24
REMARK    8  A    between atoms: C_24  and  C_25
REMARK    9  A    between atoms: C_28  and  C_29
REMARK                            x       y       z     vdW  Elec       q    Type
REMARK                         _______ _______ _______ _____ _____    ______ ____
ROOT
ATOM      1  C   UNL     1       3.005   6.114  18.332  0.00  0.00    +0.000 C 
ATOM      2  C   UNL     1       3.844   7.231  17.771  0.00  0.00    +0.000 C 
ATOM      3  C   UNL     1       4.883   7.049  16.941  0.00  0.00    +0.000 C 
ATOM      4  C   UNL     1       5.378   5.687  16.578  0.00  0.00    +0.000 C 
ATOM      5  C   UNL     1       4.777   4.600  17.513  0.00  0.00    +0.000 C 
ATOM      6  O   UNL     1       3.383   4.815  17.820  0.00  0.00    +0.000 OA
ENDROOT
BRANCH   4   7
ATOM      7  N   UNL     1       5.115   5.493  15.159  0.00  0.00    +0.000 N 
ATOM      8  C   UNL     1       5.635   4.383  14.538  0.00  0.00    +0.000 C 
ATOM      9  O   UNL     1       6.279   3.526  15.132  0.00  0.00    +0.000 OA
ATOM     10  N   UNL     1       5.414   4.408  13.176  0.00  0.00    +0.000 N 
ATOM     11  H   UNL     1       4.263   5.858  14.754  0.00  0.00    +0.000 HD
ATOM     12  H   UNL     1       5.452   5.337  12.773  0.00  0.00    +0.000 HD
BRANCH  10  13
ATOM     13  C   UNL     1       5.908   3.381  12.337  0.00  0.00    +0.000 A 
ATOM     14  C   UNL     1       7.276   3.175  12.143  0.00  0.00    +0.000 A 
ATOM     15  C   UNL     1       7.711   2.173  11.273  0.00  0.00    +0.000 A 
ATOM     16  C   UNL     1       6.786   1.384  10.588  0.00  0.00    +0.000 A 
ATOM     17  C   UNL     1       5.420   1.583  10.787  0.00  0.00    +0.000 A 
ATOM     18  C   UNL     1       4.992   2.564  11.675  0.00  0.00    +0.000 A 
ATOM     19  F   UNL     1       3.675   2.766  11.846  0.00  0.00    +0.000 F 
ENDBRANCH  10  13
ENDBRANCH   4   7
BRANCH   1  20
ATOM     20  C   UNL     1       2.945   6.005  19.853  0.00  0.00    +0.000 C 
BRANCH  20  22
ATOM     21  O   UNL     1       0.990   4.810  20.642  0.00  0.00    +0.000 OA
ATOM     22  C   UNL     1       1.572   5.877  20.469  0.00  0.00    +0.000 C 
ATOM     23  N   UNL     1       0.964   7.058  20.812  0.00  0.00    +0.000 N 
ATOM     24  H   UNL     1       0.017   6.977  21.162  0.00  0.00    +0.000 HD
BRANCH  23  25
ATOM     25  C   UNL     1       1.594   8.355  20.757  0.00  0.00    +0.000 C 
BRANCH  25  26
ATOM     26  C   UNL     1       0.788   9.419  21.436  0.00  0.00    +0.000 A 
ATOM     27  C   UNL     1       0.742  10.712  20.907  0.00  0.00    +0.000 A 
ATOM     28  C   UNL     1      -0.066  11.682  21.503  0.00  0.00    +0.000 A 
ATOM     29  C   UNL     1      -0.864  11.391  22.622  0.00  0.00    +0.000 A 
ATOM     30  C   UNL     1      -0.787  10.087  23.147  0.00  0.00    +0.000 A 
ATOM     31  C   UNL     1       0.032   9.116  22.569  0.00  0.00    +0.000 A 
BRANCH  29  32
ATOM     32  C   UNL     1      -1.768  12.402  23.213  0.00  0.00    +0.000 A 
ATOM     33  C   UNL     1      -1.332  13.718  23.454  0.00  0.00    +0.000 A 
ATOM     34  C   UNL     1      -2.185  14.678  24.004  0.00  0.00    +0.000 A 
ATOM     35  C   UNL     1      -3.499  14.350  24.309  0.00  0.00    +0.000 A 
ATOM     36  C   UNL     1      -3.960  13.058  24.074  0.00  0.00    +0.000 A 
ATOM     37  C   UNL     1      -3.101  12.094  23.540  0.00  0.00    +0.000 A 
ENDBRANCH  29  32
ENDBRANCH  25  26
ENDBRANCH  23  25
ENDBRANCH  20  22
ENDBRANCH   1  20
BRANCH   5  38
ATOM     38  C   UNL     1       5.590   4.470  18.799  0.00  0.00    +0.000 C 
BRANCH  38  39
ATOM     39  O   UNL     1       5.458   3.175  19.341  0.00  0.00    +0.000 OA
ATOM     40  H   UNL     1       6.264   2.986  19.847  0.00  0.00    +0.000 HD
ENDBRANCH  38  39
ENDBRANCH   5  38
TORSDOF 9
ENDMDL
MODEL 7
REMARK VINA RESULT:      -8.0      1.231      1.705
REMARK  Name = 
REMARK  9 active torsions:
REMARK  status: ('A' for Active; 'I' for Inactive)
REMARK    1  A    between atoms: C_2  and  C_3
REMARK    2  A    between atoms: C_3  and  C_4
REMARK    3  A    between atoms: C_7  and  N_8
REMARK    4  A    between atoms: N_11  and  C_12
REMARK    5  A    between atoms: C_19  and  C_20
REMARK    6  A    between atoms: C_20  and  O_21
REMARK    7  A    between atoms: N_23  and  C_24
REMARK    8  A    between atoms: C_24  and  C_25
REMARK    9  A    between atoms: C_28  and  C_29
REMARK                            x       y       z     vdW  Elec       q    Type
REMARK                         _______ _______ _______ _____ _____    ______ ____
ROOT
ATOM      1  C   UNL     1       4.022   6.186  18.676  0.00  0.00    +0.000 C 
ATOM      2  C   UNL     1       3.158   7.174  17.938  0.00  0.00    +0.000 C 
ATOM      3  C   UNL     1       2.034   7.711  18.436  0.00  0.00    +0.000 C 
ATOM      4  C   UNL     1       1.469   7.288  19.752  0.00  0.00    +0.000 C 
ATOM      5  C   UNL     1       2.135   5.977  20.257  0.00  0.00    +0.000 C 
ATOM      6  O   UNL     1       3.559   5.930  20.021  0.00  0.00    +0.000 OA
ENDROOT
BRANCH   4   7
ATOM      7  N   UNL     1       1.578   8.423  20.657  0.00  0.00    +0.000 N 
ATOM      8  C   UNL     1       0.505   9.274  20.781  0.00  0.00    +0.000 C 
ATOM      9  O   UNL     1      -0.556   9.100  20.192  0.00  0.00    +0.000 OA
ATOM     10  N   UNL     1       0.807  10.366  21.568  0.00  0.00    +0.000 N 
ATOM     11  H   UNL     1       2.176   8.358  21.471  0.00  0.00    +0.000 HD
ATOM     12  H   UNL     1       1.762  10.690  21.469  0.00  0.00    +0.000 HD
BRANCH  10  13
ATOM     13  C   UNL     1      -0.143  11.391  21.788  0.00  0.00    +0.000 A 
ATOM     14  C   UNL     1      -0.161  12.563  21.027  0.00  0.00    +0.000 A 
ATOM     15  C   UNL     1      -1.094  13.562  21.312  0.00  0.00    +0.000 A 
ATOM     16  C   UNL     1      -2.001  13.401  22.359  0.00  0.00    +0.000 A 
ATOM     17  C   UNL     1      -1.990  12.228  23.115  0.00  0.00    +0.000 A 
ATOM     18  C   UNL     1      -1.077  11.225  22.810  0.00  0.00    +0.000 A 
ATOM     19  F   UNL     1      -1.056  10.107  23.555  0.00  0.00    +0.000 F 
ENDBRANCH  10  13
ENDBRANCH   4   7
BRANCH   1  20
ATOM     20  C   UNL     1       4.237   4.834  18.003  0.00  0.00    +0.000 C 
BRANCH  20  22
ATOM     21  O   UNL     1       4.811   3.121  19.619  0.00  0.00    +0.000 OA
ATOM     22  C   UNL     1       5.158   3.866  18.706  0.00  0.00    +0.000 C 
ATOM     23  N   UNL     1       6.464   3.879  18.285  0.00  0.00    +0.000 N 
ATOM     24  H   UNL     1       7.096   3.280  18.802  0.00  0.00    +0.000 HD
BRANCH  23  25
ATOM     25  C   UNL     1       6.958   4.628  17.154  0.00  0.00    +0.000 C 
BRANCH  25  26
ATOM     26  C   UNL     1       7.494   5.972  17.540  0.00  0.00    +0.000 A 
ATOM     27  C   UNL     1       7.313   7.070  16.695  0.00  0.00    +0.000 A 
ATOM     28  C   UNL     1       7.753   8.335  17.089  0.00  0.00    +0.000 A 
ATOM     29  C   UNL     1       8.361   8.548  18.338  0.00  0.00    +0.000 A 
ATOM     30  C   UNL     1       8.548   7.423  19.164  0.00  0.00    +0.000 A 
ATOM     31  C   UNL     1       8.128   6.151  18.770  0.00  0.00    +0.000 A 
BRANCH  29  32
ATOM     32  C   UNL     1       8.768   9.899  18.782  0.00  0.00    +0.000 A 
ATOM     33  C   UNL     1       8.688  11.005  17.916  0.00  0.00    +0.000 A 
ATOM     34  C   UNL     1       9.064  12.285  18.334  0.00  0.00    +0.000 A 
ATOM     35  C   UNL     1       9.509  12.491  19.633  0.00  0.00    +0.000 A 
ATOM     36  C   UNL     1       9.590  11.416  20.513  0.00  0.00    +0.000 A 
ATOM     37  C   UNL     1       9.231  10.134  20.089  0.00  0.00    +0.000 A 
ENDBRANCH  29  32
ENDBRANCH  25  26
ENDBRANCH  23  25
ENDBRANCH  20  22
ENDBRANCH   1  20
BRANCH   5  38
ATOM     38  C   UNL     1       1.457   4.748  19.655  0.00  0.00    +0.000 C 
BRANCH  38  39
ATOM     39  O   UNL     1       0.523   4.203  20.561  0.00  0.00    +0.000 OA
ATOM     40  H   UNL     1       0.816   4.436  21.457  0.00  0.00    +0.000 HD
ENDBRANCH  38  39
ENDBRANCH   5  38
TORSDOF 9
ENDMDL
MODEL 8
REMARK VINA RESULT:      -7.9      3.822     10.569
REMARK  Name = 
REMARK  9 active torsions:
REMARK  status: ('A' for Active; 'I' for Inactive)
REMARK    1  A    between atoms: C_2  and  C_3
REMARK    2  A    between atoms: C_3  and  C_4
REMARK    3  A    between atoms: C_7  and  N_8
REMARK    4  A    between atoms: N_11  and  C_12
REMARK    5  A    between atoms: C_19  and  C_20
REMARK    6  A    between atoms: C_20  and  O_21
REMARK    7  A    between atoms: N_23  and  C_24
REMARK    8  A    between atoms: C_24  and  C_25
REMARK    9  A    between atoms: C_28  and  C_29
REMARK                            x       y       z     vdW  Elec       q    Type
REMARK                         _______ _______ _______ _____ _____    ______ ____
ROOT
ATOM      1  C   UNL     1       3.056   6.362  18.352  0.00  0.00    +0.000 C 
ATOM      2  C   UNL     1       4.096   7.274  17.759  0.00  0.00    +0.000 C 
ATOM      3  C   UNL     1       5.078   6.866  16.939  0.00  0.00    +0.000 C 
ATOM      4  C   UNL     1       5.295   5.423  16.621  0.00  0.00    +0.000 C 
ATOM      5  C   UNL     1       4.495   4.505  17.588  0.00  0.00    +0.000 C 
ATOM      6  O   UNL     1       3.172   4.999  17.884  0.00  0.00    +0.000 OA
ENDROOT
BRANCH   4   7
ATOM      7  N   UNL     1       4.995   5.238  15.209  0.00  0.00    +0.000 N 
ATOM      8  C   UNL     1       5.604   4.207  14.534  0.00  0.00    +0.000 C 
ATOM      9  O   UNL     1       6.360   3.409  15.076  0.00  0.00    +0.000 OA
ATOM     10  N   UNL     1       5.324   4.244  13.183  0.00  0.00    +0.000 N 
ATOM     11  H   UNL     1       4.092   5.519  14.848  0.00  0.00    +0.000 HD
ATOM     12  H   UNL     1       5.246   5.182  12.807  0.00  0.00    +0.000 HD
BRANCH  10  13
ATOM     13  C   UNL     1       5.889   3.298  12.295  0.00  0.00    +0.000 A 
ATOM     14  C   UNL     1       5.210   2.137  11.918  0.00  0.00    +0.000 A 
ATOM     15  C   UNL     1       5.827   1.215  11.070  0.00  0.00    +0.000 A 
ATOM     16  C   UNL     1       7.123   1.442  10.607  0.00  0.00    +0.000 A 
ATOM     17  C   UNL     1       7.800   2.605  10.976  0.00  0.00    +0.000 A 
ATOM     18  C   UNL     1       7.171   3.533  11.799  0.00  0.00    +0.000 A 
ATOM     19  F   UNL     1       7.835   4.640  12.169  0.00  0.00    +0.000 F 
ENDBRANCH  10  13
ENDBRANCH   4   7
BRANCH   1  20
ATOM     20  C   UNL     1       2.981   6.316  19.876  0.00  0.00    +0.000 C 
BRANCH  20  22
ATOM     21  O   UNL     1       1.122   4.909  20.536  0.00  0.00    +0.000 OA
ATOM     22  C   UNL     1       1.627   6.027  20.478  0.00  0.00    +0.000 C 
ATOM     23  N   UNL     1       0.942   7.119  20.949  0.00  0.00    +0.000 N 
ATOM     24  H   UNL     1       0.007   6.934  21.291  0.00  0.00    +0.000 HD
BRANCH  23  25
ATOM     25  C   UNL     1       1.480   8.455  21.033  0.00  0.00    +0.000 C 
BRANCH  25  26
ATOM     26  C   UNL     1       0.461   9.462  21.467  0.00  0.00    +0.000 A 
ATOM     27  C   UNL     1      -0.128   9.367  22.731  0.00  0.00    +0.000 A 
ATOM     28  C   UNL     1      -1.025  10.346  23.160  0.00  0.00    +0.000 A 
ATOM     29  C   UNL     1      -1.345  11.455  22.358  0.00  0.00    +0.000 A 
ATOM     30  C   UNL     1      -0.753  11.519  21.081  0.00  0.00    +0.000 A 
ATOM     31  C   UNL     1       0.131  10.535  20.638  0.00  0.00    +0.000 A 
BRANCH  29  32
ATOM     32  C   UNL     1      -2.246  12.525  22.838  0.00  0.00    +0.000 A 
ATOM     33  C   UNL     1      -3.256  12.259  23.781  0.00  0.00    +0.000 A 
ATOM     34  C   UNL     1      -4.104  13.268  24.244  0.00  0.00    +0.000 A 
ATOM     35  C   UNL     1      -3.950  14.571  23.789  0.00  0.00    +0.000 A 
ATOM     36  C   UNL     1      -2.954  14.865  22.863  0.00  0.00    +0.000 A 
ATOM     37  C   UNL     1      -2.118  13.851  22.387  0.00  0.00    +0.000 A 
ENDBRANCH  29  32
ENDBRANCH  25  26
ENDBRANCH  23  25
ENDBRANCH  20  22
ENDBRANCH   1  20
BRANCH   5  38
ATOM     38  C   UNL     1       5.271   4.260  18.881  0.00  0.00    +0.000 C 
BRANCH  38  39
ATOM     39  O   UNL     1       6.657   4.194  18.623  0.00  0.00    +0.000 OA
ATOM     40  H   UNL     1       6.777   4.246  17.662  0.00  0.00    +0.000 HD
ENDBRANCH  38  39
ENDBRANCH   5  38
TORSDOF 9
ENDMDL
MODEL 9
REMARK VINA RESULT:      -7.9      4.487      9.898
REMARK  Name = 
REMARK  9 active torsions:
REMARK  status: ('A' for Active; 'I' for Inactive)
REMARK    1  A    between atoms: C_2  and  C_3
REMARK    2  A    between atoms: C_3  and  C_4
REMARK    3  A    between atoms: C_7  and  N_8
REMARK    4  A    between atoms: N_11  and  C_12
REMARK    5  A    between atoms: C_19  and  C_20
REMARK    6  A    between atoms: C_20  and  O_21
REMARK    7  A    between atoms: N_23  and  C_24
REMARK    8  A    between atoms: C_24  and  C_25
REMARK    9  A    between atoms: C_28  and  C_29
REMARK                            x       y       z     vdW  Elec       q    Type
REMARK                         _______ _______ _______ _____ _____    ______ ____
ROOT
ATOM      1  C   UNL     1       2.185  14.152  18.934  0.00  0.00    +0.000 C 
ATOM      2  C   UNL     1       2.479  15.089  17.793  0.00  0.00    +0.000 C 
ATOM      3  C   UNL     1       3.699  15.570  17.509  0.00  0.00    +0.000 C 
ATOM      4  C   UNL     1       4.881  15.299  18.381  0.00  0.00    +0.000 C 
ATOM      5  C   UNL     1       4.446  14.714  19.754  0.00  0.00    +0.000 C 
ATOM      6  O   UNL     1       3.374  13.754  19.655  0.00  0.00    +0.000 OA
ENDROOT
BRANCH   4   7
ATOM      7  N   UNL     1       5.802  14.466  17.621  0.00  0.00    +0.000 N 
ATOM      8  C   UNL     1       7.037  14.191  18.156  0.00  0.00    +0.000 C 
ATOM      9  O   UNL     1       7.387  14.581  19.264  0.00  0.00    +0.000 OA
ATOM     10  N   UNL     1       7.839  13.507  17.266  0.00  0.00    +0.000 N 
ATOM     11  H   UNL     1       5.437  13.766  16.988  0.00  0.00    +0.000 HD
ATOM     12  H   UNL     1       7.704  13.780  16.299  0.00  0.00    +0.000 HD
BRANCH  10  13
ATOM     13  C   UNL     1       9.171  13.162  17.599  0.00  0.00    +0.000 A 
ATOM     14  C   UNL     1      10.213  14.091  17.543  0.00  0.00    +0.000 A 
ATOM     15  C   UNL     1      11.517  13.691  17.843  0.00  0.00    +0.000 A 
ATOM     16  C   UNL     1      11.786  12.366  18.186  0.00  0.00    +0.000 A 
ATOM     17  C   UNL     1      10.745  11.439  18.249  0.00  0.00    +0.000 A 
ATOM     18  C   UNL     1       9.445  11.849  17.976  0.00  0.00    +0.000 A 
ATOM     19  F   UNL     1       8.449  10.947  18.017  0.00  0.00    +0.000 F 
ENDBRANCH  10  13
ENDBRANCH   4   7
BRANCH   1  20
ATOM     20  C   UNL     1       1.167  14.632  19.964  0.00  0.00    +0.000 C 
BRANCH  20  22
ATOM     21  O   UNL     1       1.589  14.325  22.331  0.00  0.00    +0.000 OA
ATOM     22  C   UNL     1       1.130  13.889  21.278  0.00  0.00    +0.000 C 
ATOM     23  N   UNL     1       0.566  12.639  21.236  0.00  0.00    +0.000 N 
ATOM     24  H   UNL     1       0.603  12.114  22.102  0.00  0.00    +0.000 HD
BRANCH  23  25
ATOM     25  C   UNL     1      -0.100  12.074  20.088  0.00  0.00    +0.000 C 
BRANCH  25  26
ATOM     26  C   UNL     1       0.537  10.803  19.618  0.00  0.00    +0.000 A 
ATOM     27  C   UNL     1       0.931  10.665  18.284  0.00  0.00    +0.000 A 
ATOM     28  C   UNL     1       1.586   9.506  17.865  0.00  0.00    +0.000 A 
ATOM     29  C   UNL     1       1.890   8.466  18.760  0.00  0.00    +0.000 A 
ATOM     30  C   UNL     1       1.467   8.620  20.094  0.00  0.00    +0.000 A 
ATOM     31  C   UNL     1       0.794   9.768  20.518  0.00  0.00    +0.000 A 
BRANCH  29  32
ATOM     32  C   UNL     1       2.641   7.267  18.329  0.00  0.00    +0.000 A 
ATOM     33  C   UNL     1       2.163   5.971  18.598  0.00  0.00    +0.000 A 
ATOM     34  C   UNL     1       2.866   4.836  18.185  0.00  0.00    +0.000 A 
ATOM     35  C   UNL     1       4.053   4.971  17.478  0.00  0.00    +0.000 A 
ATOM     36  C   UNL     1       4.545   6.240  17.191  0.00  0.00    +0.000 A 
ATOM     37  C   UNL     1       3.851   7.374  17.619  0.00  0.00    +0.000 A 
ENDBRANCH  29  32
ENDBRANCH  25  26
ENDBRANCH  23  25
ENDBRANCH  20  22
ENDBRANCH   1  20
BRANCH   5  38
ATOM     38  C   UNL     1       4.073  15.826  20.733  0.00  0.00    +0.000 C 
BRANCH  38  39
ATOM     39  O   UNL     1       4.746  15.653  21.961  0.00  0.00    +0.000 OA
ATOM     40  H   UNL     1       5.693  15.571  21.765  0.00  0.00    +0.000 HD
ENDBRANCH  38  39
ENDBRANCH   5  38
TORSDOF 9
ENDMDL
