MODEL 1
REMARK VINA RESULT:      -7.6      0.000      0.000
REMARK  Name = 
REMARK  6 active torsions:
REMARK  status: ('A' for Active; 'I' for Inactive)
REMARK    1  A    between atoms: C_1  and  C_2
REMARK    2  A    between atoms: C_6  and  N_7
REMARK    3  A    between atoms: C_8  and  C_10
REMARK    4  A    between atoms: C_13  and  N_14
REMARK    5  A    between atoms: C_18  and  C_19
REMARK    6  A    between atoms: C_19  and  O_21
REMARK                            x       y       z     vdW  Elec       q    Type
REMARK                         _______ _______ _______ _____ _____    ______ ____
ROOT
ATOM      1  C   UNL     1       4.356   4.403  17.495  0.00  0.00    +0.000 A 
ATOM      2  C   UNL     1       2.990   4.024  17.435  0.00  0.00    +0.000 A 
ATOM      3  C   UNL     1       2.283   3.603  18.561  0.00  0.00    +0.000 A 
ATOM      4  C   UNL     1       2.940   3.560  19.787  0.00  0.00    +0.000 A 
ATOM      5  C   UNL     1       4.292   3.922  19.882  0.00  0.00    +0.000 A 
ATOM      6  C   UNL     1       5.018   4.324  18.739  0.00  0.00    +0.000 A 
ENDROOT
BRANCH   1   8
ATOM      7  N   UNL     1       5.474   3.834  15.370  0.00  0.00    +0.000 N 
ATOM      8  C   UNL     1       4.918   4.808  16.163  0.00  0.00    +0.000 C 
ATOM      9  O   UNL     1       4.869   6.009  15.909  0.00  0.00    +0.000 OA
ATOM     10  H   UNL     1       5.376   2.858  15.629  0.00  0.00    +0.000 HD
BRANCH   7  16
ATOM     11  C   UNL     1       8.897   6.111  12.917  0.00  0.00    +0.000 C 
ATOM     12  C   UNL     1       7.771   5.126  12.903  0.00  0.00    +0.000 A 
ATOM     13  C   UNL     1       7.365   4.491  11.738  0.00  0.00    +0.000 A 
ATOM     14  C   UNL     1       6.297   3.603  11.807  0.00  0.00    +0.000 A 
ATOM     15  C   UNL     1       5.672   3.384  13.027  0.00  0.00    +0.000 A 
ATOM     16  C   UNL     1       6.130   4.063  14.153  0.00  0.00    +0.000 A 
ATOM     17  N   UNL     1       7.160   4.917  14.088  0.00  0.00    +0.000 NA
ENDBRANCH   7  16
ENDBRANCH   1   8
BRANCH   4  18
ATOM     18  N   UNL     1       2.211   3.145  20.993  0.00  0.00    +0.000 N 
ATOM     19  O   UNL     1       2.863   2.645  21.917  0.00  0.00    +0.000 OA
ATOM     20  O   UNL     1       0.987   3.331  21.006  0.00  0.00    +0.000 OA
ENDBRANCH   4  18
BRANCH   6  21
ATOM     21  C   UNL     1       6.440   4.705  18.954  0.00  0.00    +0.000 C 
ATOM     22  O   UNL     1       6.804   5.398  19.888  0.00  0.00    +0.000 OA
BRANCH  21  23
ATOM     23  O   UNL     1       7.317   4.173  18.080  0.00  0.00    +0.000 OA
ATOM     24  H   UNL     1       6.979   3.593  17.372  0.00  0.00    +0.000 HD
ENDBRANCH  21  23
ENDBRANCH   6  21
TORSDOF 5
ENDMDL
MODEL 2
REMARK VINA RESULT:      -7.5      4.367      7.760
REMARK  Name = 
REMARK  6 active torsions:
REMARK  status: ('A' for Active; 'I' for Inactive)
REMARK    1  A    between atoms: C_1  and  C_2
REMARK    2  A    between atoms: C_6  and  N_7
REMARK    3  A    between atoms: C_8  and  C_10
REMARK    4  A    between atoms: C_13  and  N_14
REMARK    5  A    between atoms: C_18  and  C_19
REMARK    6  A    between atoms: C_19  and  O_21
REMARK                            x       y       z     vdW  Elec       q    Type
REMARK                         _______ _______ _______ _____ _____    ______ ____
ROOT
ATOM      1  C   UNL     1       3.666   6.154  17.730  0.00  0.00    +0.000 A 
ATOM      2  C   UNL     1       4.657   7.011  17.186  0.00  0.00    +0.000 A 
ATOM      3  C   UNL     1       5.643   6.549  16.313  0.00  0.00    +0.000 A 
ATOM      4  C   UNL     1       5.648   5.204  15.960  0.00  0.00    +0.000 A 
ATOM      5  C   UNL     1       4.686   4.327  16.484  0.00  0.00    +0.000 A 
ATOM      6  C   UNL     1       3.703   4.785  17.388  0.00  0.00    +0.000 A 
ENDROOT
BRANCH   1   8
ATOM      7  N   UNL     1       2.195   8.066  18.253  0.00  0.00    +0.000 N 
ATOM      8  C   UNL     1       2.716   6.859  18.654  0.00  0.00    +0.000 C 
ATOM      9  O   UNL     1       2.514   6.306  19.732  0.00  0.00    +0.000 OA
ATOM     10  H   UNL     1       2.349   8.389  17.303  0.00  0.00    +0.000 HD
BRANCH   7  16
ATOM     11  C   UNL     1       0.571   9.314  22.579  0.00  0.00    +0.000 C 
ATOM     12  C   UNL     1       0.557   9.556  21.103  0.00  0.00    +0.000 A 
ATOM     13  C   UNL     1      -0.247  10.529  20.525  0.00  0.00    +0.000 A 
ATOM     14  C   UNL     1      -0.215  10.678  19.143  0.00  0.00    +0.000 A 
ATOM     15  C   UNL     1       0.609   9.854  18.389  0.00  0.00    +0.000 A 
ATOM     16  C   UNL     1       1.382   8.894  19.037  0.00  0.00    +0.000 A 
ATOM     17  N   UNL     1       1.354   8.752  20.369  0.00  0.00    +0.000 NA
ENDBRANCH   7  16
ENDBRANCH   1   8
BRANCH   4  18
ATOM     18  N   UNL     1       6.660   4.697  15.023  0.00  0.00    +0.000 N 
ATOM     19  O   UNL     1       6.384   3.688  14.365  0.00  0.00    +0.000 OA
ATOM     20  O   UNL     1       7.726   5.324  14.950  0.00  0.00    +0.000 OA
ENDBRANCH   4  18
BRANCH   6  21
ATOM     21  C   UNL     1       2.719   3.777  17.868  0.00  0.00    +0.000 C 
ATOM     22  O   UNL     1       1.847   3.314  17.154  0.00  0.00    +0.000 OA
BRANCH  21  23
ATOM     23  O   UNL     1       2.899   3.354  19.135  0.00  0.00    +0.000 OA
ATOM     24  H   UNL     1       2.608   2.454  19.373  0.00  0.00    +0.000 HD
ENDBRANCH  21  23
ENDBRANCH   6  21
TORSDOF 5
ENDMDL
MODEL 3
REMARK VINA RESULT:      -7.4      5.050      7.601
REMARK  Name = 
REMARK  6 active torsions:
REMARK  status: ('A' for Active; 'I' for Inactive)
REMARK    1  A    between atoms: C_1  and  C_2
REMARK    2  A    between atoms: C_6  and  N_7
REMARK    3  A    between atoms: C_8  and  C_10
REMARK    4  A    between atoms: C_13  and  N_14
REMARK    5  A    between atoms: C_18  and  C_19
REMARK    6  A    between atoms: C_19  and  O_21
REMARK                            x       y       z     vdW  Elec       q    Type
REMARK                         _______ _______ _______ _____ _____    ______ ____
ROOT
ATOM      1  C   UNL     1       3.331   6.679  17.845  0.00  0.00    +0.000 A 
ATOM      2  C   UNL     1       4.530   7.266  17.367  0.00  0.00    +0.000 A 
ATOM      3  C   UNL     1       5.542   6.513  16.773  0.00  0.00    +0.000 A 
ATOM      4  C   UNL     1       5.366   5.140  16.639  0.00  0.00    +0.000 A 
ATOM      5  C   UNL     1       4.194   4.525  17.107  0.00  0.00    +0.000 A 
ATOM      6  C   UNL     1       3.178   5.280  17.732  0.00  0.00    +0.000 A 
ENDROOT
BRANCH   1   8
ATOM      7  N   UNL     1       1.864   8.655  17.652  0.00  0.00    +0.000 N 
ATOM      8  C   UNL     1       2.387   7.673  18.459  0.00  0.00    +0.000 C 
ATOM      9  O   UNL     1       2.192   7.547  19.665  0.00  0.00    +0.000 OA
ATOM     10  H   UNL     1       2.012   8.613  16.649  0.00  0.00    +0.000 HD
BRANCH   7  16
ATOM     11  C   UNL     1       1.490  12.904  19.823  0.00  0.00    +0.000 C 
ATOM     12  C   UNL     1       0.802  11.774  19.126  0.00  0.00    +0.000 A 
ATOM     13  C   UNL     1      -0.574  11.749  18.948  0.00  0.00    +0.000 A 
ATOM     14  C   UNL     1      -1.138  10.652  18.305  0.00  0.00    +0.000 A 
ATOM     15  C   UNL     1      -0.315   9.622  17.869  0.00  0.00    +0.000 A 
ATOM     16  C   UNL     1       1.058   9.713  18.090  0.00  0.00    +0.000 A 
ATOM     17  N   UNL     1       1.601  10.771  18.707  0.00  0.00    +0.000 NA
ENDBRANCH   7  16
ENDBRANCH   1   8
BRANCH   4  18
ATOM     18  N   UNL     1       6.406   4.328  15.995  0.00  0.00    +0.000 N 
ATOM     19  O   UNL     1       6.063   3.570  15.079  0.00  0.00    +0.000 OA
ATOM     20  O   UNL     1       7.565   4.462  16.409  0.00  0.00    +0.000 OA
ENDBRANCH   4  18
BRANCH   6  21
ATOM     21  C   UNL     1       1.970   4.533  18.173  0.00  0.00    +0.000 C 
ATOM     22  O   UNL     1       1.202   3.999  17.392  0.00  0.00    +0.000 OA
BRANCH  21  23
ATOM     23  O   UNL     1       1.815   4.425  19.508  0.00  0.00    +0.000 OA
ATOM     24  H   UNL     1       1.210   3.742  19.855  0.00  0.00    +0.000 HD
ENDBRANCH  21  23
ENDBRANCH   6  21
TORSDOF 5
ENDMDL
MODEL 4
REMARK VINA RESULT:      -7.4      4.893      7.643
REMARK  Name = 
REMARK  6 active torsions:
REMARK  status: ('A' for Active; 'I' for Inactive)
REMARK    1  A    between atoms: C_1  and  C_2
REMARK    2  A    between atoms: C_6  and  N_7
REMARK    3  A    between atoms: C_8  and  C_10
REMARK    4  A    between atoms: C_13  and  N_14
REMARK    5  A    between atoms: C_18  and  C_19
REMARK    6  A    between atoms: C_19  and  O_21
REMARK                            x       y       z     vdW  Elec       q    Type
REMARK                         _______ _______ _______ _____ _____    ______ ____
ROOT
ATOM      1  C   UNL     1       3.500   6.596  17.775  0.00  0.00    +0.000 A 
ATOM      2  C   UNL     1       4.685   7.224  17.311  0.00  0.00    +0.000 A 
ATOM      3  C   UNL     1       5.735   6.504  16.741  0.00  0.00    +0.000 A 
ATOM      4  C   UNL     1       5.611   5.124  16.617  0.00  0.00    +0.000 A 
ATOM      5  C   UNL     1       4.456   4.470  17.070  0.00  0.00    +0.000 A 
ATOM      6  C   UNL     1       3.402   5.192  17.671  0.00  0.00    +0.000 A 
ENDROOT
BRANCH   1   8
ATOM      7  N   UNL     1       2.014   8.555  17.555  0.00  0.00    +0.000 N 
ATOM      8  C   UNL     1       2.510   7.560  18.363  0.00  0.00    +0.000 C 
ATOM      9  O   UNL     1       2.255   7.398  19.554  0.00  0.00    +0.000 OA
ATOM     10  H   UNL     1       2.214   8.541  16.561  0.00  0.00    +0.000 HD
BRANCH   7  16
ATOM     11  C   UNL     1      -2.419  10.300  18.015  0.00  0.00    +0.000 C 
ATOM     12  C   UNL     1      -0.952  10.494  18.237  0.00  0.00    +0.000 A 
ATOM     13  C   UNL     1      -0.442  11.655  18.802  0.00  0.00    +0.000 A 
ATOM     14  C   UNL     1       0.936  11.763  18.958  0.00  0.00    +0.000 A 
ATOM     15  C   UNL     1       1.752  10.719  18.543  0.00  0.00    +0.000 A 
ATOM     16  C   UNL     1       1.169   9.588  17.977  0.00  0.00    +0.000 A 
ATOM     17  N   UNL     1      -0.159   9.482  17.830  0.00  0.00    +0.000 NA
ENDBRANCH   7  16
ENDBRANCH   1   8
BRANCH   4  18
ATOM     18  N   UNL     1       6.692   4.346  15.997  0.00  0.00    +0.000 N 
ATOM     19  O   UNL     1       6.440   3.741  14.948  0.00  0.00    +0.000 OA
ATOM     20  O   UNL     1       7.792   4.353  16.566  0.00  0.00    +0.000 OA
ENDBRANCH   4  18
BRANCH   6  21
ATOM     21  C   UNL     1       2.214   4.404  18.098  0.00  0.00    +0.000 C 
ATOM     22  O   UNL     1       1.228   4.264  17.396  0.00  0.00    +0.000 OA
BRANCH  21  23
ATOM     23  O   UNL     1       2.329   3.791  19.293  0.00  0.00    +0.000 OA
ATOM     24  H   UNL     1       2.054   4.275  20.095  0.00  0.00    +0.000 HD
ENDBRANCH  21  23
ENDBRANCH   6  21
TORSDOF 5
ENDMDL
MODEL 5
REMARK VINA RESULT:      -7.3      4.307      7.786
REMARK  Name = 
REMARK  6 active torsions:
REMARK  status: ('A' for Active; 'I' for Inactive)
REMARK    1  A    between atoms: C_1  and  C_2
REMARK    2  A    between atoms: C_6  and  N_7
REMARK    3  A    between atoms: C_8  and  C_10
REMARK    4  A    between atoms: C_13  and  N_14
REMARK    5  A    between atoms: C_18  and  C_19
REMARK    6  A    between atoms: C_19  and  O_21
REMARK                            x       y       z     vdW  Elec       q    Type
REMARK                         _______ _______ _______ _____ _____    ______ ____
ROOT
ATOM      1  C   UNL     1       3.584   5.864  17.769  0.00  0.00    +0.000 A 
ATOM      2  C   UNL     1       4.545   6.802  17.313  0.00  0.00    +0.000 A 
ATOM      3  C   UNL     1       5.556   6.456  16.416  0.00  0.00    +0.000 A 
ATOM      4  C   UNL     1       5.618   5.148  15.949  0.00  0.00    +0.000 A 
ATOM      5  C   UNL     1       4.687   4.192  16.384  0.00  0.00    +0.000 A 
ATOM      6  C   UNL     1       3.678   4.532  17.311  0.00  0.00    +0.000 A 
ENDROOT
BRANCH   1   8
ATOM      7  N   UNL     1       2.349   7.799  18.676  0.00  0.00    +0.000 N 
ATOM      8  C   UNL     1       2.598   6.449  18.738  0.00  0.00    +0.000 C 
ATOM      9  O   UNL     1       2.119   5.661  19.550  0.00  0.00    +0.000 OA
ATOM     10  H   UNL     1       2.722   8.344  17.905  0.00  0.00    +0.000 HD
BRANCH   7  16
ATOM     11  C   UNL     1      -0.791  11.328  19.452  0.00  0.00    +0.000 C 
ATOM     12  C   UNL     1       0.013  10.200  20.018  0.00  0.00    +0.000 A 
ATOM     13  C   UNL     1      -0.009   9.890  21.371  0.00  0.00    +0.000 A 
ATOM     14  C   UNL     1       0.782   8.838  21.820  0.00  0.00    +0.000 A 
ATOM     15  C   UNL     1       1.565   8.139  20.912  0.00  0.00    +0.000 A 
ATOM     16  C   UNL     1       1.541   8.512  19.570  0.00  0.00    +0.000 A 
ATOM     17  N   UNL     1       0.777   9.524  19.136  0.00  0.00    +0.000 NA
ENDBRANCH   7  16
ENDBRANCH   1   8
BRANCH   4  18
ATOM     18  N   UNL     1       6.658   4.764  14.985  0.00  0.00    +0.000 N 
ATOM     19  O   UNL     1       7.697   5.435  14.958  0.00  0.00    +0.000 OA
ATOM     20  O   UNL     1       6.427   3.783  14.265  0.00  0.00    +0.000 OA
ENDBRANCH   4  18
BRANCH   6  21
ATOM     21  C   UNL     1       2.731   3.449  17.691  0.00  0.00    +0.000 C 
ATOM     22  O   UNL     1       3.067   2.479  18.348  0.00  0.00    +0.000 OA
BRANCH  21  23
ATOM     23  O   UNL     1       1.451   3.646  17.316  0.00  0.00    +0.000 OA
ATOM     24  H   UNL     1       1.002   2.949  16.801  0.00  0.00    +0.000 HD
ENDBRANCH  21  23
ENDBRANCH   6  21
TORSDOF 5
ENDMDL
MODEL 6
REMARK VINA RESULT:      -7.3      4.486      7.896
REMARK  Name = 
REMARK  6 active torsions:
REMARK  status: ('A' for Active; 'I' for Inactive)
REMARK    1  A    between atoms: C_1  and  C_2
REMARK    2  A    between atoms: C_6  and  N_7
REMARK    3  A    between atoms: C_8  and  C_10
REMARK    4  A    between atoms: C_13  and  N_14
REMARK    5  A    between atoms: C_18  and  C_19
REMARK    6  A    between atoms: C_19  and  O_21
REMARK                            x       y       z     vdW  Elec       q    Type
REMARK                         _______ _______ _______ _____ _____    ______ ____
ROOT
ATOM      1  C   UNL     1       3.492   6.773  17.717  0.00  0.00    +0.000 A 
ATOM      2  C   UNL     1       4.686   7.308  17.168  0.00  0.00    +0.000 A 
ATOM      3  C   UNL     1       5.678   6.499  16.613  0.00  0.00    +0.000 A 
ATOM      4  C   UNL     1       5.485   5.122  16.591  0.00  0.00    +0.000 A 
ATOM      5  C   UNL     1       4.319   4.559  17.131  0.00  0.00    +0.000 A 
ATOM      6  C   UNL     1       3.324   5.372  17.717  0.00  0.00    +0.000 A 
ENDROOT
BRANCH   1   8
ATOM      7  N   UNL     1       2.238   7.758  19.601  0.00  0.00    +0.000 N 
ATOM      8  C   UNL     1       2.572   7.824  18.270  0.00  0.00    +0.000 C 
ATOM      9  O   UNL     1       2.154   8.645  17.458  0.00  0.00    +0.000 OA
ATOM     10  H   UNL     1       2.715   7.098  20.207  0.00  0.00    +0.000 HD
BRANCH   7  16
ATOM     11  C   UNL     1      -0.960  11.308  19.333  0.00  0.00    +0.000 C 
ATOM     12  C   UNL     1      -0.250  10.306  20.186  0.00  0.00    +0.000 A 
ATOM     13  C   UNL     1      -0.462  10.224  21.555  0.00  0.00    +0.000 A 
ATOM     14  C   UNL     1       0.251   9.275  22.280  0.00  0.00    +0.000 A 
ATOM     15  C   UNL     1       1.150   8.450  21.618  0.00  0.00    +0.000 A 
ATOM     16  C   UNL     1       1.316   8.594  20.243  0.00  0.00    +0.000 A 
ATOM     17  N   UNL     1       0.627   9.506  19.544  0.00  0.00    +0.000 NA
ENDBRANCH   7  16
ENDBRANCH   1   8
BRANCH   4  18
ATOM     18  N   UNL     1       6.503   4.250  15.990  0.00  0.00    +0.000 N 
ATOM     19  O   UNL     1       7.664   4.346  16.405  0.00  0.00    +0.000 OA
ATOM     20  O   UNL     1       6.126   3.468  15.107  0.00  0.00    +0.000 OA
ENDBRANCH   4  18
BRANCH   6  21
ATOM     21  C   UNL     1       2.119   4.676  18.241  0.00  0.00    +0.000 C 
ATOM     22  O   UNL     1       1.833   4.651  19.426  0.00  0.00    +0.000 OA
BRANCH  21  23
ATOM     23  O   UNL     1       1.318   4.127  17.306  0.00  0.00    +0.000 OA
ATOM     24  H   UNL     1       1.085   3.183  17.385  0.00  0.00    +0.000 HD
ENDBRANCH  21  23
ENDBRANCH   6  21
TORSDOF 5
ENDMDL
MODEL 7
REMARK VINA RESULT:      -7.2      2.476      7.177
REMARK  Name = 
REMARK  6 active torsions:
REMARK  status: ('A' for Active; 'I' for Inactive)
REMARK    1  A    between atoms: C_1  and  C_2
REMARK    2  A    between atoms: C_6  and  N_7
REMARK    3  A    between atoms: C_8  and  C_10
REMARK    4  A    between atoms: C_13  and  N_14
REMARK    5  A    between atoms: C_18  and  C_19
REMARK    6  A    between atoms: C_19  and  O_21
REMARK                            x       y       z     vdW  Elec       q    Type
REMARK                         _______ _______ _______ _____ _____    ______ ____
ROOT
ATOM      1  C   UNL     1       5.832   4.615  16.436  0.00  0.00    +0.000 A 
ATOM      2  C   UNL     1       5.485   3.786  15.339  0.00  0.00    +0.000 A 
ATOM      3  C   UNL     1       6.090   3.914  14.088  0.00  0.00    +0.000 A 
ATOM      4  C   UNL     1       7.072   4.883  13.916  0.00  0.00    +0.000 A 
ATOM      5  C   UNL     1       7.436   5.724  14.978  0.00  0.00    +0.000 A 
ATOM      6  C   UNL     1       6.807   5.616  16.238  0.00  0.00    +0.000 A 
ENDROOT
BRANCH   1   8
ATOM      7  N   UNL     1       3.676   4.404  17.620  0.00  0.00    +0.000 N 
ATOM      8  C   UNL     1       5.046   4.312  17.679  0.00  0.00    +0.000 C 
ATOM      9  O   UNL     1       5.712   4.042  18.676  0.00  0.00    +0.000 OA
ATOM     10  H   UNL     1       3.220   4.539  16.725  0.00  0.00    +0.000 HD
BRANCH   7  16
ATOM     11  C   UNL     1       1.178   6.406  21.179  0.00  0.00    +0.000 C 
ATOM     12  C   UNL     1       1.571   5.158  20.454  0.00  0.00    +0.000 A 
ATOM     13  C   UNL     1       1.132   3.905  20.857  0.00  0.00    +0.000 A 
ATOM     14  C   UNL     1       1.558   2.793  20.139  0.00  0.00    +0.000 A 
ATOM     15  C   UNL     1       2.406   2.968  19.053  0.00  0.00    +0.000 A 
ATOM     16  C   UNL     1       2.811   4.256  18.712  0.00  0.00    +0.000 A 
ATOM     17  N   UNL     1       2.398   5.328  19.402  0.00  0.00    +0.000 NA
ENDBRANCH   7  16
ENDBRANCH   1   8
BRANCH   4  18
ATOM     18  N   UNL     1       7.743   5.021  12.616  0.00  0.00    +0.000 N 
ATOM     19  O   UNL     1       7.433   4.229  11.719  0.00  0.00    +0.000 OA
ATOM     20  O   UNL     1       8.574   5.933  12.503  0.00  0.00    +0.000 OA
ENDBRANCH   4  18
BRANCH   6  21
ATOM     21  C   UNL     1       7.281   6.542  17.300  0.00  0.00    +0.000 C 
ATOM     22  O   UNL     1       7.138   7.751  17.235  0.00  0.00    +0.000 OA
BRANCH  21  23
ATOM     23  O   UNL     1       7.823   5.949  18.383  0.00  0.00    +0.000 OA
ATOM     24  H   UNL     1       7.404   5.140  18.732  0.00  0.00    +0.000 HD
ENDBRANCH  21  23
ENDBRANCH   6  21
TORSDOF 5
ENDMDL
MODEL 8
REMARK VINA RESULT:      -7.2      4.074      7.480
REMARK  Name = 
REMARK  6 active torsions:
REMARK  status: ('A' for Active; 'I' for Inactive)
REMARK    1  A    between atoms: C_1  and  C_2
REMARK    2  A    between atoms: C_6  and  N_7
REMARK    3  A    between atoms: C_8  and  C_10
REMARK    4  A    between atoms: C_13  and  N_14
REMARK    5  A    between atoms: C_18  and  C_19
REMARK    6  A    between atoms: C_19  and  O_21
REMARK                            x       y       z     vdW  Elec       q    Type
REMARK                         _______ _______ _______ _____ _____    ______ ____
ROOT
ATOM      1  C   UNL     1       4.299   5.715  17.501  0.00  0.00    +0.000 A 
ATOM      2  C   UNL     1       4.768   6.686  16.579  0.00  0.00    +0.000 A 
ATOM      3  C   UNL     1       5.565   6.349  15.485  0.00  0.00    +0.000 A 
ATOM      4  C   UNL     1       5.904   5.015  15.288  0.00  0.00    +0.000 A 
ATOM      5  C   UNL     1       5.462   4.029  16.184  0.00  0.00    +0.000 A 
ATOM      6  C   UNL     1       4.677   4.369  17.307  0.00  0.00    +0.000 A 
ENDROOT
BRANCH   1   8
ATOM      7  N   UNL     1       2.642   7.357  18.309  0.00  0.00    +0.000 N 
ATOM      8  C   UNL     1       3.469   6.301  18.607  0.00  0.00    +0.000 C 
ATOM      9  O   UNL     1       3.637   5.802  19.718  0.00  0.00    +0.000 OA
ATOM     10  H   UNL     1       2.503   7.629  17.342  0.00  0.00    +0.000 HD
BRANCH   7  16
ATOM     11  C   UNL     1       0.096  11.263  19.392  0.00  0.00    +0.000 C 
ATOM     12  C   UNL     1       0.637   9.940  19.835  0.00  0.00    +0.000 A 
ATOM     13  C   UNL     1       0.434   9.458  21.121  0.00  0.00    +0.000 A 
ATOM     14  C   UNL     1       0.985   8.227  21.459  0.00  0.00    +0.000 A 
ATOM     15  C   UNL     1       1.719   7.527  20.511  0.00  0.00    +0.000 A 
ATOM     16  C   UNL     1       1.887   8.077  19.243  0.00  0.00    +0.000 A 
ATOM     17  N   UNL     1       1.354   9.262  18.916  0.00  0.00    +0.000 NA
ENDBRANCH   7  16
ENDBRANCH   1   8
BRANCH   4  18
ATOM     18  N   UNL     1       6.722   4.631  14.130  0.00  0.00    +0.000 N 
ATOM     19  O   UNL     1       7.717   5.318  13.872  0.00  0.00    +0.000 OA
ATOM     20  O   UNL     1       6.361   3.634  13.489  0.00  0.00    +0.000 OA
ENDBRANCH   4  18
BRANCH   6  21
ATOM     21  C   UNL     1       4.244   3.246  18.181  0.00  0.00    +0.000 C 
ATOM     22  O   UNL     1       3.281   2.544  17.927  0.00  0.00    +0.000 OA
BRANCH  21  23
ATOM     23  O   UNL     1       5.035   3.007  19.247  0.00  0.00    +0.000 OA
ATOM     24  H   UNL     1       4.986   2.135  19.680  0.00  0.00    +0.000 HD
ENDBRANCH  21  23
ENDBRANCH   6  21
TORSDOF 5
ENDMDL
MODEL 9
REMARK VINA RESULT:      -7.2      4.468      7.954
REMARK  Name = 
REMARK  6 active torsions:
REMARK  status: ('A' for Active; 'I' for Inactive)
REMARK    1  A    between atoms: C_1  and  C_2
REMARK    2  A    between atoms: C_6  and  N_7
REMARK    3  A    between atoms: C_8  and  C_10
REMARK    4  A    between atoms: C_13  and  N_14
REMARK    5  A    between atoms: C_18  and  C_19
REMARK    6  A    between atoms: C_19  and  O_21
REMARK                            x       y       z     vdW  Elec       q    Type
REMARK                         _______ _______ _______ _____ _____    ______ ____
ROOT
ATOM      1  C   UNL     1       3.529   6.843  17.658  0.00  0.00    +0.000 A 
ATOM      2  C   UNL     1       4.767   7.334  17.170  0.00  0.00    +0.000 A 
ATOM      3  C   UNL     1       5.767   6.488  16.692  0.00  0.00    +0.000 A 
ATOM      4  C   UNL     1       5.539   5.116  16.688  0.00  0.00    +0.000 A 
ATOM      5  C   UNL     1       4.327   4.595  17.168  0.00  0.00    +0.000 A 
ATOM      6  C   UNL     1       3.322   5.447  17.677  0.00  0.00    +0.000 A 
ENDROOT
BRANCH   1   8
ATOM      7  N   UNL     1       2.195   7.903  19.444  0.00  0.00    +0.000 N 
ATOM      8  C   UNL     1       2.607   7.929  18.133  0.00  0.00    +0.000 C 
ATOM      9  O   UNL     1       2.259   8.742  17.280  0.00  0.00    +0.000 OA
ATOM     10  H   UNL     1       2.617   7.246  20.091  0.00  0.00    +0.000 HD
BRANCH   7  16
ATOM     11  C   UNL     1      -0.115   9.483  23.327  0.00  0.00    +0.000 C 
ATOM     12  C   UNL     1       0.107   9.597  21.852  0.00  0.00    +0.000 A 
ATOM     13  C   UNL     1      -0.600  10.500  21.070  0.00  0.00    +0.000 A 
ATOM     14  C   UNL     1      -0.346  10.530  19.703  0.00  0.00    +0.000 A 
ATOM     15  C   UNL     1       0.594   9.661  19.166  0.00  0.00    +0.000 A 
ATOM     16  C   UNL     1       1.260   8.777  20.012  0.00  0.00    +0.000 A 
ATOM     17  N   UNL     1       1.018   8.750  21.330  0.00  0.00    +0.000 NA
ENDBRANCH   7  16
ENDBRANCH   1   8
BRANCH   4  18
ATOM     18  N   UNL     1       6.566   4.204  16.166  0.00  0.00    +0.000 N 
ATOM     19  O   UNL     1       7.709   4.299  16.627  0.00  0.00    +0.000 OA
ATOM     20  O   UNL     1       6.214   3.393  15.300  0.00  0.00    +0.000 OA
ENDBRANCH   4  18
BRANCH   6  21
ATOM     21  C   UNL     1       2.070   4.794  18.143  0.00  0.00    +0.000 C 
ATOM     22  O   UNL     1       1.299   4.230  17.387  0.00  0.00    +0.000 OA
BRANCH  21  23
ATOM     23  O   UNL     1       1.875   4.807  19.477  0.00  0.00    +0.000 OA
ATOM     24  H   UNL     1       1.318   5.509  19.862  0.00  0.00    +0.000 HD
ENDBRANCH  21  23
ENDBRANCH   6  21
TORSDOF 5
ENDMDL
