MODEL 1
REMARK VINA RESULT:      -7.5      0.000      0.000
REMARK  Name = 
REMARK  6 active torsions:
REMARK  status: ('A' for Active; 'I' for Inactive)
REMARK    1  A    between atoms: C_1  and  C_2
REMARK    2  A    between atoms: C_5  and  O_6
REMARK    3  A    between atoms: C_7  and  C_8
REMARK    4  A    between atoms: C_8  and  C_10
REMARK    5  A    between atoms: C_10  and  C_11
REMARK    6  A    between atoms: C_11  and  C_13
REMARK                            x       y       z     vdW  Elec       q    Type
REMARK                         _______ _______ _______ _____ _____    ______ ____
ROOT
ATOM      1  C   UNL     1       4.408   2.935  18.551  0.00  0.00    +0.000 C 
ATOM      2  O   UNL     1       4.736   2.640  19.702  0.00  0.00    +0.000 OA
ENDROOT
BRANCH   1   8
ATOM      3  C   UNL     1       6.313   4.419  14.177  0.00  0.00    +0.000 C 
ATOM      4  C   UNL     1       6.148   4.641  15.651  0.00  0.00    +0.000 A 
ATOM      5  C   UNL     1       6.741   5.742  16.276  0.00  0.00    +0.000 A 
ATOM      6  C   UNL     1       6.554   5.965  17.639  0.00  0.00    +0.000 A 
ATOM      7  C   UNL     1       5.782   5.083  18.396  0.00  0.00    +0.000 A 
ATOM      8  C   UNL     1       5.210   3.951  17.804  0.00  0.00    +0.000 A 
ATOM      9  C   UNL     1       5.389   3.747  16.424  0.00  0.00    +0.000 A 
BRANCH   7  10
ATOM     10  O   UNL     1       5.551   5.383  19.705  0.00  0.00    +0.000 OA
ATOM     11  H   UNL     1       6.106   4.822  20.275  0.00  0.00    +0.000 HD
ENDBRANCH   7  10
ENDBRANCH   1   8
BRANCH   1  12
ATOM     12  C   UNL     1       3.163   2.336  17.941  0.00  0.00    +0.000 C 
BRANCH  12  13
ATOM     13  C   UNL     1       1.887   3.064  18.298  0.00  0.00    +0.000 C 
ATOM     14  O   UNL     1       0.802   2.490  18.237  0.00  0.00    +0.000 OA
BRANCH  13  15
ATOM     15  C   UNL     1       1.968   4.473  18.806  0.00  0.00    +0.000 A 
ATOM     16  C   UNL     1       2.163   5.522  17.885  0.00  0.00    +0.000 A 
ATOM     17  C   UNL     1       2.304   6.841  18.319  0.00  0.00    +0.000 A 
ATOM     18  C   UNL     1       2.258   7.140  19.675  0.00  0.00    +0.000 A 
ATOM     19  C   UNL     1       2.060   6.114  20.599  0.00  0.00    +0.000 A 
ATOM     20  C   UNL     1       1.914   4.785  20.176  0.00  0.00    +0.000 A 
ATOM     21 CL   UNL     1       1.612   3.619  21.415  0.00  0.00    +0.000 Cl
ENDBRANCH  13  15
ENDBRANCH  12  13
ENDBRANCH   1  12
TORSDOF 5
ENDMDL
MODEL 2
REMARK VINA RESULT:      -7.3      2.205      3.660
REMARK  Name = 
REMARK  6 active torsions:
REMARK  status: ('A' for Active; 'I' for Inactive)
REMARK    1  A    between atoms: C_1  and  C_2
REMARK    2  A    between atoms: C_5  and  O_6
REMARK    3  A    between atoms: C_7  and  C_8
REMARK    4  A    between atoms: C_8  and  C_10
REMARK    5  A    between atoms: C_10  and  C_11
REMARK    6  A    between atoms: C_11  and  C_13
REMARK                            x       y       z     vdW  Elec       q    Type
REMARK                         _______ _______ _______ _____ _____    ______ ____
ROOT
ATOM      1  C   UNL     1       5.040   4.929  16.089  0.00  0.00    +0.000 C 
ATOM      2  O   UNL     1       4.957   6.089  16.495  0.00  0.00    +0.000 OA
ENDROOT
BRANCH   1   8
ATOM      3  C   UNL     1       4.842   2.858  11.545  0.00  0.00    +0.000 C 
ATOM      4  C   UNL     1       5.616   3.618  12.581  0.00  0.00    +0.000 A 
ATOM      5  C   UNL     1       6.928   4.029  12.330  0.00  0.00    +0.000 A 
ATOM      6  C   UNL     1       7.630   4.768  13.280  0.00  0.00    +0.000 A 
ATOM      7  C   UNL     1       7.033   5.094  14.498  0.00  0.00    +0.000 A 
ATOM      8  C   UNL     1       5.735   4.661  14.792  0.00  0.00    +0.000 A 
ATOM      9  C   UNL     1       5.029   3.933  13.818  0.00  0.00    +0.000 A 
BRANCH   7  10
ATOM     10  O   UNL     1       7.719   5.892  15.364  0.00  0.00    +0.000 OA
ATOM     11  H   UNL     1       7.145   6.141  16.110  0.00  0.00    +0.000 HD
ENDBRANCH   7  10
ENDBRANCH   1   8
BRANCH   1  12
ATOM     12  C   UNL     1       4.376   3.808  16.853  0.00  0.00    +0.000 C 
BRANCH  12  13
ATOM     13  C   UNL     1       4.597   3.864  18.348  0.00  0.00    +0.000 C 
ATOM     14  O   UNL     1       5.724   4.044  18.806  0.00  0.00    +0.000 OA
BRANCH  13  15
ATOM     15  C   UNL     1       3.413   3.778  19.264  0.00  0.00    +0.000 A 
ATOM     16  C   UNL     1       3.014   2.517  19.750  0.00  0.00    +0.000 A 
ATOM     17  C   UNL     1       1.883   2.384  20.557  0.00  0.00    +0.000 A 
ATOM     18  C   UNL     1       1.126   3.500  20.890  0.00  0.00    +0.000 A 
ATOM     19  C   UNL     1       1.511   4.757  20.422  0.00  0.00    +0.000 A 
ATOM     20  C   UNL     1       2.647   4.905  19.614  0.00  0.00    +0.000 A 
ATOM     21 CL   UNL     1       3.050   6.521  19.153  0.00  0.00    +0.000 Cl
ENDBRANCH  13  15
ENDBRANCH  12  13
ENDBRANCH   1  12
TORSDOF 5
ENDMDL
MODEL 3
REMARK VINA RESULT:      -7.2      2.173      3.513
REMARK  Name = 
REMARK  6 active torsions:
REMARK  status: ('A' for Active; 'I' for Inactive)
REMARK    1  A    between atoms: C_1  and  C_2
REMARK    2  A    between atoms: C_5  and  O_6
REMARK    3  A    between atoms: C_7  and  C_8
REMARK    4  A    between atoms: C_8  and  C_10
REMARK    5  A    between atoms: C_10  and  C_11
REMARK    6  A    between atoms: C_11  and  C_13
REMARK                            x       y       z     vdW  Elec       q    Type
REMARK                         _______ _______ _______ _____ _____    ______ ____
ROOT
ATOM      1  C   UNL     1       5.141   4.877  15.887  0.00  0.00    +0.000 C 
ATOM      2  O   UNL     1       5.073   6.047  16.267  0.00  0.00    +0.000 OA
ENDROOT
BRANCH   1   8
ATOM      3  C   UNL     1       4.694   2.754  11.385  0.00  0.00    +0.000 C 
ATOM      4  C   UNL     1       5.530   3.510  12.375  0.00  0.00    +0.000 A 
ATOM      5  C   UNL     1       6.837   3.890  12.059  0.00  0.00    +0.000 A 
ATOM      6  C   UNL     1       7.596   4.625  12.967  0.00  0.00    +0.000 A 
ATOM      7  C   UNL     1       7.062   4.979  14.206  0.00  0.00    +0.000 A 
ATOM      8  C   UNL     1       5.771   4.578  14.564  0.00  0.00    +0.000 A 
ATOM      9  C   UNL     1       5.006   3.853  13.633  0.00  0.00    +0.000 A 
BRANCH   7  10
ATOM     10  O   UNL     1       7.804   5.772  15.030  0.00  0.00    +0.000 OA
ATOM     11  H   UNL     1       7.328   5.916  15.867  0.00  0.00    +0.000 HD
ENDBRANCH   7  10
ENDBRANCH   1   8
BRANCH   1  12
ATOM     12  C   UNL     1       4.521   3.774  16.712  0.00  0.00    +0.000 C 
BRANCH  12  13
ATOM     13  C   UNL     1       4.650   3.973  18.206  0.00  0.00    +0.000 C 
ATOM     14  O   UNL     1       5.746   3.884  18.755  0.00  0.00    +0.000 OA
BRANCH  13  15
ATOM     15  C   UNL     1       3.436   4.359  18.998  0.00  0.00    +0.000 A 
ATOM     16  C   UNL     1       3.271   5.703  19.386  0.00  0.00    +0.000 A 
ATOM     17  C   UNL     1       2.187   6.095  20.173  0.00  0.00    +0.000 A 
ATOM     18  C   UNL     1       1.253   5.156  20.593  0.00  0.00    +0.000 A 
ATOM     19  C   UNL     1       1.399   3.823  20.214  0.00  0.00    +0.000 A 
ATOM     20  C   UNL     1       2.481   3.417  19.419  0.00  0.00    +0.000 A 
ATOM     21 CL   UNL     1       2.512   1.749  18.967  0.00  0.00    +0.000 Cl
ENDBRANCH  13  15
ENDBRANCH  12  13
ENDBRANCH   1  12
TORSDOF 5
ENDMDL
MODEL 4
REMARK VINA RESULT:      -7.2      2.261      3.446
REMARK  Name = 
REMARK  6 active torsions:
REMARK  status: ('A' for Active; 'I' for Inactive)
REMARK    1  A    between atoms: C_1  and  C_2
REMARK    2  A    between atoms: C_5  and  O_6
REMARK    3  A    between atoms: C_7  and  C_8
REMARK    4  A    between atoms: C_8  and  C_10
REMARK    5  A    between atoms: C_10  and  C_11
REMARK    6  A    between atoms: C_11  and  C_13
REMARK                            x       y       z     vdW  Elec       q    Type
REMARK                         _______ _______ _______ _____ _____    ______ ____
ROOT
ATOM      1  C   UNL     1       5.058   4.759  16.092  0.00  0.00    +0.000 C 
ATOM      2  O   UNL     1       4.750   5.900  16.440  0.00  0.00    +0.000 OA
ENDROOT
BRANCH   1   8
ATOM      3  C   UNL     1       4.868   2.810  11.495  0.00  0.00    +0.000 C 
ATOM      4  C   UNL     1       5.626   3.574  12.539  0.00  0.00    +0.000 A 
ATOM      5  C   UNL     1       6.914   4.050  12.277  0.00  0.00    +0.000 A 
ATOM      6  C   UNL     1       7.600   4.793  13.237  0.00  0.00    +0.000 A 
ATOM      7  C   UNL     1       7.011   5.057  14.474  0.00  0.00    +0.000 A 
ATOM      8  C   UNL     1       5.740   4.558  14.777  0.00  0.00    +0.000 A 
ATOM      9  C   UNL     1       5.049   3.828  13.794  0.00  0.00    +0.000 A 
BRANCH   7  10
ATOM     10  O   UNL     1       7.678   5.860  15.350  0.00  0.00    +0.000 OA
ATOM     11  H   UNL     1       8.625   5.634  15.350  0.00  0.00    +0.000 HD
ENDBRANCH   7  10
ENDBRANCH   1   8
BRANCH   1  12
ATOM     12  C   UNL     1       4.674   3.576  16.949  0.00  0.00    +0.000 C 
BRANCH  12  13
ATOM     13  C   UNL     1       3.220   3.559  17.365  0.00  0.00    +0.000 C 
ATOM     14  O   UNL     1       2.336   3.354  16.536  0.00  0.00    +0.000 OA
BRANCH  13  15
ATOM     15  C   UNL     1       2.875   3.718  18.816  0.00  0.00    +0.000 A 
ATOM     16  C   UNL     1       2.977   2.602  19.669  0.00  0.00    +0.000 A 
ATOM     17  C   UNL     1       2.610   2.690  21.013  0.00  0.00    +0.000 A 
ATOM     18  C   UNL     1       2.129   3.886  21.530  0.00  0.00    +0.000 A 
ATOM     19  C   UNL     1       2.026   5.002  20.699  0.00  0.00    +0.000 A 
ATOM     20  C   UNL     1       2.396   4.928  19.349  0.00  0.00    +0.000 A 
ATOM     21 CL   UNL     1       2.281   6.397  18.445  0.00  0.00    +0.000 Cl
ENDBRANCH  13  15
ENDBRANCH  12  13
ENDBRANCH   1  12
TORSDOF 5
ENDMDL
MODEL 5
REMARK VINA RESULT:      -7.2      1.760      2.790
REMARK  Name = 
REMARK  6 active torsions:
REMARK  status: ('A' for Active; 'I' for Inactive)
REMARK    1  A    between atoms: C_1  and  C_2
REMARK    2  A    between atoms: C_5  and  O_6
REMARK    3  A    between atoms: C_7  and  C_8
REMARK    4  A    between atoms: C_8  and  C_10
REMARK    5  A    between atoms: C_10  and  C_11
REMARK    6  A    between atoms: C_11  and  C_13
REMARK                            x       y       z     vdW  Elec       q    Type
REMARK                         _______ _______ _______ _____ _____    ______ ____
ROOT
ATOM      1  C   UNL     1       3.806   5.901  18.445  0.00  0.00    +0.000 C 
ATOM      2  O   UNL     1       3.924   6.423  19.555  0.00  0.00    +0.000 OA
ENDROOT
BRANCH   1   8
ATOM      3  C   UNL     1       5.890   4.377  14.166  0.00  0.00    +0.000 C 
ATOM      4  C   UNL     1       6.014   4.633  15.639  0.00  0.00    +0.000 A 
ATOM      5  C   UNL     1       7.217   4.386  16.306  0.00  0.00    +0.000 A 
ATOM      6  C   UNL     1       7.339   4.662  17.666  0.00  0.00    +0.000 A 
ATOM      7  C   UNL     1       6.255   5.176  18.379  0.00  0.00    +0.000 A 
ATOM      8  C   UNL     1       5.027   5.395  17.745  0.00  0.00    +0.000 A 
ATOM      9  C   UNL     1       4.922   5.132  16.368  0.00  0.00    +0.000 A 
BRANCH   7  10
ATOM     10  O   UNL     1       6.440   5.514  19.686  0.00  0.00    +0.000 OA
ATOM     11  H   UNL     1       6.891   6.375  19.744  0.00  0.00    +0.000 HD
ENDBRANCH   7  10
ENDBRANCH   1   8
BRANCH   1  12
ATOM     12  C   UNL     1       2.456   5.850  17.771  0.00  0.00    +0.000 C 
BRANCH  12  13
ATOM     13  C   UNL     1       1.702   4.558  17.994  0.00  0.00    +0.000 C 
ATOM     14  O   UNL     1       0.929   4.131  17.139  0.00  0.00    +0.000 OA
BRANCH  13  15
ATOM     15  C   UNL     1       1.969   3.763  19.238  0.00  0.00    +0.000 A 
ATOM     16  C   UNL     1       1.318   4.124  20.434  0.00  0.00    +0.000 A 
ATOM     17  C   UNL     1       1.582   3.449  21.626  0.00  0.00    +0.000 A 
ATOM     18  C   UNL     1       2.500   2.406  21.651  0.00  0.00    +0.000 A 
ATOM     19  C   UNL     1       3.149   2.033  20.475  0.00  0.00    +0.000 A 
ATOM     20  C   UNL     1       2.890   2.701  19.269  0.00  0.00    +0.000 A 
ATOM     21 CL   UNL     1       3.711   2.100  17.873  0.00  0.00    +0.000 Cl
ENDBRANCH  13  15
ENDBRANCH  12  13
ENDBRANCH   1  12
TORSDOF 5
ENDMDL
MODEL 6
REMARK VINA RESULT:      -7.1      2.345      4.977
REMARK  Name = 
REMARK  6 active torsions:
REMARK  status: ('A' for Active; 'I' for Inactive)
REMARK    1  A    between atoms: C_1  and  C_2
REMARK    2  A    between atoms: C_5  and  O_6
REMARK    3  A    between atoms: C_7  and  C_8
REMARK    4  A    between atoms: C_8  and  C_10
REMARK    5  A    between atoms: C_10  and  C_11
REMARK    6  A    between atoms: C_11  and  C_13
REMARK                            x       y       z     vdW  Elec       q    Type
REMARK                         _______ _______ _______ _____ _____    ______ ____
ROOT
ATOM      1  C   UNL     1       3.801   3.631  18.045  0.00  0.00    +0.000 C 
ATOM      2  O   UNL     1       4.073   2.599  18.660  0.00  0.00    +0.000 OA
ENDROOT
BRANCH   1   8
ATOM      3  C   UNL     1       2.357   8.415  18.002  0.00  0.00    +0.000 C 
ATOM      4  C   UNL     1       2.448   7.104  18.725  0.00  0.00    +0.000 A 
ATOM      5  C   UNL     1       1.934   6.966  20.018  0.00  0.00    +0.000 A 
ATOM      6  C   UNL     1       1.987   5.736  20.670  0.00  0.00    +0.000 A 
ATOM      7  C   UNL     1       2.566   4.632  20.044  0.00  0.00    +0.000 A 
ATOM      8  C   UNL     1       3.124   4.752  18.767  0.00  0.00    +0.000 A 
ATOM      9  C   UNL     1       3.048   5.992  18.110  0.00  0.00    +0.000 A 
BRANCH   7  10
ATOM     10  O   UNL     1       2.519   3.428  20.680  0.00  0.00    +0.000 OA
ATOM     11  H   UNL     1       2.677   3.551  21.633  0.00  0.00    +0.000 HD
ENDBRANCH   7  10
ENDBRANCH   1   8
BRANCH   1  12
ATOM     12  C   UNL     1       4.076   3.725  16.563  0.00  0.00    +0.000 C 
BRANCH  12  13
ATOM     13  C   UNL     1       5.538   3.905  16.216  0.00  0.00    +0.000 C 
ATOM     14  O   UNL     1       6.059   3.221  15.338  0.00  0.00    +0.000 OA
BRANCH  13  15
ATOM     15  C   UNL     1       6.323   4.984  16.900  0.00  0.00    +0.000 A 
ATOM     16  C   UNL     1       7.250   4.627  17.899  0.00  0.00    +0.000 A 
ATOM     17  C   UNL     1       7.959   5.603  18.601  0.00  0.00    +0.000 A 
ATOM     18  C   UNL     1       7.754   6.949  18.328  0.00  0.00    +0.000 A 
ATOM     19  C   UNL     1       6.843   7.319  17.339  0.00  0.00    +0.000 A 
ATOM     20  C   UNL     1       6.128   6.349  16.623  0.00  0.00    +0.000 A 
ATOM     21 CL   UNL     1       5.078   6.937  15.382  0.00  0.00    +0.000 Cl
ENDBRANCH  13  15
ENDBRANCH  12  13
ENDBRANCH   1  12
TORSDOF 5
ENDMDL
MODEL 7
REMARK VINA RESULT:      -7.0      1.868      2.589
REMARK  Name = 
REMARK  6 active torsions:
REMARK  status: ('A' for Active; 'I' for Inactive)
REMARK    1  A    between atoms: C_1  and  C_2
REMARK    2  A    between atoms: C_5  and  O_6
REMARK    3  A    between atoms: C_7  and  C_8
REMARK    4  A    between atoms: C_8  and  C_10
REMARK    5  A    between atoms: C_10  and  C_11
REMARK    6  A    between atoms: C_11  and  C_13
REMARK                            x       y       z     vdW  Elec       q    Type
REMARK                         _______ _______ _______ _____ _____    ______ ____
ROOT
ATOM      1  C   UNL     1       4.987   4.161  16.742  0.00  0.00    +0.000 C 
ATOM      2  O   UNL     1       4.974   3.869  15.545  0.00  0.00    +0.000 OA
ENDROOT
BRANCH   1   8
ATOM      3  C   UNL     1       8.414   5.419  20.154  0.00  0.00    +0.000 C 
ATOM      4  C   UNL     1       7.625   5.776  18.930  0.00  0.00    +0.000 A 
ATOM      5  C   UNL     1       7.801   7.014  18.306  0.00  0.00    +0.000 A 
ATOM      6  C   UNL     1       7.093   7.327  17.147  0.00  0.00    +0.000 A 
ATOM      7  C   UNL     1       6.191   6.410  16.605  0.00  0.00    +0.000 A 
ATOM      8  C   UNL     1       5.966   5.180  17.232  0.00  0.00    +0.000 A 
ATOM      9  C   UNL     1       6.700   4.867  18.389  0.00  0.00    +0.000 A 
BRANCH   7  10
ATOM     10  O   UNL     1       5.585   6.717  15.424  0.00  0.00    +0.000 OA
ATOM     11  H   UNL     1       6.090   7.412  14.964  0.00  0.00    +0.000 HD
ENDBRANCH   7  10
ENDBRANCH   1   8
BRANCH   1  12
ATOM     12  C   UNL     1       4.080   3.438  17.708  0.00  0.00    +0.000 C 
BRANCH  12  13
ATOM     13  C   UNL     1       2.666   3.975  17.749  0.00  0.00    +0.000 C 
ATOM     14  O   UNL     1       1.761   3.395  17.151  0.00  0.00    +0.000 OA
BRANCH  13  15
ATOM     15  C   UNL     1       2.366   5.178  18.592  0.00  0.00    +0.000 A 
ATOM     16  C   UNL     1       2.658   6.459  18.084  0.00  0.00    +0.000 A 
ATOM     17  C   UNL     1       2.450   7.602  18.857  0.00  0.00    +0.000 A 
ATOM     18  C   UNL     1       1.952   7.491  20.150  0.00  0.00    +0.000 A 
ATOM     19  C   UNL     1       1.653   6.231  20.666  0.00  0.00    +0.000 A 
ATOM     20  C   UNL     1       1.854   5.074  19.898  0.00  0.00    +0.000 A 
ATOM     21 CL   UNL     1       1.384   3.581  20.630  0.00  0.00    +0.000 Cl
ENDBRANCH  13  15
ENDBRANCH  12  13
ENDBRANCH   1  12
TORSDOF 5
ENDMDL
MODEL 8
REMARK VINA RESULT:      -7.0      2.386      5.081
REMARK  Name = 
REMARK  6 active torsions:
REMARK  status: ('A' for Active; 'I' for Inactive)
REMARK    1  A    between atoms: C_1  and  C_2
REMARK    2  A    between atoms: C_5  and  O_6
REMARK    3  A    between atoms: C_7  and  C_8
REMARK    4  A    between atoms: C_8  and  C_10
REMARK    5  A    between atoms: C_10  and  C_11
REMARK    6  A    between atoms: C_11  and  C_13
REMARK                            x       y       z     vdW  Elec       q    Type
REMARK                         _______ _______ _______ _____ _____    ______ ____
ROOT
ATOM      1  C   UNL     1       2.779   4.063  18.037  0.00  0.00    +0.000 C 
ATOM      2  O   UNL     1       1.925   3.516  17.336  0.00  0.00    +0.000 OA
ENDROOT
BRANCH   1   8
ATOM      3  C   UNL     1       2.245   9.028  17.845  0.00  0.00    +0.000 C 
ATOM      4  C   UNL     1       2.195   7.758  18.641  0.00  0.00    +0.000 A 
ATOM      5  C   UNL     1       1.853   7.779  19.996  0.00  0.00    +0.000 A 
ATOM      6  C   UNL     1       1.771   6.592  20.721  0.00  0.00    +0.000 A 
ATOM      7  C   UNL     1       2.043   5.371  20.104  0.00  0.00    +0.000 A 
ATOM      8  C   UNL     1       2.428   5.324  18.760  0.00  0.00    +0.000 A 
ATOM      9  C   UNL     1       2.488   6.526  18.032  0.00  0.00    +0.000 A 
BRANCH   7  10
ATOM     10  O   UNL     1       1.867   4.227  20.824  0.00  0.00    +0.000 OA
ATOM     11  H   UNL     1       2.717   3.762  20.919  0.00  0.00    +0.000 HD
ENDBRANCH   7  10
ENDBRANCH   1   8
BRANCH   1  12
ATOM     12  C   UNL     1       4.182   3.508  18.094  0.00  0.00    +0.000 C 
BRANCH  12  13
ATOM     13  C   UNL     1       5.113   4.073  17.044  0.00  0.00    +0.000 C 
ATOM     14  O   UNL     1       5.023   3.714  15.872  0.00  0.00    +0.000 OA
BRANCH  13  15
ATOM     15  C   UNL     1       6.097   5.135  17.437  0.00  0.00    +0.000 A 
ATOM     16  C   UNL     1       7.027   4.863  18.459  0.00  0.00    +0.000 A 
ATOM     17  C   UNL     1       7.920   5.841  18.895  0.00  0.00    +0.000 A 
ATOM     18  C   UNL     1       7.901   7.110  18.328  0.00  0.00    +0.000 A 
ATOM     19  C   UNL     1       6.990   7.394  17.311  0.00  0.00    +0.000 A 
ATOM     20  C   UNL     1       6.089   6.418  16.861  0.00  0.00    +0.000 A 
ATOM     21 CL   UNL     1       5.057   6.879  15.554  0.00  0.00    +0.000 Cl
ENDBRANCH  13  15
ENDBRANCH  12  13
ENDBRANCH   1  12
TORSDOF 5
ENDMDL
MODEL 9
REMARK VINA RESULT:      -7.0      2.357      5.340
REMARK  Name = 
REMARK  6 active torsions:
REMARK  status: ('A' for Active; 'I' for Inactive)
REMARK    1  A    between atoms: C_1  and  C_2
REMARK    2  A    between atoms: C_5  and  O_6
REMARK    3  A    between atoms: C_7  and  C_8
REMARK    4  A    between atoms: C_8  and  C_10
REMARK    5  A    between atoms: C_10  and  C_11
REMARK    6  A    between atoms: C_11  and  C_13
REMARK                            x       y       z     vdW  Elec       q    Type
REMARK                         _______ _______ _______ _____ _____    ______ ____
ROOT
ATOM      1  C   UNL     1       3.685   3.029  17.615  0.00  0.00    +0.000 C 
ATOM      2  O   UNL     1       4.097   1.875  17.748  0.00  0.00    +0.000 OA
ENDROOT
BRANCH   1   8
ATOM      3  C   UNL     1       2.165   7.077  20.121  0.00  0.00    +0.000 C 
ATOM      4  C   UNL     1       2.069   5.599  19.882  0.00  0.00    +0.000 A 
ATOM      5  C   UNL     1       1.180   4.815  20.622  0.00  0.00    +0.000 A 
ATOM      6  C   UNL     1       1.067   3.449  20.370  0.00  0.00    +0.000 A 
ATOM      7  C   UNL     1       1.851   2.849  19.384  0.00  0.00    +0.000 A 
ATOM      8  C   UNL     1       2.778   3.603  18.656  0.00  0.00    +0.000 A 
ATOM      9  C   UNL     1       2.869   4.984  18.905  0.00  0.00    +0.000 A 
BRANCH   7  10
ATOM     10  O   UNL     1       1.648   1.530  19.108  0.00  0.00    +0.000 OA
ATOM     11  H   UNL     1       0.719   1.384  18.856  0.00  0.00    +0.000 HD
ENDBRANCH   7  10
ENDBRANCH   1   8
BRANCH   1  12
ATOM     12  C   UNL     1       4.030   3.819  16.375  0.00  0.00    +0.000 C 
BRANCH  12  13
ATOM     13  C   UNL     1       5.515   3.946  16.117  0.00  0.00    +0.000 C 
ATOM     14  O   UNL     1       6.064   3.245  15.269  0.00  0.00    +0.000 OA
BRANCH  13  15
ATOM     15  C   UNL     1       6.297   4.995  16.852  0.00  0.00    +0.000 A 
ATOM     16  C   UNL     1       7.219   4.595  17.839  0.00  0.00    +0.000 A 
ATOM     17  C   UNL     1       7.923   5.539  18.587  0.00  0.00    +0.000 A 
ATOM     18  C   UNL     1       7.720   6.897  18.371  0.00  0.00    +0.000 A 
ATOM     19  C   UNL     1       6.815   7.309  17.393  0.00  0.00    +0.000 A 
ATOM     20  C   UNL     1       6.103   6.370  16.632  0.00  0.00    +0.000 A 
ATOM     21 CL   UNL     1       5.061   7.011  15.412  0.00  0.00    +0.000 Cl
ENDBRANCH  13  15
ENDBRANCH  12  13
ENDBRANCH   1  12
TORSDOF 5
ENDMDL
