MODEL 1
REMARK VINA RESULT:      -9.1      0.000      0.000
REMARK  Name = 
REMARK  6 active torsions:
REMARK  status: ('A' for Active; 'I' for Inactive)
REMARK    1  A    between atoms: C_1  and  C_2
REMARK    2  A    between atoms: C_5  and  C_6
REMARK    3  A    between atoms: N_10  and  C_11
REMARK    4  A    between atoms: C_11  and  C_12
REMARK    5  A    between atoms: C_25  and  S_26
REMARK    6  A    between atoms: S_26  and  C_27
REMARK                            x       y       z     vdW  Elec       q    Type
REMARK                         _______ _______ _______ _____ _____    ______ ____
ROOT
ATOM      1  C   UNL     1       3.929   6.524  17.775  0.00  0.00    +0.000 A 
ATOM      2  C   UNL     1       3.547   7.788  17.482  0.00  0.00    +0.000 A 
ATOM      3  N   UNL     1       2.622   8.560  18.149  0.00  0.00    +0.000 NA
ATOM      4  C   UNL     1       2.025   8.041  19.184  0.00  0.00    +0.000 A 
ATOM      5  N   UNL     1       1.055   8.739  19.894  0.00  0.00    +0.000 N 
ATOM      6  N   UNL     1       2.384   6.725  19.579  0.00  0.00    +0.000 N 
ATOM      7  C   UNL     1       1.939   5.983  20.649  0.00  0.00    +0.000 A 
ATOM      8  N   UNL     1       2.493   4.792  20.700  0.00  0.00    +0.000 NA
ATOM      9  C   UNL     1       3.357   4.748  19.618  0.00  0.00    +0.000 A 
ATOM     10  C   UNL     1       3.315   5.939  18.911  0.00  0.00    +0.000 A 
ATOM     11  H   UNL     1       0.739   8.350  20.773  0.00  0.00    +0.000 HD
ENDROOT
BRANCH   1  16
ATOM     12  C   UNL     1       7.678   4.667  13.842  0.00  0.00    +0.000 C 
ATOM     13  C   UNL     1       6.711   5.028  14.935  0.00  0.00    +0.000 A 
ATOM     14  C   UNL     1       5.433   4.477  14.973  0.00  0.00    +0.000 A 
ATOM     15  C   UNL     1       4.529   4.927  15.941  0.00  0.00    +0.000 A 
ATOM     16  C   UNL     1       4.911   5.912  16.853  0.00  0.00    +0.000 A 
ATOM     17  C   UNL     1       6.224   6.365  16.764  0.00  0.00    +0.000 A 
ATOM     18  N   UNL     1       7.120   5.960  15.824  0.00  0.00    +0.000 NA
ENDBRANCH   1  16
BRANCH   9  19
ATOM     19  S   UNL     1       4.332   3.341  19.288  0.00  0.00    +0.000 S 
ATOM     20  C   UNL     1       4.077   2.264  20.670  0.00  0.00    +0.000 C 
ATOM     21  O   UNL     1       3.715   2.753  18.109  0.00  0.00    +0.000 OA
ATOM     22  O   UNL     1       5.690   3.834  19.298  0.00  0.00    +0.000 OA
ENDBRANCH   9  19
BRANCH   5  23
ATOM     23  C   UNL     1       0.947  10.201  19.851  0.00  0.00    +0.000 C 
BRANCH  23  24
ATOM     24  C   UNL     1      -0.469  10.623  19.520  0.00  0.00    +0.000 A 
ATOM     25  C   UNL     1      -1.041  10.286  18.281  0.00  0.00    +0.000 A 
ATOM     26  F   UNL     1      -0.339   9.531  17.423  0.00  0.00    +0.000 F 
ATOM     27  C   UNL     1      -2.291  10.776  17.858  0.00  0.00    +0.000 A 
ATOM     28  C   UNL     1      -2.959  11.730  18.619  0.00  0.00    +0.000 A 
ATOM     29  C   UNL     1      -2.364  12.093  19.805  0.00  0.00    +0.000 A 
ATOM     30  C   UNL     1      -1.237  11.449  20.327  0.00  0.00    +0.000 A 
ATOM     31  C   UNL     1      -1.086  11.970  21.712  0.00  0.00    +0.000 C 
ATOM     32  C   UNL     1      -1.512  13.384  21.362  0.00  0.00    +0.000 C 
ATOM     33  O   UNL     1      -2.703  13.215  20.538  0.00  0.00    +0.000 OA
ENDBRANCH  23  24
ENDBRANCH   5  23
TORSDOF 4
ENDMDL
MODEL 2
REMARK VINA RESULT:      -8.8      1.273      1.907
REMARK  Name = 
REMARK  6 active torsions:
REMARK  status: ('A' for Active; 'I' for Inactive)
REMARK    1  A    between atoms: C_1  and  C_2
REMARK    2  A    between atoms: C_5  and  C_6
REMARK    3  A    between atoms: N_10  and  C_11
REMARK    4  A    between atoms: C_11  and  C_12
REMARK    5  A    between atoms: C_25  and  S_26
REMARK    6  A    between atoms: S_26  and  C_27
REMARK                            x       y       z     vdW  Elec       q    Type
REMARK                         _______ _______ _______ _____ _____    ______ ____
ROOT
ATOM      1  C   UNL     1       3.983   6.453  17.657  0.00  0.00    +0.000 A 
ATOM      2  C   UNL     1       3.573   7.710  17.366  0.00  0.00    +0.000 A 
ATOM      3  N   UNL     1       2.636   8.462  18.038  0.00  0.00    +0.000 NA
ATOM      4  C   UNL     1       2.054   7.929  19.076  0.00  0.00    +0.000 A 
ATOM      5  N   UNL     1       1.073   8.607  19.790  0.00  0.00    +0.000 N 
ATOM      6  N   UNL     1       2.442   6.621  19.468  0.00  0.00    +0.000 N 
ATOM      7  C   UNL     1       2.018   5.869  20.540  0.00  0.00    +0.000 A 
ATOM      8  N   UNL     1       2.596   4.690  20.587  0.00  0.00    +0.000 NA
ATOM      9  C   UNL     1       3.456   4.664  19.501  0.00  0.00    +0.000 A 
ATOM     10  C   UNL     1       3.386   5.855  18.795  0.00  0.00    +0.000 A 
ATOM     11  H   UNL     1       0.769   8.210  20.671  0.00  0.00    +0.000 HD
ENDROOT
BRANCH   1  16
ATOM     12  C   UNL     1       7.767   4.686  13.717  0.00  0.00    +0.000 C 
ATOM     13  C   UNL     1       6.790   5.022  14.809  0.00  0.00    +0.000 A 
ATOM     14  C   UNL     1       5.513   4.469  14.825  0.00  0.00    +0.000 A 
ATOM     15  C   UNL     1       4.600   4.897  15.795  0.00  0.00    +0.000 A 
ATOM     16  C   UNL     1       4.973   5.862  16.730  0.00  0.00    +0.000 A 
ATOM     17  C   UNL     1       6.286   6.319  16.662  0.00  0.00    +0.000 A 
ATOM     18  N   UNL     1       7.191   5.935  15.721  0.00  0.00    +0.000 NA
ENDBRANCH   1  16
BRANCH   9  19
ATOM     19  S   UNL     1       4.458   3.278  19.166  0.00  0.00    +0.000 S 
ATOM     20  C   UNL     1       4.225   2.191  20.544  0.00  0.00    +0.000 C 
ATOM     21  O   UNL     1       3.853   2.683  17.984  0.00  0.00    +0.000 OA
ATOM     22  O   UNL     1       5.807   3.798  19.178  0.00  0.00    +0.000 OA
ENDBRANCH   9  19
BRANCH   5  23
ATOM     23  C   UNL     1       0.935  10.066  19.749  0.00  0.00    +0.000 C 
BRANCH  23  24
ATOM     24  C   UNL     1       0.168  10.564  20.956  0.00  0.00    +0.000 A 
ATOM     25  C   UNL     1       0.243   9.877  22.180  0.00  0.00    +0.000 A 
ATOM     26  F   UNL     1       1.053   8.813  22.281  0.00  0.00    +0.000 F 
ATOM     27  C   UNL     1      -0.561  10.202  23.289  0.00  0.00    +0.000 A 
ATOM     28  C   UNL     1      -1.565  11.157  23.165  0.00  0.00    +0.000 A 
ATOM     29  C   UNL     1      -1.666  11.786  21.946  0.00  0.00    +0.000 A 
ATOM     30  C   UNL     1      -0.731  11.619  20.918  0.00  0.00    +0.000 A 
ATOM     31  C   UNL     1      -1.068  12.654  19.903  0.00  0.00    +0.000 C 
ATOM     32  C   UNL     1      -2.569  12.531  20.089  0.00  0.00    +0.000 C 
ATOM     33  O   UNL     1      -2.759  12.525  21.535  0.00  0.00    +0.000 OA
ENDBRANCH  23  24
ENDBRANCH   5  23
TORSDOF 4
ENDMDL
MODEL 3
REMARK VINA RESULT:      -8.4      1.381      1.871
REMARK  Name = 
REMARK  6 active torsions:
REMARK  status: ('A' for Active; 'I' for Inactive)
REMARK    1  A    between atoms: C_1  and  C_2
REMARK    2  A    between atoms: C_5  and  C_6
REMARK    3  A    between atoms: N_10  and  C_11
REMARK    4  A    between atoms: C_11  and  C_12
REMARK    5  A    between atoms: C_25  and  S_26
REMARK    6  A    between atoms: S_26  and  C_27
REMARK                            x       y       z     vdW  Elec       q    Type
REMARK                         _______ _______ _______ _____ _____    ______ ____
ROOT
ATOM      1  C   UNL     1       4.067   6.539  17.385  0.00  0.00    +0.000 A 
ATOM      2  C   UNL     1       3.677   7.783  17.022  0.00  0.00    +0.000 A 
ATOM      3  N   UNL     1       2.753   8.588  17.649  0.00  0.00    +0.000 NA
ATOM      4  C   UNL     1       2.163   8.126  18.716  0.00  0.00    +0.000 A 
ATOM      5  N   UNL     1       1.194   8.860  19.389  0.00  0.00    +0.000 N 
ATOM      6  N   UNL     1       2.531   6.836  19.184  0.00  0.00    +0.000 N 
ATOM      7  C   UNL     1       2.095   6.156  20.297  0.00  0.00    +0.000 A 
ATOM      8  N   UNL     1       2.655   4.972  20.413  0.00  0.00    +0.000 NA
ATOM      9  C   UNL     1       3.513   4.869  19.331  0.00  0.00    +0.000 A 
ATOM     10  C   UNL     1       3.462   6.018  18.556  0.00  0.00    +0.000 A 
ATOM     11  H   UNL     1       0.885   8.520  20.292  0.00  0.00    +0.000 HD
ENDROOT
BRANCH   1  16
ATOM     12  C   UNL     1       7.851   4.502  13.577  0.00  0.00    +0.000 C 
ATOM     13  C   UNL     1       6.865   4.908  14.636  0.00  0.00    +0.000 A 
ATOM     14  C   UNL     1       5.557   4.432  14.621  0.00  0.00    +0.000 A 
ATOM     15  C   UNL     1       4.644   4.925  15.559  0.00  0.00    +0.000 A 
ATOM     16  C   UNL     1       5.046   5.879  16.494  0.00  0.00    +0.000 A 
ATOM     17  C   UNL     1       6.385   6.257  16.459  0.00  0.00    +0.000 A 
ATOM     18  N   UNL     1       7.292   5.809  15.549  0.00  0.00    +0.000 NA
ENDBRANCH   1  16
BRANCH   9  19
ATOM     19  S   UNL     1       4.493   3.450  19.076  0.00  0.00    +0.000 S 
ATOM     20  C   UNL     1       4.166   2.404  20.467  0.00  0.00    +0.000 C 
ATOM     21  O   UNL     1       3.928   2.841  17.882  0.00  0.00    +0.000 OA
ATOM     22  O   UNL     1       5.853   3.935  19.140  0.00  0.00    +0.000 OA
ENDBRANCH   9  19
BRANCH   5  23
ATOM     23  C   UNL     1       1.079  10.317  19.263  0.00  0.00    +0.000 C 
BRANCH  23  24
ATOM     24  C   UNL     1      -0.016  10.846  20.164  0.00  0.00    +0.000 A 
ATOM     25  C   UNL     1      -0.643  12.072  19.878  0.00  0.00    +0.000 A 
ATOM     26  F   UNL     1      -0.302  12.733  18.762  0.00  0.00    +0.000 F 
ATOM     27  C   UNL     1      -1.556  12.686  20.756  0.00  0.00    +0.000 A 
ATOM     28  C   UNL     1      -1.778  12.147  22.019  0.00  0.00    +0.000 A 
ATOM     29  C   UNL     1      -1.119  10.975  22.310  0.00  0.00    +0.000 A 
ATOM     30  C   UNL     1      -0.385  10.253  21.362  0.00  0.00    +0.000 A 
ATOM     31  C   UNL     1      -0.066   8.953  22.012  0.00  0.00    +0.000 C 
ATOM     32  C   UNL     1       0.156   9.551  23.389  0.00  0.00    +0.000 C 
ATOM     33  O   UNL     1      -0.972  10.455  23.582  0.00  0.00    +0.000 OA
ENDBRANCH  23  24
ENDBRANCH   5  23
TORSDOF 4
ENDMDL
MODEL 4
REMARK VINA RESULT:      -8.2      3.228      8.945
REMARK  Name = 
REMARK  6 active torsions:
REMARK  status: ('A' for Active; 'I' for Inactive)
REMARK    1  A    between atoms: C_1  and  C_2
REMARK    2  A    between atoms: C_5  and  C_6
REMARK    3  A    between atoms: N_10  and  C_11
REMARK    4  A    between atoms: C_11  and  C_12
REMARK    5  A    between atoms: C_25  and  S_26
REMARK    6  A    between atoms: S_26  and  C_27
REMARK                            x       y       z     vdW  Elec       q    Type
REMARK                         _______ _______ _______ _____ _____    ______ ____
ROOT
ATOM      1  C   UNL     1       1.244  11.565  18.969  0.00  0.00    +0.000 A 
ATOM      2  C   UNL     1       2.009  11.026  17.991  0.00  0.00    +0.000 A 
ATOM      3  N   UNL     1       2.356   9.703  17.834  0.00  0.00    +0.000 NA
ATOM      4  C   UNL     1       1.918   8.846  18.713  0.00  0.00    +0.000 A 
ATOM      5  N   UNL     1       2.249   7.498  18.648  0.00  0.00    +0.000 N 
ATOM      6  N   UNL     1       1.086   9.323  19.761  0.00  0.00    +0.000 N 
ATOM      7  C   UNL     1       0.467   8.623  20.771  0.00  0.00    +0.000 A 
ATOM      8  N   UNL     1      -0.228   9.401  21.570  0.00  0.00    +0.000 NA
ATOM      9  C   UNL     1      -0.072  10.678  21.056  0.00  0.00    +0.000 A 
ATOM     10  C   UNL     1       0.732  10.656  19.927  0.00  0.00    +0.000 A 
ATOM     11  H   UNL     1       1.759   6.860  19.262  0.00  0.00    +0.000 HD
ENDROOT
BRANCH   1  16
ATOM     12  C   UNL     1       0.477  17.239  19.411  0.00  0.00    +0.000 C 
ATOM     13  C   UNL     1       0.687  15.773  19.155  0.00  0.00    +0.000 A 
ATOM     14  C   UNL     1      -0.319  14.989  18.598  0.00  0.00    +0.000 A 
ATOM     15  C   UNL     1      -0.120  13.609  18.484  0.00  0.00    +0.000 A 
ATOM     16  C   UNL     1       1.073  13.034  18.922  0.00  0.00    +0.000 A 
ATOM     17  C   UNL     1       2.036  13.907  19.421  0.00  0.00    +0.000 A 
ATOM     18  N   UNL     1       1.866  15.249  19.560  0.00  0.00    +0.000 NA
ENDBRANCH   1  16
BRANCH   9  19
ATOM     19  S   UNL     1      -0.839  12.058  21.797  0.00  0.00    +0.000 S 
ATOM     20  C   UNL     1      -1.586  11.435  23.276  0.00  0.00    +0.000 C 
ATOM     21  O   UNL     1       0.270  12.928  22.155  0.00  0.00    +0.000 OA
ATOM     22  O   UNL     1      -1.867  12.445  20.858  0.00  0.00    +0.000 OA
ENDBRANCH   9  19
BRANCH   5  23
ATOM     23  C   UNL     1       2.701   6.857  17.408  0.00  0.00    +0.000 C 
BRANCH  23  24
ATOM     24  C   UNL     1       3.188   5.450  17.681  0.00  0.00    +0.000 A 
ATOM     25  C   UNL     1       2.277   4.381  17.743  0.00  0.00    +0.000 A 
ATOM     26  F   UNL     1       0.980   4.615  17.494  0.00  0.00    +0.000 F 
ATOM     27  C   UNL     1       2.648   3.082  18.141  0.00  0.00    +0.000 A 
ATOM     28  C   UNL     1       3.934   2.841  18.615  0.00  0.00    +0.000 A 
ATOM     29  C   UNL     1       4.803   3.907  18.600  0.00  0.00    +0.000 A 
ATOM     30  C   UNL     1       4.499   5.135  18.003  0.00  0.00    +0.000 A 
ATOM     31  C   UNL     1       5.778   5.895  17.985  0.00  0.00    +0.000 C 
ATOM     32  C   UNL     1       6.249   5.386  19.334  0.00  0.00    +0.000 C 
ATOM     33  O   UNL     1       5.999   3.950  19.291  0.00  0.00    +0.000 OA
ENDBRANCH  23  24
ENDBRANCH   5  23
TORSDOF 4
ENDMDL
MODEL 5
REMARK VINA RESULT:      -8.2      3.359      8.690
REMARK  Name = 
REMARK  6 active torsions:
REMARK  status: ('A' for Active; 'I' for Inactive)
REMARK    1  A    between atoms: C_1  and  C_2
REMARK    2  A    between atoms: C_5  and  C_6
REMARK    3  A    between atoms: N_10  and  C_11
REMARK    4  A    between atoms: C_11  and  C_12
REMARK    5  A    between atoms: C_25  and  S_26
REMARK    6  A    between atoms: S_26  and  C_27
REMARK                            x       y       z     vdW  Elec       q    Type
REMARK                         _______ _______ _______ _____ _____    ______ ____
ROOT
ATOM      1  C   UNL     1       1.287  11.077  19.021  0.00  0.00    +0.000 A 
ATOM      2  C   UNL     1       2.067  10.465  18.100  0.00  0.00    +0.000 A 
ATOM      3  N   UNL     1       2.436   9.139  18.064  0.00  0.00    +0.000 NA
ATOM      4  C   UNL     1       2.005   8.357  19.013  0.00  0.00    +0.000 A 
ATOM      5  N   UNL     1       2.357   7.014  19.070  0.00  0.00    +0.000 N 
ATOM      6  N   UNL     1       1.158   8.912  20.010  0.00  0.00    +0.000 N 
ATOM      7  C   UNL     1       0.543   8.295  21.075  0.00  0.00    +0.000 A 
ATOM      8  N   UNL     1      -0.169   9.131  21.797  0.00  0.00    +0.000 NA
ATOM      9  C   UNL     1      -0.030  10.359  21.172  0.00  0.00    +0.000 A 
ATOM     10  C   UNL     1       0.783  10.249  20.054  0.00  0.00    +0.000 A 
ATOM     11  H   UNL     1       1.872   6.425  19.736  0.00  0.00    +0.000 HD
ENDROOT
BRANCH   1  16
ATOM     12  C   UNL     1       0.456  16.759  18.954  0.00  0.00    +0.000 C 
ATOM     13  C   UNL     1       0.678  15.277  18.830  0.00  0.00    +0.000 A 
ATOM     14  C   UNL     1      -0.335  14.434  18.384  0.00  0.00    +0.000 A 
ATOM     15  C   UNL     1      -0.120  13.051  18.393  0.00  0.00    +0.000 A 
ATOM     16  C   UNL     1       1.094  12.533  18.843  0.00  0.00    +0.000 A 
ATOM     17  C   UNL     1       2.061  13.459  19.224  0.00  0.00    +0.000 A 
ATOM     18  N   UNL     1       1.877  14.807  19.242  0.00  0.00    +0.000 NA
ENDBRANCH   1  16
BRANCH   9  19
ATOM     19  S   UNL     1      -0.823  11.787  21.782  0.00  0.00    +0.000 S 
ATOM     20  C   UNL     1      -1.587  11.282  23.297  0.00  0.00    +0.000 C 
ATOM     21  O   UNL     1       0.271  12.698  22.082  0.00  0.00    +0.000 OA
ATOM     22  O   UNL     1      -1.840  12.082  20.798  0.00  0.00    +0.000 OA
ENDBRANCH   9  19
BRANCH   5  23
ATOM     23  C   UNL     1       2.827   6.273  17.896  0.00  0.00    +0.000 C 
BRANCH  23  24
ATOM     24  C   UNL     1       3.120   4.831  18.256  0.00  0.00    +0.000 A 
ATOM     25  C   UNL     1       3.872   4.019  17.388  0.00  0.00    +0.000 A 
ATOM     26  F   UNL     1       4.379   4.557  16.269  0.00  0.00    +0.000 F 
ATOM     27  C   UNL     1       4.048   2.638  17.595  0.00  0.00    +0.000 A 
ATOM     28  C   UNL     1       3.365   1.996  18.623  0.00  0.00    +0.000 A 
ATOM     29  C   UNL     1       2.589   2.791  19.434  0.00  0.00    +0.000 A 
ATOM     30  C   UNL     1       2.587   4.188  19.362  0.00  0.00    +0.000 A 
ATOM     31  C   UNL     1       1.830   4.646  20.558  0.00  0.00    +0.000 C 
ATOM     32  C   UNL     1       0.819   3.516  20.510  0.00  0.00    +0.000 C 
ATOM     33  O   UNL     1       1.621   2.316  20.299  0.00  0.00    +0.000 OA
ENDBRANCH  23  24
ENDBRANCH   5  23
TORSDOF 4
ENDMDL
MODEL 6
REMARK VINA RESULT:      -8.1      3.091      8.910
REMARK  Name = 
REMARK  6 active torsions:
REMARK  status: ('A' for Active; 'I' for Inactive)
REMARK    1  A    between atoms: C_1  and  C_2
REMARK    2  A    between atoms: C_5  and  C_6
REMARK    3  A    between atoms: N_10  and  C_11
REMARK    4  A    between atoms: C_11  and  C_12
REMARK    5  A    between atoms: C_25  and  S_26
REMARK    6  A    between atoms: S_26  and  C_27
REMARK                            x       y       z     vdW  Elec       q    Type
REMARK                         _______ _______ _______ _____ _____    ______ ____
ROOT
ATOM      1  C   UNL     1       1.457  10.235  18.750  0.00  0.00    +0.000 A 
ATOM      2  C   UNL     1       2.176   9.677  17.748  0.00  0.00    +0.000 A 
ATOM      3  N   UNL     1       2.682   8.398  17.691  0.00  0.00    +0.000 NA
ATOM      4  C   UNL     1       2.465   7.609  18.706  0.00  0.00    +0.000 A 
ATOM      5  N   UNL     1       2.969   6.314  18.744  0.00  0.00    +0.000 N 
ATOM      6  N   UNL     1       1.697   8.105  19.793  0.00  0.00    +0.000 N 
ATOM      7  C   UNL     1       1.296   7.463  20.942  0.00  0.00    +0.000 A 
ATOM      8  N   UNL     1       0.593   8.242  21.733  0.00  0.00    +0.000 NA
ATOM      9  C   UNL     1       0.514   9.456  21.070  0.00  0.00    +0.000 A 
ATOM     10  C   UNL     1       1.184   9.394  19.858  0.00  0.00    +0.000 A 
ATOM     11  H   UNL     1       2.642   5.700  19.480  0.00  0.00    +0.000 HD
ENDROOT
BRANCH   1  16
ATOM     12  C   UNL     1      -0.007  15.786  18.673  0.00  0.00    +0.000 C 
ATOM     13  C   UNL     1       0.363  14.335  18.552  0.00  0.00    +0.000 A 
ATOM     14  C   UNL     1      -0.596  13.372  18.252  0.00  0.00    +0.000 A 
ATOM     15  C   UNL     1      -0.229  12.021  18.262  0.00  0.00    +0.000 A 
ATOM     16  C   UNL     1       1.082  11.654  18.568  0.00  0.00    +0.000 A 
ATOM     17  C   UNL     1       1.978  12.692  18.807  0.00  0.00    +0.000 A 
ATOM     18  N   UNL     1       1.648  14.011  18.821  0.00  0.00    +0.000 NA
ENDBRANCH   1  16
BRANCH   9  19
ATOM     19  S   UNL     1      -0.348  10.810  21.749  0.00  0.00    +0.000 S 
ATOM     20  C   UNL     1      -0.896  10.262  23.340  0.00  0.00    +0.000 C 
ATOM     21  O   UNL     1       0.676  11.829  21.923  0.00  0.00    +0.000 OA
ATOM     22  O   UNL     1      -1.486  10.986  20.876  0.00  0.00    +0.000 OA
ENDBRANCH   9  19
BRANCH   5  23
ATOM     23  C   UNL     1       3.364   5.586  17.534  0.00  0.00    +0.000 C 
BRANCH  23  24
ATOM     24  C   UNL     1       4.805   5.132  17.630  0.00  0.00    +0.000 A 
ATOM     25  C   UNL     1       5.509   5.250  18.841  0.00  0.00    +0.000 A 
ATOM     26  F   UNL     1       4.868   5.710  19.926  0.00  0.00    +0.000 F 
ATOM     27  C   UNL     1       6.888   4.987  18.953  0.00  0.00    +0.000 A 
ATOM     28  C   UNL     1       7.639   4.715  17.813  0.00  0.00    +0.000 A 
ATOM     29  C   UNL     1       6.949   4.655  16.625  0.00  0.00    +0.000 A 
ATOM     30  C   UNL     1       5.553   4.700  16.545  0.00  0.00    +0.000 A 
ATOM     31  C   UNL     1       5.223   4.350  15.137  0.00  0.00    +0.000 C 
ATOM     32  C   UNL     1       6.407   5.087  14.542  0.00  0.00    +0.000 C 
ATOM     33  O   UNL     1       7.539   4.697  15.375  0.00  0.00    +0.000 OA
ENDBRANCH  23  24
ENDBRANCH   5  23
TORSDOF 4
ENDMDL
MODEL 7
REMARK VINA RESULT:      -8.1      3.491      9.001
REMARK  Name = 
REMARK  6 active torsions:
REMARK  status: ('A' for Active; 'I' for Inactive)
REMARK    1  A    between atoms: C_1  and  C_2
REMARK    2  A    between atoms: C_5  and  C_6
REMARK    3  A    between atoms: N_10  and  C_11
REMARK    4  A    between atoms: C_11  and  C_12
REMARK    5  A    between atoms: C_25  and  S_26
REMARK    6  A    between atoms: S_26  and  C_27
REMARK                            x       y       z     vdW  Elec       q    Type
REMARK                         _______ _______ _______ _____ _____    ______ ____
ROOT
ATOM      1  C   UNL     1       1.131  11.439  19.263  0.00  0.00    +0.000 A 
ATOM      2  C   UNL     1       1.912  10.757  18.392  0.00  0.00    +0.000 A 
ATOM      3  N   UNL     1       2.210   9.413  18.410  0.00  0.00    +0.000 NA
ATOM      4  C   UNL     1       1.702   8.686  19.364  0.00  0.00    +0.000 A 
ATOM      5  N   UNL     1       1.980   7.329  19.475  0.00  0.00    +0.000 N 
ATOM      6  N   UNL     1       0.849   9.316  20.310  0.00  0.00    +0.000 N 
ATOM      7  C   UNL     1       0.162   8.766  21.367  0.00  0.00    +0.000 A 
ATOM      8  N   UNL     1      -0.532   9.660  22.035  0.00  0.00    +0.000 NA
ATOM      9  C   UNL     1      -0.303  10.859  21.380  0.00  0.00    +0.000 A 
ATOM     10  C   UNL     1       0.544  10.672  20.299  0.00  0.00    +0.000 A 
ATOM     11  H   UNL     1       1.439   6.787  20.138  0.00  0.00    +0.000 HD
ENDROOT
BRANCH   1  16
ATOM     12  C   UNL     1       0.578  17.148  18.988  0.00  0.00    +0.000 C 
ATOM     13  C   UNL     1       0.740  15.655  18.920  0.00  0.00    +0.000 A 
ATOM     14  C   UNL     1      -0.270  14.846  18.407  0.00  0.00    +0.000 A 
ATOM     15  C   UNL     1      -0.123  13.455  18.468  0.00  0.00    +0.000 A 
ATOM     16  C   UNL     1       1.024  12.896  19.034  0.00  0.00    +0.000 A 
ATOM     17  C   UNL     1       1.996  13.788  19.475  0.00  0.00    +0.000 A 
ATOM     18  N   UNL     1       1.875  15.143  19.445  0.00  0.00    +0.000 NA
ENDBRANCH   1  16
BRANCH   9  19
ATOM     19  S   UNL     1      -1.042  12.345  21.915  0.00  0.00    +0.000 S 
ATOM     20  C   UNL     1      -1.932  11.918  23.385  0.00  0.00    +0.000 C 
ATOM     21  O   UNL     1       0.086  13.191  22.273  0.00  0.00    +0.000 OA
ATOM     22  O   UNL     1      -1.972  12.684  20.863  0.00  0.00    +0.000 OA
ENDBRANCH   9  19
BRANCH   5  23
ATOM     23  C   UNL     1       2.454   6.527  18.343  0.00  0.00    +0.000 C 
BRANCH  23  24
ATOM     24  C   UNL     1       3.123   5.259  18.829  0.00  0.00    +0.000 A 
ATOM     25  C   UNL     1       4.520   5.114  18.744  0.00  0.00    +0.000 A 
ATOM     26  F   UNL     1       5.254   6.138  18.287  0.00  0.00    +0.000 F 
ATOM     27  C   UNL     1       5.181   3.906  19.038  0.00  0.00    +0.000 A 
ATOM     28  C   UNL     1       4.446   2.757  19.309  0.00  0.00    +0.000 A 
ATOM     29  C   UNL     1       3.077   2.898  19.338  0.00  0.00    +0.000 A 
ATOM     30  C   UNL     1       2.433   4.137  19.262  0.00  0.00    +0.000 A 
ATOM     31  C   UNL     1       1.006   3.863  19.584  0.00  0.00    +0.000 C 
ATOM     32  C   UNL     1       0.966   2.529  18.863  0.00  0.00    +0.000 C 
ATOM     33  O   UNL     1       2.182   1.846  19.290  0.00  0.00    +0.000 OA
ENDBRANCH  23  24
ENDBRANCH   5  23
TORSDOF 4
ENDMDL
MODEL 8
REMARK VINA RESULT:      -8.0      1.332      2.014
REMARK  Name = 
REMARK  6 active torsions:
REMARK  status: ('A' for Active; 'I' for Inactive)
REMARK    1  A    between atoms: C_1  and  C_2
REMARK    2  A    between atoms: C_5  and  C_6
REMARK    3  A    between atoms: N_10  and  C_11
REMARK    4  A    between atoms: C_11  and  C_12
REMARK    5  A    between atoms: C_25  and  S_26
REMARK    6  A    between atoms: S_26  and  C_27
REMARK                            x       y       z     vdW  Elec       q    Type
REMARK                         _______ _______ _______ _____ _____    ______ ____
ROOT
ATOM      1  C   UNL     1       3.647   6.853  17.875  0.00  0.00    +0.000 A 
ATOM      2  C   UNL     1       3.400   8.134  17.515  0.00  0.00    +0.000 A 
ATOM      3  N   UNL     1       2.518   9.013  18.101  0.00  0.00    +0.000 NA
ATOM      4  C   UNL     1       1.821   8.593  19.119  0.00  0.00    +0.000 A 
ATOM      5  N   UNL     1       0.884   9.405  19.748  0.00  0.00    +0.000 N 
ATOM      6  N   UNL     1       2.035   7.267  19.581  0.00  0.00    +0.000 N 
ATOM      7  C   UNL     1       1.468   6.613  20.650  0.00  0.00    +0.000 A 
ATOM      8  N   UNL     1       1.905   5.380  20.775  0.00  0.00    +0.000 NA
ATOM      9  C   UNL     1       2.817   5.213  19.745  0.00  0.00    +0.000 A 
ATOM     10  C   UNL     1       2.923   6.373  18.994  0.00  0.00    +0.000 A 
ATOM     11  H   UNL     1       0.488   9.081  20.622  0.00  0.00    +0.000 HD
ENDROOT
BRANCH   1  16
ATOM     12  C   UNL     1       7.331   4.458  14.177  0.00  0.00    +0.000 C 
ATOM     13  C   UNL     1       6.383   4.970  15.226  0.00  0.00    +0.000 A 
ATOM     14  C   UNL     1       5.111   4.424  15.372  0.00  0.00    +0.000 A 
ATOM     15  C   UNL     1       4.222   5.007  16.283  0.00  0.00    +0.000 A 
ATOM     16  C   UNL     1       4.615   6.117  17.032  0.00  0.00    +0.000 A 
ATOM     17  C   UNL     1       5.922   6.559  16.849  0.00  0.00    +0.000 A 
ATOM     18  N   UNL     1       6.802   6.024  15.960  0.00  0.00    +0.000 NA
ENDBRANCH   1  16
BRANCH   9  19
ATOM     19  S   UNL     1       3.672   3.711  19.521  0.00  0.00    +0.000 S 
ATOM     20  C   UNL     1       3.243   2.717  20.922  0.00  0.00    +0.000 C 
ATOM     21  O   UNL     1       3.069   3.135  18.329  0.00  0.00    +0.000 OA
ATOM     22  O   UNL     1       5.068   4.077  19.592  0.00  0.00    +0.000 OA
ENDBRANCH   9  19
BRANCH   5  23
ATOM     23  C   UNL     1       0.915  10.867  19.647  0.00  0.00    +0.000 C 
BRANCH  23  24
ATOM     24  C   UNL     1      -0.490  11.432  19.632  0.00  0.00    +0.000 A 
ATOM     25  C   UNL     1      -0.970  12.175  20.725  0.00  0.00    +0.000 A 
ATOM     26  F   UNL     1      -0.145  12.432  21.750  0.00  0.00    +0.000 F 
ATOM     27  C   UNL     1      -2.309  12.595  20.834  0.00  0.00    +0.000 A 
ATOM     28  C   UNL     1      -3.250  12.170  19.901  0.00  0.00    +0.000 A 
ATOM     29  C   UNL     1      -2.780  11.397  18.864  0.00  0.00    +0.000 A 
ATOM     30  C   UNL     1      -1.419  11.164  18.638  0.00  0.00    +0.000 A 
ATOM     31  C   UNL     1      -1.343  10.516  17.301  0.00  0.00    +0.000 C 
ATOM     32  C   UNL     1      -2.609   9.699  17.484  0.00  0.00    +0.000 C 
ATOM     33  O   UNL     1      -3.579  10.644  18.026  0.00  0.00    +0.000 OA
ENDBRANCH  23  24
ENDBRANCH   5  23
TORSDOF 4
ENDMDL
MODEL 9
REMARK VINA RESULT:      -8.0      3.220      8.982
REMARK  Name = 
REMARK  6 active torsions:
REMARK  status: ('A' for Active; 'I' for Inactive)
REMARK    1  A    between atoms: C_1  and  C_2
REMARK    2  A    between atoms: C_5  and  C_6
REMARK    3  A    between atoms: N_10  and  C_11
REMARK    4  A    between atoms: C_11  and  C_12
REMARK    5  A    between atoms: C_25  and  S_26
REMARK    6  A    between atoms: S_26  and  C_27
REMARK                            x       y       z     vdW  Elec       q    Type
REMARK                         _______ _______ _______ _____ _____    ______ ____
ROOT
ATOM      1  C   UNL     1       1.200  11.495  19.075  0.00  0.00    +0.000 A 
ATOM      2  C   UNL     1       1.938  10.834  18.153  0.00  0.00    +0.000 A 
ATOM      3  N   UNL     1       2.221   9.487  18.115  0.00  0.00    +0.000 NA
ATOM      4  C   UNL     1       1.743   8.735  19.066  0.00  0.00    +0.000 A 
ATOM      5  N   UNL     1       2.010   7.372  19.122  0.00  0.00    +0.000 N 
ATOM      6  N   UNL     1       0.936   9.342  20.064  0.00  0.00    +0.000 N 
ATOM      7  C   UNL     1       0.285   8.765  21.130  0.00  0.00    +0.000 A 
ATOM      8  N   UNL     1      -0.371   9.644  21.854  0.00  0.00    +0.000 NA
ATOM      9  C   UNL     1      -0.155  10.862  21.229  0.00  0.00    +0.000 A 
ATOM     10  C   UNL     1       0.646  10.700  20.110  0.00  0.00    +0.000 A 
ATOM     11  H   UNL     1       1.490   6.815  19.789  0.00  0.00    +0.000 HD
ENDROOT
BRANCH   1  16
ATOM     12  C   UNL     1       0.727  17.217  19.009  0.00  0.00    +0.000 C 
ATOM     13  C   UNL     1       0.857  15.724  18.886  0.00  0.00    +0.000 A 
ATOM     14  C   UNL     1      -0.205  14.947  18.433  0.00  0.00    +0.000 A 
ATOM     15  C   UNL     1      -0.078  13.553  18.441  0.00  0.00    +0.000 A 
ATOM     16  C   UNL     1       1.100  12.960  18.898  0.00  0.00    +0.000 A 
ATOM     17  C   UNL     1       2.120  13.824  19.285  0.00  0.00    +0.000 A 
ATOM     18  N   UNL     1       2.021  15.180  19.304  0.00  0.00    +0.000 NA
ENDBRANCH   1  16
BRANCH   9  19
ATOM     19  S   UNL     1      -0.855  12.337  21.841  0.00  0.00    +0.000 S 
ATOM     20  C   UNL     1      -1.652  11.880  23.354  0.00  0.00    +0.000 C 
ATOM     21  O   UNL     1       0.296  13.174  22.145  0.00  0.00    +0.000 OA
ATOM     22  O   UNL     1      -1.849  12.699  20.856  0.00  0.00    +0.000 OA
ENDBRANCH   9  19
BRANCH   5  23
ATOM     23  C   UNL     1       2.429   6.602  17.947  0.00  0.00    +0.000 C 
BRANCH  23  24
ATOM     24  C   UNL     1       3.799   5.996  18.166  0.00  0.00    +0.000 A 
ATOM     25  C   UNL     1       4.873   6.342  17.327  0.00  0.00    +0.000 A 
ATOM     26  F   UNL     1       4.683   7.265  16.372  0.00  0.00    +0.000 F 
ATOM     27  C   UNL     1       6.126   5.702  17.385  0.00  0.00    +0.000 A 
ATOM     28  C   UNL     1       6.304   4.597  18.211  0.00  0.00    +0.000 A 
ATOM     29  C   UNL     1       5.230   4.232  18.989  0.00  0.00    +0.000 A 
ATOM     30  C   UNL     1       4.063   4.998  19.091  0.00  0.00    +0.000 A 
ATOM     31  C   UNL     1       3.287   4.393  20.207  0.00  0.00    +0.000 C 
ATOM     32  C   UNL     1       3.669   2.964  19.867  0.00  0.00    +0.000 C 
ATOM     33  O   UNL     1       5.107   3.015  19.632  0.00  0.00    +0.000 OA
ENDBRANCH  23  24
ENDBRANCH   5  23
TORSDOF 4
ENDMDL
