MODEL 1
REMARK VINA RESULT:      -6.9      0.000      0.000
REMARK  Name = 
REMARK  1 active torsions:
REMARK  status: ('A' for Active; 'I' for Inactive)
REMARK    1  A    between atoms: N_7  and  C_8
REMARK                            x       y       z     vdW  Elec       q    Type
REMARK                         _______ _______ _______ _____ _____    ______ ____
ROOT
ATOM      1  N   UNL     1       6.278   4.554  13.873  0.00  0.00    +0.000 NA
ATOM      2  C   UNL     1       7.349   5.219  14.124  0.00  0.00    +0.000 C 
ATOM      3  N   UNL     1       8.277   5.487  13.184  0.00  0.00    +0.000 N 
ATOM      4  N   UNL     1       7.588   5.687  15.389  0.00  0.00    +0.000 N 
ATOM      5  C   UNL     1       6.805   5.641  16.530  0.00  0.00    +0.000 C 
ATOM      6  O   UNL     1       7.207   6.218  17.536  0.00  0.00    +0.000 OA
ATOM      7  N   UNL     1       5.642   4.928  16.408  0.00  0.00    +0.000 N 
ATOM      8  H   UNL     1       6.252   4.331  12.872  0.00  0.00    +0.000 HD
ATOM      9  H   UNL     1       8.262   4.923  12.344  0.00  0.00    +0.000 HD
ATOM     10  H   UNL     1       9.216   5.692  13.498  0.00  0.00    +0.000 HD
ATOM     11  H   UNL     1       8.416   6.242  15.537  0.00  0.00    +0.000 HD
ATOM     12  H   UNL     1       5.560   4.443  15.511  0.00  0.00    +0.000 HD
ENDROOT
BRANCH   7  13
ATOM     13  C   UNL     1       4.609   4.791  17.347  0.00  0.00    +0.000 A 
ATOM     14  C   UNL     1       4.021   5.874  17.997  0.00  0.00    +0.000 A 
ATOM     15  C   UNL     1       2.984   5.680  18.917  0.00  0.00    +0.000 A 
ATOM     16 CL   UNL     1       2.312   7.102  19.643  0.00  0.00    +0.000 Cl
ATOM     17  C   UNL     1       2.524   4.389  19.210  0.00  0.00    +0.000 A 
ATOM     18 BR   UNL     1       1.124   4.120  20.479  0.00  0.00    +0.000 Br
ATOM     19  C   UNL     1       3.113   3.300  18.550  0.00  0.00    +0.000 A 
ATOM     20 CL   UNL     1       2.636   1.661  18.840  0.00  0.00    +0.000 Cl
ATOM     21  C   UNL     1       4.138   3.504  17.617  0.00  0.00    +0.000 A 
ENDBRANCH   7  13
TORSDOF 1
ENDMDL
MODEL 2
REMARK VINA RESULT:      -6.9      0.117      2.291
REMARK  Name = 
REMARK  1 active torsions:
REMARK  status: ('A' for Active; 'I' for Inactive)
REMARK    1  A    between atoms: N_7  and  C_8
REMARK                            x       y       z     vdW  Elec       q    Type
REMARK                         _______ _______ _______ _____ _____    ______ ____
ROOT
ATOM      1  N   UNL     1       6.326   4.475  13.827  0.00  0.00    +0.000 NA
ATOM      2  C   UNL     1       7.363   5.185  14.096  0.00  0.00    +0.000 C 
ATOM      3  N   UNL     1       8.290   5.498  13.169  0.00  0.00    +0.000 N 
ATOM      4  N   UNL     1       7.566   5.657  15.366  0.00  0.00    +0.000 N 
ATOM      5  C   UNL     1       6.771   5.570  16.496  0.00  0.00    +0.000 C 
ATOM      6  O   UNL     1       7.134   6.159  17.510  0.00  0.00    +0.000 OA
ATOM      7  N   UNL     1       5.642   4.807  16.356  0.00  0.00    +0.000 N 
ATOM      8  H   UNL     1       6.322   4.256  12.825  0.00  0.00    +0.000 HD
ATOM      9  H   UNL     1       8.311   4.938  12.326  0.00  0.00    +0.000 HD
ATOM     10  H   UNL     1       9.215   5.743  13.496  0.00  0.00    +0.000 HD
ATOM     11  H   UNL     1       8.366   6.246  15.526  0.00  0.00    +0.000 HD
ATOM     12  H   UNL     1       5.593   4.324  15.455  0.00  0.00    +0.000 HD
ENDROOT
BRANCH   7  13
ATOM     13  C   UNL     1       4.604   4.620  17.280  0.00  0.00    +0.000 A 
ATOM     14  C   UNL     1       4.118   3.362  17.635  0.00  0.00    +0.000 A 
ATOM     15  C   UNL     1       3.086   3.233  18.574  0.00  0.00    +0.000 A 
ATOM     16 CL   UNL     1       2.583   1.621  18.957  0.00  0.00    +0.000 Cl
ATOM     17  C   UNL     1       2.516   4.368  19.166  0.00  0.00    +0.000 A 
ATOM     18 BR   UNL     1       1.096   4.194  20.430  0.00  0.00    +0.000 Br
ATOM     19  C   UNL     1       3.010   5.632  18.811  0.00  0.00    +0.000 A 
ATOM     20 CL   UNL     1       2.375   7.103  19.467  0.00  0.00    +0.000 Cl
ATOM     21  C   UNL     1       4.055   5.752  17.885  0.00  0.00    +0.000 A 
ENDBRANCH   7  13
TORSDOF 1
ENDMDL
MODEL 3
REMARK VINA RESULT:      -6.8      1.127      1.154
REMARK  Name = 
REMARK  1 active torsions:
REMARK  status: ('A' for Active; 'I' for Inactive)
REMARK    1  A    between atoms: N_7  and  C_8
REMARK                            x       y       z     vdW  Elec       q    Type
REMARK                         _______ _______ _______ _____ _____    ______ ____
ROOT
ATOM      1  N   UNL     1       5.575   3.727  13.215  0.00  0.00    +0.000 NA
ATOM      2  C   UNL     1       6.697   4.342  13.097  0.00  0.00    +0.000 C 
ATOM      3  N   UNL     1       7.415   4.335  11.957  0.00  0.00    +0.000 N 
ATOM      4  N   UNL     1       7.214   5.042  14.155  0.00  0.00    +0.000 N 
ATOM      5  C   UNL     1       6.687   5.296  15.410  0.00  0.00    +0.000 C 
ATOM      6  O   UNL     1       7.312   6.036  16.166  0.00  0.00    +0.000 OA
ATOM      7  N   UNL     1       5.501   4.668  15.681  0.00  0.00    +0.000 N 
ATOM      8  H   UNL     1       5.331   3.304  12.314  0.00  0.00    +0.000 HD
ATOM      9  H   UNL     1       7.204   3.612  11.280  0.00  0.00    +0.000 HD
ATOM     10  H   UNL     1       8.406   4.526  12.025  0.00  0.00    +0.000 HD
ATOM     11  H   UNL     1       8.072   5.548  14.011  0.00  0.00    +0.000 HD
ATOM     12  H   UNL     1       5.215   4.016  14.947  0.00  0.00    +0.000 HD
ENDROOT
BRANCH   7  13
ATOM     13  C   UNL     1       4.684   4.811  16.813  0.00  0.00    +0.000 A 
ATOM     14  C   UNL     1       4.071   6.013  17.163  0.00  0.00    +0.000 A 
ATOM     15  C   UNL     1       3.256   6.095  18.298  0.00  0.00    +0.000 A 
ATOM     16 CL   UNL     1       2.525   7.632  18.620  0.00  0.00    +0.000 Cl
ATOM     17  C   UNL     1       3.049   4.972  19.111  0.00  0.00    +0.000 A 
ATOM     18 BR   UNL     1       1.954   5.088  20.670  0.00  0.00    +0.000 Br
ATOM     19  C   UNL     1       3.663   3.762  18.753  0.00  0.00    +0.000 A 
ATOM     20 CL   UNL     1       3.490   2.313  19.686  0.00  0.00    +0.000 Cl
ATOM     21  C   UNL     1       4.462   3.682  17.605  0.00  0.00    +0.000 A 
ENDBRANCH   7  13
TORSDOF 1
ENDMDL
MODEL 4
REMARK VINA RESULT:      -6.6      1.266      2.568
REMARK  Name = 
REMARK  1 active torsions:
REMARK  status: ('A' for Active; 'I' for Inactive)
REMARK    1  A    between atoms: N_7  and  C_8
REMARK                            x       y       z     vdW  Elec       q    Type
REMARK                         _______ _______ _______ _____ _____    ______ ____
ROOT
ATOM      1  N   UNL     1       5.176   3.686  13.140  0.00  0.00    +0.000 NA
ATOM      2  C   UNL     1       6.426   3.979  13.109  0.00  0.00    +0.000 C 
ATOM      3  N   UNL     1       7.154   3.942  11.976  0.00  0.00    +0.000 N 
ATOM      4  N   UNL     1       7.077   4.345  14.258  0.00  0.00    +0.000 N 
ATOM      5  C   UNL     1       6.596   4.546  15.540  0.00  0.00    +0.000 C 
ATOM      6  O   UNL     1       7.372   4.965  16.394  0.00  0.00    +0.000 OA
ATOM      7  N   UNL     1       5.274   4.236  15.721  0.00  0.00    +0.000 N 
ATOM      8  H   UNL     1       4.857   3.484  12.187  0.00  0.00    +0.000 HD
ATOM      9  H   UNL     1       6.778   3.413  11.199  0.00  0.00    +0.000 HD
ATOM     10  H   UNL     1       8.157   3.841  12.065  0.00  0.00    +0.000 HD
ATOM     11  H   UNL     1       8.045   4.611  14.185  0.00  0.00    +0.000 HD
ATOM     12  H   UNL     1       4.847   3.804  14.898  0.00  0.00    +0.000 HD
ENDROOT
BRANCH   7  13
ATOM     13  C   UNL     1       4.489   4.430  16.866  0.00  0.00    +0.000 A 
ATOM     14  C   UNL     1       4.156   3.401  17.746  0.00  0.00    +0.000 A 
ATOM     15  C   UNL     1       3.378   3.653  18.882  0.00  0.00    +0.000 A 
ATOM     16 CL   UNL     1       3.052   2.303  19.917  0.00  0.00    +0.000 Cl
ATOM     17  C   UNL     1       2.908   4.946  19.150  0.00  0.00    +0.000 A 
ATOM     18 BR   UNL     1       1.829   5.289  20.687  0.00  0.00    +0.000 Br
ATOM     19  C   UNL     1       3.248   5.982  18.266  0.00  0.00    +0.000 A 
ATOM     20 CL   UNL     1       2.714   7.614  18.488  0.00  0.00    +0.000 Cl
ATOM     21  C   UNL     1       4.043   5.725  17.142  0.00  0.00    +0.000 A 
ENDBRANCH   7  13
TORSDOF 1
ENDMDL
MODEL 5
REMARK VINA RESULT:      -6.5      1.439      2.076
REMARK  Name = 
REMARK  1 active torsions:
REMARK  status: ('A' for Active; 'I' for Inactive)
REMARK    1  A    between atoms: N_7  and  C_8
REMARK                            x       y       z     vdW  Elec       q    Type
REMARK                         _______ _______ _______ _____ _____    ______ ____
ROOT
ATOM      1  N   UNL     1       6.608   4.247  13.910  0.00  0.00    +0.000 NA
ATOM      2  C   UNL     1       7.461   5.170  14.174  0.00  0.00    +0.000 C 
ATOM      3  N   UNL     1       8.305   5.667  13.248  0.00  0.00    +0.000 N 
ATOM      4  N   UNL     1       7.545   5.692  15.439  0.00  0.00    +0.000 N 
ATOM      5  C   UNL     1       6.778   5.447  16.565  0.00  0.00    +0.000 C 
ATOM      6  O   UNL     1       6.994   6.115  17.573  0.00  0.00    +0.000 OA
ATOM      7  N   UNL     1       5.845   4.454  16.430  0.00  0.00    +0.000 N 
ATOM      8  H   UNL     1       6.661   4.020  12.912  0.00  0.00    +0.000 HD
ATOM      9  H   UNL     1       8.456   5.115  12.414  0.00  0.00    +0.000 HD
ATOM     10  H   UNL     1       9.151   6.114  13.577  0.00  0.00    +0.000 HD
ATOM     11  H   UNL     1       8.194   6.444  15.595  0.00  0.00    +0.000 HD
ATOM     12  H   UNL     1       5.911   3.960  15.537  0.00  0.00    +0.000 HD
ENDROOT
BRANCH   7  13
ATOM     13  C   UNL     1       4.865   4.055  17.351  0.00  0.00    +0.000 A 
ATOM     14  C   UNL     1       5.154   3.322  18.501  0.00  0.00    +0.000 A 
ATOM     15  C   UNL     1       4.137   2.960  19.393  0.00  0.00    +0.000 A 
ATOM     16 CL   UNL     1       4.617   2.074  20.801  0.00  0.00    +0.000 Cl
ATOM     17  C   UNL     1       2.806   3.321  19.140  0.00  0.00    +0.000 A 
ATOM     18 BR   UNL     1       1.416   2.812  20.345  0.00  0.00    +0.000 Br
ATOM     19  C   UNL     1       2.519   4.064  17.985  0.00  0.00    +0.000 A 
ATOM     20 CL   UNL     1       0.913   4.554  17.563  0.00  0.00    +0.000 Cl
ATOM     21  C   UNL     1       3.545   4.438  17.107  0.00  0.00    +0.000 A 
ENDBRANCH   7  13
TORSDOF 1
ENDMDL
MODEL 6
REMARK VINA RESULT:      -6.4      4.847      6.004
REMARK  Name = 
REMARK  1 active torsions:
REMARK  status: ('A' for Active; 'I' for Inactive)
REMARK    1  A    between atoms: N_7  and  C_8
REMARK                            x       y       z     vdW  Elec       q    Type
REMARK                         _______ _______ _______ _____ _____    ______ ____
ROOT
ATOM      1  N   UNL     1       1.724   9.691  17.581  0.00  0.00    +0.000 NA
ATOM      2  C   UNL     1       1.099  10.323  18.509  0.00  0.00    +0.000 C 
ATOM      3  N   UNL     1       0.521  11.524  18.310  0.00  0.00    +0.000 N 
ATOM      4  N   UNL     1       0.999   9.782  19.764  0.00  0.00    +0.000 N 
ATOM      5  C   UNL     1       1.414   8.555  20.252  0.00  0.00    +0.000 C 
ATOM      6  O   UNL     1       1.127   8.260  21.409  0.00  0.00    +0.000 OA
ATOM      7  N   UNL     1       2.128   7.789  19.369  0.00  0.00    +0.000 N 
ATOM      8  H   UNL     1       1.652  10.225  16.709  0.00  0.00    +0.000 HD
ATOM      9  H   UNL     1       0.821  12.055  17.502  0.00  0.00    +0.000 HD
ATOM     10  H   UNL     1       0.360  12.107  19.120  0.00  0.00    +0.000 HD
ATOM     11  H   UNL     1       0.463  10.286  20.452  0.00  0.00    +0.000 HD
ATOM     12  H   UNL     1       2.339   8.277  18.494  0.00  0.00    +0.000 HD
ENDROOT
BRANCH   7  13
ATOM     13  C   UNL     1       2.587   6.475  19.537  0.00  0.00    +0.000 A 
ATOM     14  C   UNL     1       1.915   5.526  20.306  0.00  0.00    +0.000 A 
ATOM     15  C   UNL     1       2.413   4.223  20.430  0.00  0.00    +0.000 A 
ATOM     16 CL   UNL     1       1.480   3.123  21.389  0.00  0.00    +0.000 Cl
ATOM     17  C   UNL     1       3.603   3.852  19.790  0.00  0.00    +0.000 A 
ATOM     18 BR   UNL     1       4.294   2.081  19.974  0.00  0.00    +0.000 Br
ATOM     19  C   UNL     1       4.274   4.807  19.011  0.00  0.00    +0.000 A 
ATOM     20 CL   UNL     1       5.758   4.466  18.185  0.00  0.00    +0.000 Cl
ATOM     21  C   UNL     1       3.760   6.103  18.877  0.00  0.00    +0.000 A 
ENDBRANCH   7  13
TORSDOF 1
ENDMDL
MODEL 7
REMARK VINA RESULT:      -6.3      1.481      1.538
REMARK  Name = 
REMARK  1 active torsions:
REMARK  status: ('A' for Active; 'I' for Inactive)
REMARK    1  A    between atoms: N_7  and  C_8
REMARK                            x       y       z     vdW  Elec       q    Type
REMARK                         _______ _______ _______ _____ _____    ______ ____
ROOT
ATOM      1  N   UNL     1       6.575   4.189  13.920  0.00  0.00    +0.000 NA
ATOM      2  C   UNL     1       7.424   5.118  14.182  0.00  0.00    +0.000 C 
ATOM      3  N   UNL     1       8.279   5.603  13.261  0.00  0.00    +0.000 N 
ATOM      4  N   UNL     1       7.488   5.658  15.440  0.00  0.00    +0.000 N 
ATOM      5  C   UNL     1       6.706   5.428  16.559  0.00  0.00    +0.000 C 
ATOM      6  O   UNL     1       6.907   6.111  17.560  0.00  0.00    +0.000 OA
ATOM      7  N   UNL     1       5.777   4.431  16.425  0.00  0.00    +0.000 N 
ATOM      8  H   UNL     1       6.643   3.948  12.926  0.00  0.00    +0.000 HD
ATOM      9  H   UNL     1       8.443   5.039  12.436  0.00  0.00    +0.000 HD
ATOM     10  H   UNL     1       9.120   6.056  13.595  0.00  0.00    +0.000 HD
ATOM     11  H   UNL     1       8.134   6.414  15.594  0.00  0.00    +0.000 HD
ATOM     12  H   UNL     1       5.857   3.924  15.540  0.00  0.00    +0.000 HD
ENDROOT
BRANCH   7  13
ATOM     13  C   UNL     1       4.786   4.044  17.338  0.00  0.00    +0.000 A 
ATOM     14  C   UNL     1       3.438   4.366  17.182  0.00  0.00    +0.000 A 
ATOM     15  C   UNL     1       2.488   3.943  18.119  0.00  0.00    +0.000 A 
ATOM     16 CL   UNL     1       0.841   4.378  17.807  0.00  0.00    +0.000 Cl
ATOM     17  C   UNL     1       2.877   3.196  19.240  0.00  0.00    +0.000 A 
ATOM     18 BR   UNL     1       1.585   2.635  20.529  0.00  0.00    +0.000 Br
ATOM     19  C   UNL     1       4.232   2.868  19.392  0.00  0.00    +0.000 A 
ATOM     20 CL   UNL     1       4.830   1.961  20.741  0.00  0.00    +0.000 Cl
ATOM     21  C   UNL     1       5.174   3.279  18.440  0.00  0.00    +0.000 A 
ENDBRANCH   7  13
TORSDOF 1
ENDMDL
MODEL 8
REMARK VINA RESULT:      -6.2      1.582      2.473
REMARK  Name = 
REMARK  1 active torsions:
REMARK  status: ('A' for Active; 'I' for Inactive)
REMARK    1  A    between atoms: N_7  and  C_8
REMARK                            x       y       z     vdW  Elec       q    Type
REMARK                         _______ _______ _______ _____ _____    ______ ____
ROOT
ATOM      1  N   UNL     1       5.782   4.754  14.451  0.00  0.00    +0.000 NA
ATOM      2  C   UNL     1       7.025   5.019  14.639  0.00  0.00    +0.000 C 
ATOM      3  N   UNL     1       7.828   5.475  13.658  0.00  0.00    +0.000 N 
ATOM      4  N   UNL     1       7.589   4.841  15.875  0.00  0.00    +0.000 N 
ATOM      5  C   UNL     1       7.018   4.465  17.079  0.00  0.00    +0.000 C 
ATOM      6  O   UNL     1       7.725   4.461  18.083  0.00  0.00    +0.000 OA
ATOM      7  N   UNL     1       5.694   4.120  17.013  0.00  0.00    +0.000 N 
ATOM      8  H   UNL     1       5.532   4.993  13.486  0.00  0.00    +0.000 HD
ATOM      9  H   UNL     1       7.517   5.342  12.704  0.00  0.00    +0.000 HD
ATOM     10  H   UNL     1       8.824   5.335  13.764  0.00  0.00    +0.000 HD
ATOM     11  H   UNL     1       8.554   5.102  15.994  0.00  0.00    +0.000 HD
ATOM     12  H   UNL     1       5.333   4.095  16.056  0.00  0.00    +0.000 HD
ENDROOT
BRANCH   7  13
ATOM     13  C   UNL     1       4.829   3.801  18.070  0.00  0.00    +0.000 A 
ATOM     14  C   UNL     1       5.132   2.849  19.043  0.00  0.00    +0.000 A 
ATOM     15  C   UNL     1       4.236   2.579  20.083  0.00  0.00    +0.000 A 
ATOM     16 CL   UNL     1       4.732   1.398  21.249  0.00  0.00    +0.000 Cl
ATOM     17  C   UNL     1       3.010   3.254  20.160  0.00  0.00    +0.000 A 
ATOM     18 BR   UNL     1       1.777   2.871  21.567  0.00  0.00    +0.000 Br
ATOM     19  C   UNL     1       2.709   4.215  19.183  0.00  0.00    +0.000 A 
ATOM     20 CL   UNL     1       1.221   5.101  19.169  0.00  0.00    +0.000 Cl
ATOM     21  C   UNL     1       3.619   4.493  18.156  0.00  0.00    +0.000 A 
ENDBRANCH   7  13
TORSDOF 1
ENDMDL
MODEL 9
REMARK VINA RESULT:      -6.2      2.699      3.549
REMARK  Name = 
REMARK  1 active torsions:
REMARK  status: ('A' for Active; 'I' for Inactive)
REMARK    1  A    between atoms: N_7  and  C_8
REMARK                            x       y       z     vdW  Elec       q    Type
REMARK                         _______ _______ _______ _____ _____    ______ ____
ROOT
ATOM      1  N   UNL     1       6.769   7.982  17.173  0.00  0.00    +0.000 NA
ATOM      2  C   UNL     1       7.849   7.932  17.868  0.00  0.00    +0.000 C 
ATOM      3  N   UNL     1       8.843   8.832  17.734  0.00  0.00    +0.000 N 
ATOM      4  N   UNL     1       8.029   6.935  18.790  0.00  0.00    +0.000 N 
ATOM      5  C   UNL     1       7.176   5.927  19.204  0.00  0.00    +0.000 C 
ATOM      6  O   UNL     1       7.539   5.198  20.124  0.00  0.00    +0.000 OA
ATOM      7  N   UNL     1       5.994   5.845  18.517  0.00  0.00    +0.000 N 
ATOM      8  H   UNL     1       6.795   8.816  16.577  0.00  0.00    +0.000 HD
ATOM      9  H   UNL     1       8.857   9.385  16.886  0.00  0.00    +0.000 HD
ATOM     10  H   UNL     1       9.769   8.556  18.032  0.00  0.00    +0.000 HD
ATOM     11  H   UNL     1       8.868   6.956  19.347  0.00  0.00    +0.000 HD
ATOM     12  H   UNL     1       5.948   6.487  17.721  0.00  0.00    +0.000 HD
ENDROOT
BRANCH   7  13
ATOM     13  C   UNL     1       4.901   5.005  18.772  0.00  0.00    +0.000 A 
ATOM     14  C   UNL     1       4.832   3.686  18.326  0.00  0.00    +0.000 A 
ATOM     15  C   UNL     1       3.720   2.888  18.620  0.00  0.00    +0.000 A 
ATOM     16 CL   UNL     1       3.758   1.257  18.038  0.00  0.00    +0.000 Cl
ATOM     17  C   UNL     1       2.648   3.406  19.361  0.00  0.00    +0.000 A 
ATOM     18 BR   UNL     1       1.122   2.325  19.745  0.00  0.00    +0.000 Br
ATOM     19  C   UNL     1       2.721   4.731  19.813  0.00  0.00    +0.000 A 
ATOM     20 CL   UNL     1       1.454   5.481  20.724  0.00  0.00    +0.000 Cl
ATOM     21  C   UNL     1       3.846   5.518  19.531  0.00  0.00    +0.000 A 
ENDBRANCH   7  13
TORSDOF 1
ENDMDL
