MODEL 1
REMARK VINA RESULT:      -7.8      0.000      0.000
REMARK  Name = 
REMARK  10 active torsions:
REMARK  status: ('A' for Active; 'I' for Inactive)
REMARK    1  A    between atoms: C_1  and  C_2
REMARK    2  A    between atoms: C_2  and  C_3
REMARK    3  A    between atoms: C_3  and  O_4
REMARK    4  A    between atoms: O_4  and  C_5
REMARK    5  A    between atoms: C_8  and  N_9
REMARK    6  A    between atoms: C_13  and  N_14
REMARK    7  A    between atoms: N_14  and  C_15
REMARK    8  A    between atoms: C_15  and  C_16
REMARK    9  A    between atoms: C_16  and  C_17
REMARK   10  A    between atoms: C_23  and  C_25
REMARK                            x       y       z     vdW  Elec       q    Type
REMARK                         _______ _______ _______ _____ _____    ______ ____
ROOT
ATOM      1  N   UNL     1       0.018   9.525  19.699  0.00  0.00    +0.000 N 
ATOM      2  C   UNL     1       0.101   8.958  20.948  0.00  0.00    +0.000 C 
ATOM      3  O   UNL     1      -0.720   8.997  21.859  0.00  0.00    +0.000 OA
ATOM      4  C   UNL     1       1.420   8.260  21.093  0.00  0.00    +0.000 C 
ATOM      5  C   UNL     1       2.127   8.511  19.772  0.00  0.00    +0.000 C 
ATOM      6  C   UNL     1       1.180   9.400  18.977  0.00  0.00    +0.000 C 
ATOM      7  O   UNL     1       1.489   9.954  17.925  0.00  0.00    +0.000 OA
ENDROOT
BRANCH   1  11
ATOM      8  C   UNL     1      -3.383  11.650  18.364  0.00  0.00    +0.000 A 
ATOM      9  C   UNL     1      -2.560  12.169  19.365  0.00  0.00    +0.000 A 
ATOM     10  C   UNL     1      -1.449  11.455  19.817  0.00  0.00    +0.000 A 
ATOM     11  C   UNL     1      -1.106  10.236  19.236  0.00  0.00    +0.000 A 
ATOM     12  C   UNL     1      -1.917   9.718  18.218  0.00  0.00    +0.000 A 
ATOM     13  C   UNL     1      -3.062  10.412  17.798  0.00  0.00    +0.000 A 
BRANCH   8  14
ATOM     14  O   UNL     1      -4.504  12.273  17.873  0.00  0.00    +0.000 OA
BRANCH  14  15
ATOM     15  C   UNL     1      -5.489  11.380  17.347  0.00  0.00    +0.000 C 
BRANCH  15  17
ATOM     16  C   UNL     1      -6.792  10.128  19.055  0.00  0.00    +0.000 C 
ATOM     17  C   UNL     1      -6.757  11.379  18.188  0.00  0.00    +0.000 C 
ENDBRANCH  15  17
ENDBRANCH  14  15
ENDBRANCH   8  14
ENDBRANCH   1  11
BRANCH   5  18
ATOM     18  N   UNL     1       2.534   7.308  19.018  0.00  0.00    +0.000 N 
ATOM     19  C   UNL     1       2.293   6.052  19.623  0.00  0.00    +0.000 C 
ATOM     20  O   UNL     1       1.711   5.980  20.707  0.00  0.00    +0.000 OA
BRANCH  19  21
ATOM     21  C   UNL     1       2.678   4.755  18.974  0.00  0.00    +0.000 A 
ATOM     22  C   UNL     1       2.016   4.208  17.870  0.00  0.00    +0.000 A 
ATOM     23  C   UNL     1       2.392   2.970  17.341  0.00  0.00    +0.000 A 
ATOM     24  C   UNL     1       3.504   2.306  17.845  0.00  0.00    +0.000 A 
ATOM     25  C   UNL     1       4.235   2.880  18.883  0.00  0.00    +0.000 A 
ATOM     26  C   UNL     1       3.820   4.091  19.451  0.00  0.00    +0.000 A 
ENDBRANCH  19  21
BRANCH  18  27
ATOM     27  C   UNL     1       3.202   7.446  17.719  0.00  0.00    +0.000 C 
BRANCH  27  28
ATOM     28  C   UNL     1       4.709   7.713  17.627  0.00  0.00    +0.000 C 
BRANCH  28  29
ATOM     29  C   UNL     1       5.399   6.477  17.087  0.00  0.00    +0.000 A 
ATOM     30  C   UNL     1       4.866   5.800  15.984  0.00  0.00    +0.000 A 
ATOM     31  C   UNL     1       5.429   4.606  15.538  0.00  0.00    +0.000 A 
ATOM     32  C   UNL     1       6.543   4.074  16.197  0.00  0.00    +0.000 A 
ATOM     33  C   UNL     1       7.085   4.739  17.296  0.00  0.00    +0.000 A 
ATOM     34  C   UNL     1       6.520   5.938  17.740  0.00  0.00    +0.000 A 
ENDBRANCH  28  29
ENDBRANCH  27  28
ENDBRANCH  18  27
ENDBRANCH   5  18
TORSDOF 9
ENDMDL
MODEL 2
REMARK VINA RESULT:      -7.6      0.470      1.504
REMARK  Name = 
REMARK  10 active torsions:
REMARK  status: ('A' for Active; 'I' for Inactive)
REMARK    1  A    between atoms: C_1  and  C_2
REMARK    2  A    between atoms: C_2  and  C_3
REMARK    3  A    between atoms: C_3  and  O_4
REMARK    4  A    between atoms: O_4  and  C_5
REMARK    5  A    between atoms: C_8  and  N_9
REMARK    6  A    between atoms: C_13  and  N_14
REMARK    7  A    between atoms: N_14  and  C_15
REMARK    8  A    between atoms: C_15  and  C_16
REMARK    9  A    between atoms: C_16  and  C_17
REMARK   10  A    between atoms: C_23  and  C_25
REMARK                            x       y       z     vdW  Elec       q    Type
REMARK                         _______ _______ _______ _____ _____    ______ ____
ROOT
ATOM      1  N   UNL     1       0.003   9.521  19.458  0.00  0.00    +0.000 N 
ATOM      2  C   UNL     1       0.114   9.050  20.743  0.00  0.00    +0.000 C 
ATOM      3  O   UNL     1      -0.706   9.114  21.652  0.00  0.00    +0.000 OA
ATOM      4  C   UNL     1       1.465   8.426  20.932  0.00  0.00    +0.000 C 
ATOM      5  C   UNL     1       2.158   8.616  19.594  0.00  0.00    +0.000 C 
ATOM      6  C   UNL     1       1.169   9.399  18.741  0.00  0.00    +0.000 C 
ATOM      7  O   UNL     1       1.451   9.891  17.651  0.00  0.00    +0.000 OA
ENDROOT
BRANCH   1  11
ATOM      8  C   UNL     1      -3.440  11.395  17.879  0.00  0.00    +0.000 A 
ATOM      9  C   UNL     1      -3.028  10.145  17.415  0.00  0.00    +0.000 A 
ATOM     10  C   UNL     1      -1.878   9.538  17.926  0.00  0.00    +0.000 A 
ATOM     11  C   UNL     1      -1.154  10.144  18.950  0.00  0.00    +0.000 A 
ATOM     12  C   UNL     1      -1.573  11.390  19.433  0.00  0.00    +0.000 A 
ATOM     13  C   UNL     1      -2.698  12.022  18.885  0.00  0.00    +0.000 A 
BRANCH   8  14
ATOM     14  O   UNL     1      -4.544  12.072  17.421  0.00  0.00    +0.000 OA
BRANCH  14  15
ATOM     15  C   UNL     1      -5.550  12.294  18.414  0.00  0.00    +0.000 C 
BRANCH  15  17
ATOM     16  C   UNL     1      -7.403  11.323  19.759  0.00  0.00    +0.000 C 
ATOM     17  C   UNL     1      -6.346  11.030  18.703  0.00  0.00    +0.000 C 
ENDBRANCH  15  17
ENDBRANCH  14  15
ENDBRANCH   8  14
ENDBRANCH   1  11
BRANCH   5  18
ATOM     18  N   UNL     1       2.621   7.382  18.926  0.00  0.00    +0.000 N 
ATOM     19  C   UNL     1       2.323   6.152  19.558  0.00  0.00    +0.000 C 
ATOM     20  O   UNL     1       1.651   6.125  20.591  0.00  0.00    +0.000 OA
BRANCH  19  21
ATOM     21  C   UNL     1       2.755   4.829  18.996  0.00  0.00    +0.000 A 
ATOM     22  C   UNL     1       3.795   4.059  19.527  0.00  0.00    +0.000 A 
ATOM     23  C   UNL     1       4.184   2.857  18.929  0.00  0.00    +0.000 A 
ATOM     24  C   UNL     1       3.470   2.355  17.847  0.00  0.00    +0.000 A 
ATOM     25  C   UNL     1       2.370   3.060  17.362  0.00  0.00    +0.000 A 
ATOM     26  C   UNL     1       2.021   4.294  17.925  0.00  0.00    +0.000 A 
ENDBRANCH  19  21
BRANCH  18  27
ATOM     27  C   UNL     1       3.397   7.467  17.683  0.00  0.00    +0.000 C 
BRANCH  27  28
ATOM     28  C   UNL     1       4.929   7.498  17.706  0.00  0.00    +0.000 C 
BRANCH  28  29
ATOM     29  C   UNL     1       5.462   6.225  17.081  0.00  0.00    +0.000 A 
ATOM     30  C   UNL     1       6.615   5.619  17.595  0.00  0.00    +0.000 A 
ATOM     31  C   UNL     1       7.176   4.508  16.971  0.00  0.00    +0.000 A 
ATOM     32  C   UNL     1       6.582   3.984  15.817  0.00  0.00    +0.000 A 
ATOM     33  C   UNL     1       5.432   4.577  15.296  0.00  0.00    +0.000 A 
ATOM     34  C   UNL     1       4.870   5.690  15.925  0.00  0.00    +0.000 A 
ENDBRANCH  28  29
ENDBRANCH  27  28
ENDBRANCH  18  27
ENDBRANCH   5  18
TORSDOF 9
ENDMDL
MODEL 3
REMARK VINA RESULT:      -7.6      3.991     10.671
REMARK  Name = 
REMARK  10 active torsions:
REMARK  status: ('A' for Active; 'I' for Inactive)
REMARK    1  A    between atoms: C_1  and  C_2
REMARK    2  A    between atoms: C_2  and  C_3
REMARK    3  A    between atoms: C_3  and  O_4
REMARK    4  A    between atoms: O_4  and  C_5
REMARK    5  A    between atoms: C_8  and  N_9
REMARK    6  A    between atoms: C_13  and  N_14
REMARK    7  A    between atoms: N_14  and  C_15
REMARK    8  A    between atoms: C_15  and  C_16
REMARK    9  A    between atoms: C_16  and  C_17
REMARK   10  A    between atoms: C_23  and  C_25
REMARK                            x       y       z     vdW  Elec       q    Type
REMARK                         _______ _______ _______ _____ _____    ______ ____
ROOT
ATOM      1  N   UNL     1       0.275  10.869  18.820  0.00  0.00    +0.000 N 
ATOM      2  C   UNL     1      -0.971  10.938  18.246  0.00  0.00    +0.000 C 
ATOM      3  O   UNL     1      -1.670  10.021  17.827  0.00  0.00    +0.000 OA
ATOM      4  C   UNL     1      -1.401  12.372  18.156  0.00  0.00    +0.000 C 
ATOM      5  C   UNL     1      -0.230  13.153  18.726  0.00  0.00    +0.000 C 
ATOM      6  C   UNL     1       0.828  12.106  19.049  0.00  0.00    +0.000 C 
ATOM      7  O   UNL     1       1.982  12.380  19.365  0.00  0.00    +0.000 OA
ENDROOT
BRANCH   1  11
ATOM      8  C   UNL     1       2.276   7.215  19.533  0.00  0.00    +0.000 A 
ATOM      9  C   UNL     1       2.293   7.807  18.270  0.00  0.00    +0.000 A 
ATOM     10  C   UNL     1       1.614   9.004  18.034  0.00  0.00    +0.000 A 
ATOM     11  C   UNL     1       0.955   9.661  19.070  0.00  0.00    +0.000 A 
ATOM     12  C   UNL     1       0.950   9.083  20.346  0.00  0.00    +0.000 A 
ATOM     13  C   UNL     1       1.590   7.855  20.572  0.00  0.00    +0.000 A 
BRANCH   8  14
ATOM     14  O   UNL     1       2.898   6.033  19.850  0.00  0.00    +0.000 OA
BRANCH  14  15
ATOM     15  C   UNL     1       2.016   4.910  19.937  0.00  0.00    +0.000 C 
BRANCH  15  17
ATOM     16  C   UNL     1       1.439   2.830  21.173  0.00  0.00    +0.000 C 
ATOM     17  C   UNL     1       2.197   4.149  21.242  0.00  0.00    +0.000 C 
ENDBRANCH  15  17
ENDBRANCH  14  15
ENDBRANCH   8  14
ENDBRANCH   1  11
BRANCH   5  18
ATOM     18  N   UNL     1      -0.533  14.020  19.883  0.00  0.00    +0.000 N 
ATOM     19  C   UNL     1      -0.623  15.411  19.644  0.00  0.00    +0.000 C 
ATOM     20  O   UNL     1      -0.510  15.860  18.501  0.00  0.00    +0.000 OA
BRANCH  19  21
ATOM     21  C   UNL     1      -0.903  16.403  20.735  0.00  0.00    +0.000 A 
ATOM     22  C   UNL     1       0.083  16.954  21.560  0.00  0.00    +0.000 A 
ATOM     23  C   UNL     1      -0.247  17.836  22.593  0.00  0.00    +0.000 A 
ATOM     24  C   UNL     1      -1.561  18.260  22.753  0.00  0.00    +0.000 A 
ATOM     25  C   UNL     1      -2.544  17.796  21.881  0.00  0.00    +0.000 A 
ATOM     26  C   UNL     1      -2.221  16.865  20.886  0.00  0.00    +0.000 A 
ENDBRANCH  19  21
BRANCH  18  27
ATOM     27  C   UNL     1      -0.683  13.435  21.220  0.00  0.00    +0.000 C 
BRANCH  27  28
ATOM     28  C   UNL     1      -2.066  13.092  21.785  0.00  0.00    +0.000 C 
BRANCH  28  29
ATOM     29  C   UNL     1      -2.318  13.929  23.023  0.00  0.00    +0.000 A 
ATOM     30  C   UNL     1      -3.606  14.405  23.297  0.00  0.00    +0.000 A 
ATOM     31  C   UNL     1      -3.836  15.260  24.373  0.00  0.00    +0.000 A 
ATOM     32  C   UNL     1      -2.771  15.647  25.194  0.00  0.00    +0.000 A 
ATOM     33  C   UNL     1      -1.484  15.179  24.932  0.00  0.00    +0.000 A 
ATOM     34  C   UNL     1      -1.256  14.320  23.854  0.00  0.00    +0.000 A 
ENDBRANCH  28  29
ENDBRANCH  27  28
ENDBRANCH  18  27
ENDBRANCH   5  18
TORSDOF 9
ENDMDL
MODEL 4
REMARK VINA RESULT:      -7.5      0.566      1.107
REMARK  Name = 
REMARK  10 active torsions:
REMARK  status: ('A' for Active; 'I' for Inactive)
REMARK    1  A    between atoms: C_1  and  C_2
REMARK    2  A    between atoms: C_2  and  C_3
REMARK    3  A    between atoms: C_3  and  O_4
REMARK    4  A    between atoms: O_4  and  C_5
REMARK    5  A    between atoms: C_8  and  N_9
REMARK    6  A    between atoms: C_13  and  N_14
REMARK    7  A    between atoms: N_14  and  C_15
REMARK    8  A    between atoms: C_15  and  C_16
REMARK    9  A    between atoms: C_16  and  C_17
REMARK   10  A    between atoms: C_23  and  C_25
REMARK                            x       y       z     vdW  Elec       q    Type
REMARK                         _______ _______ _______ _____ _____    ______ ____
ROOT
ATOM      1  N   UNL     1       0.016   9.581  19.395  0.00  0.00    +0.000 N 
ATOM      2  C   UNL     1       0.129   9.112  20.682  0.00  0.00    +0.000 C 
ATOM      3  O   UNL     1      -0.692   9.178  21.591  0.00  0.00    +0.000 OA
ATOM      4  C   UNL     1       1.480   8.491  20.871  0.00  0.00    +0.000 C 
ATOM      5  C   UNL     1       2.172   8.678  19.532  0.00  0.00    +0.000 C 
ATOM      6  C   UNL     1       1.182   9.459  18.678  0.00  0.00    +0.000 C 
ATOM      7  O   UNL     1       1.463   9.948  17.587  0.00  0.00    +0.000 OA
ENDROOT
BRANCH   1  11
ATOM      8  C   UNL     1      -3.486  11.431  17.922  0.00  0.00    +0.000 A 
ATOM      9  C   UNL     1      -2.733  12.026  18.935  0.00  0.00    +0.000 A 
ATOM     10  C   UNL     1      -1.587  11.402  19.433  0.00  0.00    +0.000 A 
ATOM     11  C   UNL     1      -1.142  10.201  18.886  0.00  0.00    +0.000 A 
ATOM     12  C   UNL     1      -1.882   9.607  17.856  0.00  0.00    +0.000 A 
ATOM     13  C   UNL     1      -3.061  10.209  17.391  0.00  0.00    +0.000 A 
BRANCH   8  14
ATOM     14  O   UNL     1      -4.634  11.964  17.388  0.00  0.00    +0.000 OA
BRANCH  14  15
ATOM     15  C   UNL     1      -5.840  11.456  17.965  0.00  0.00    +0.000 C 
BRANCH  15  17
ATOM     16  C   UNL     1      -6.732  13.747  18.341  0.00  0.00    +0.000 C 
ATOM     17  C   UNL     1      -7.019  12.387  17.719  0.00  0.00    +0.000 C 
ENDBRANCH  15  17
ENDBRANCH  14  15
ENDBRANCH   8  14
ENDBRANCH   1  11
BRANCH   5  18
ATOM     18  N   UNL     1       2.636   7.444  18.867  0.00  0.00    +0.000 N 
ATOM     19  C   UNL     1       2.363   6.216  19.515  0.00  0.00    +0.000 C 
ATOM     20  O   UNL     1       1.712   6.191  20.562  0.00  0.00    +0.000 OA
BRANCH  19  21
ATOM     21  C   UNL     1       2.800   4.893  18.958  0.00  0.00    +0.000 A 
ATOM     22  C   UNL     1       3.731   4.053  19.580  0.00  0.00    +0.000 A 
ATOM     23  C   UNL     1       4.133   2.854  18.985  0.00  0.00    +0.000 A 
ATOM     24  C   UNL     1       3.535   2.426  17.806  0.00  0.00    +0.000 A 
ATOM     25  C   UNL     1       2.537   3.202  17.220  0.00  0.00    +0.000 A 
ATOM     26  C   UNL     1       2.179   4.432  17.785  0.00  0.00    +0.000 A 
ENDBRANCH  19  21
BRANCH  18  27
ATOM     27  C   UNL     1       3.388   7.525  17.609  0.00  0.00    +0.000 C 
BRANCH  27  28
ATOM     28  C   UNL     1       4.917   7.628  17.605  0.00  0.00    +0.000 C 
BRANCH  28  29
ATOM     29  C   UNL     1       5.497   6.385  16.963  0.00  0.00    +0.000 A 
ATOM     30  C   UNL     1       5.005   5.936  15.731  0.00  0.00    +0.000 A 
ATOM     31  C   UNL     1       5.454   4.740  15.176  0.00  0.00    +0.000 A 
ATOM     32  C   UNL     1       6.412   3.976  15.852  0.00  0.00    +0.000 A 
ATOM     33  C   UNL     1       6.911   4.412  17.079  0.00  0.00    +0.000 A 
ATOM     34  C   UNL     1       6.461   5.613  17.633  0.00  0.00    +0.000 A 
ENDBRANCH  28  29
ENDBRANCH  27  28
ENDBRANCH  18  27
ENDBRANCH   5  18
TORSDOF 9
ENDMDL
MODEL 5
REMARK VINA RESULT:      -7.4      3.762     10.812
REMARK  Name = 
REMARK  10 active torsions:
REMARK  status: ('A' for Active; 'I' for Inactive)
REMARK    1  A    between atoms: C_1  and  C_2
REMARK    2  A    between atoms: C_2  and  C_3
REMARK    3  A    between atoms: C_3  and  O_4
REMARK    4  A    between atoms: O_4  and  C_5
REMARK    5  A    between atoms: C_8  and  N_9
REMARK    6  A    between atoms: C_13  and  N_14
REMARK    7  A    between atoms: N_14  and  C_15
REMARK    8  A    between atoms: C_15  and  C_16
REMARK    9  A    between atoms: C_16  and  C_17
REMARK   10  A    between atoms: C_23  and  C_25
REMARK                            x       y       z     vdW  Elec       q    Type
REMARK                         _______ _______ _______ _____ _____    ______ ____
ROOT
ATOM      1  N   UNL     1       0.178  10.762  19.441  0.00  0.00    +0.000 N 
ATOM      2  C   UNL     1      -0.704  11.026  18.421  0.00  0.00    +0.000 C 
ATOM      3  O   UNL     1      -1.008  10.312  17.472  0.00  0.00    +0.000 OA
ATOM      4  C   UNL     1      -1.275  12.401  18.598  0.00  0.00    +0.000 C 
ATOM      5  C   UNL     1      -0.592  12.936  19.845  0.00  0.00    +0.000 C 
ATOM      6  C   UNL     1       0.381  11.842  20.265  0.00  0.00    +0.000 C 
ATOM      7  O   UNL     1       1.237  11.990  21.134  0.00  0.00    +0.000 OA
ENDROOT
BRANCH   1  11
ATOM      8  C   UNL     1       2.219   7.081  19.816  0.00  0.00    +0.000 A 
ATOM      9  C   UNL     1       2.330   7.847  18.655  0.00  0.00    +0.000 A 
ATOM     10  C   UNL     1       1.638   9.053  18.527  0.00  0.00    +0.000 A 
ATOM     11  C   UNL     1       0.870   9.543  19.581  0.00  0.00    +0.000 A 
ATOM     12  C   UNL     1       0.770   8.789  20.756  0.00  0.00    +0.000 A 
ATOM     13  C   UNL     1       1.424   7.553  20.866  0.00  0.00    +0.000 A 
BRANCH   8  14
ATOM     14  O   UNL     1       2.847   5.876  20.020  0.00  0.00    +0.000 OA
BRANCH  14  15
ATOM     15  C   UNL     1       2.944   5.059  18.849  0.00  0.00    +0.000 C 
BRANCH  15  17
ATOM     16  C   UNL     1       1.163   3.745  19.985  0.00  0.00    +0.000 C 
ATOM     17  C   UNL     1       1.689   4.224  18.638  0.00  0.00    +0.000 C 
ENDBRANCH  15  17
ENDBRANCH  14  15
ENDBRANCH   8  14
ENDBRANCH   1  11
BRANCH   5  18
ATOM     18  N   UNL     1      -1.486  13.345  20.947  0.00  0.00    +0.000 N 
ATOM     19  C   UNL     1      -1.103  14.476  21.706  0.00  0.00    +0.000 C 
ATOM     20  O   UNL     1      -0.093  15.118  21.409  0.00  0.00    +0.000 OA
BRANCH  19  21
ATOM     21  C   UNL     1      -1.910  14.983  22.866  0.00  0.00    +0.000 A 
ATOM     22  C   UNL     1      -1.774  14.511  24.176  0.00  0.00    +0.000 A 
ATOM     23  C   UNL     1      -2.590  14.989  25.205  0.00  0.00    +0.000 A 
ATOM     24  C   UNL     1      -3.489  16.020  24.959  0.00  0.00    +0.000 A 
ATOM     25  C   UNL     1      -3.572  16.570  23.682  0.00  0.00    +0.000 A 
ATOM     26  C   UNL     1      -2.797  16.048  22.639  0.00  0.00    +0.000 A 
ENDBRANCH  19  21
BRANCH  18  27
ATOM     27  C   UNL     1      -2.690  12.562  21.246  0.00  0.00    +0.000 C 
BRANCH  27  28
ATOM     28  C   UNL     1      -4.054  12.953  20.666  0.00  0.00    +0.000 C 
BRANCH  28  29
ATOM     29  C   UNL     1      -4.954  13.427  21.789  0.00  0.00    +0.000 A 
ATOM     30  C   UNL     1      -4.898  12.806  23.043  0.00  0.00    +0.000 A 
ATOM     31  C   UNL     1      -5.787  13.160  24.055  0.00  0.00    +0.000 A 
ATOM     32  C   UNL     1      -6.749  14.149  23.822  0.00  0.00    +0.000 A 
ATOM     33  C   UNL     1      -6.815  14.776  22.578  0.00  0.00    +0.000 A 
ATOM     34  C   UNL     1      -5.920  14.421  21.565  0.00  0.00    +0.000 A 
ENDBRANCH  28  29
ENDBRANCH  27  28
ENDBRANCH  18  27
ENDBRANCH   5  18
TORSDOF 9
ENDMDL
MODEL 6
REMARK VINA RESULT:      -7.4      3.979     10.659
REMARK  Name = 
REMARK  10 active torsions:
REMARK  status: ('A' for Active; 'I' for Inactive)
REMARK    1  A    between atoms: C_1  and  C_2
REMARK    2  A    between atoms: C_2  and  C_3
REMARK    3  A    between atoms: C_3  and  O_4
REMARK    4  A    between atoms: O_4  and  C_5
REMARK    5  A    between atoms: C_8  and  N_9
REMARK    6  A    between atoms: C_13  and  N_14
REMARK    7  A    between atoms: N_14  and  C_15
REMARK    8  A    between atoms: C_15  and  C_16
REMARK    9  A    between atoms: C_16  and  C_17
REMARK   10  A    between atoms: C_23  and  C_25
REMARK                            x       y       z     vdW  Elec       q    Type
REMARK                         _______ _______ _______ _____ _____    ______ ____
ROOT
ATOM      1  N   UNL     1       0.258  10.874  18.769  0.00  0.00    +0.000 N 
ATOM      2  C   UNL     1      -1.022  10.921  18.272  0.00  0.00    +0.000 C 
ATOM      3  O   UNL     1      -1.727   9.991  17.896  0.00  0.00    +0.000 OA
ATOM      4  C   UNL     1      -1.483  12.346  18.211  0.00  0.00    +0.000 C 
ATOM      5  C   UNL     1      -0.294  13.149  18.710  0.00  0.00    +0.000 C 
ATOM      6  C   UNL     1       0.801  12.122  18.965  0.00  0.00    +0.000 C 
ATOM      7  O   UNL     1       1.967  12.417  19.210  0.00  0.00    +0.000 OA
ENDROOT
BRANCH   1  11
ATOM      8  C   UNL     1       2.369   7.260  19.350  0.00  0.00    +0.000 A 
ATOM      9  C   UNL     1       2.337   7.878  18.100  0.00  0.00    +0.000 A 
ATOM     10  C   UNL     1       1.622   9.062  17.907  0.00  0.00    +0.000 A 
ATOM     11  C   UNL     1       0.975   9.680  18.975  0.00  0.00    +0.000 A 
ATOM     12  C   UNL     1       1.019   9.074  20.237  0.00  0.00    +0.000 A 
ATOM     13  C   UNL     1       1.695   7.859  20.419  0.00  0.00    +0.000 A 
BRANCH   8  14
ATOM     14  O   UNL     1       3.029   6.087  19.624  0.00  0.00    +0.000 OA
BRANCH  14  15
ATOM     15  C   UNL     1       3.969   5.693  18.620  0.00  0.00    +0.000 C 
BRANCH  15  17
ATOM     16  C   UNL     1       2.266   4.124  17.712  0.00  0.00    +0.000 C 
ATOM     17  C   UNL     1       3.719   4.270  18.141  0.00  0.00    +0.000 C 
ENDBRANCH  15  17
ENDBRANCH  14  15
ENDBRANCH   8  14
ENDBRANCH   1  11
BRANCH   5  18
ATOM     18  N   UNL     1      -0.542  14.009  19.885  0.00  0.00    +0.000 N 
ATOM     19  C   UNL     1      -0.548  15.408  19.673  0.00  0.00    +0.000 C 
ATOM     20  O   UNL     1      -0.411  15.871  18.539  0.00  0.00    +0.000 OA
BRANCH  19  21
ATOM     21  C   UNL     1      -0.766  16.393  20.785  0.00  0.00    +0.000 A 
ATOM     22  C   UNL     1      -2.012  16.940  21.110  0.00  0.00    +0.000 A 
ATOM     23  C   UNL     1      -2.142  17.891  22.126  0.00  0.00    +0.000 A 
ATOM     24  C   UNL     1      -1.041  18.236  22.901  0.00  0.00    +0.000 A 
ATOM     25  C   UNL     1       0.190  17.631  22.656  0.00  0.00    +0.000 A 
ATOM     26  C   UNL     1       0.331  16.724  21.598  0.00  0.00    +0.000 A 
ENDBRANCH  19  21
BRANCH  18  27
ATOM     27  C   UNL     1      -0.723  13.408  21.211  0.00  0.00    +0.000 C 
BRANCH  27  28
ATOM     28  C   UNL     1      -2.123  13.122  21.766  0.00  0.00    +0.000 C 
BRANCH  28  29
ATOM     29  C   UNL     1      -2.337  13.945  23.021  0.00  0.00    +0.000 A 
ATOM     30  C   UNL     1      -3.606  14.457  23.317  0.00  0.00    +0.000 A 
ATOM     31  C   UNL     1      -3.798  15.299  24.410  0.00  0.00    +0.000 A 
ATOM     32  C   UNL     1      -2.713  15.639  25.226  0.00  0.00    +0.000 A 
ATOM     33  C   UNL     1      -1.444  15.135  24.943  0.00  0.00    +0.000 A 
ATOM     34  C   UNL     1      -1.254  14.288  23.848  0.00  0.00    +0.000 A 
ENDBRANCH  28  29
ENDBRANCH  27  28
ENDBRANCH  18  27
ENDBRANCH   5  18
TORSDOF 9
ENDMDL
MODEL 7
REMARK VINA RESULT:      -7.4      3.733     10.678
REMARK  Name = 
REMARK  10 active torsions:
REMARK  status: ('A' for Active; 'I' for Inactive)
REMARK    1  A    between atoms: C_1  and  C_2
REMARK    2  A    between atoms: C_2  and  C_3
REMARK    3  A    between atoms: C_3  and  O_4
REMARK    4  A    between atoms: O_4  and  C_5
REMARK    5  A    between atoms: C_8  and  N_9
REMARK    6  A    between atoms: C_13  and  N_14
REMARK    7  A    between atoms: N_14  and  C_15
REMARK    8  A    between atoms: C_15  and  C_16
REMARK    9  A    between atoms: C_16  and  C_17
REMARK   10  A    between atoms: C_23  and  C_25
REMARK                            x       y       z     vdW  Elec       q    Type
REMARK                         _______ _______ _______ _____ _____    ______ ____
ROOT
ATOM      1  N   UNL     1       0.230  10.699  19.508  0.00  0.00    +0.000 N 
ATOM      2  C   UNL     1      -0.642  11.021  18.496  0.00  0.00    +0.000 C 
ATOM      3  O   UNL     1      -0.980  10.338  17.535  0.00  0.00    +0.000 OA
ATOM      4  C   UNL     1      -1.152  12.417  18.700  0.00  0.00    +0.000 C 
ATOM      5  C   UNL     1      -0.442  12.897  19.955  0.00  0.00    +0.000 C 
ATOM      6  C   UNL     1       0.483  11.754  20.351  0.00  0.00    +0.000 C 
ATOM      7  O   UNL     1       1.346  11.847  21.220  0.00  0.00    +0.000 OA
ENDROOT
BRANCH   1  11
ATOM      8  C   UNL     1       2.179   6.970  19.898  0.00  0.00    +0.000 A 
ATOM      9  C   UNL     1       1.382   7.473  20.926  0.00  0.00    +0.000 A 
ATOM     10  C   UNL     1       0.755   8.714  20.801  0.00  0.00    +0.000 A 
ATOM     11  C   UNL     1       0.868   9.449  19.623  0.00  0.00    +0.000 A 
ATOM     12  C   UNL     1       1.651   8.941  18.579  0.00  0.00    +0.000 A 
ATOM     13  C   UNL     1       2.322   7.717  18.724  0.00  0.00    +0.000 A 
BRANCH   8  14
ATOM     14  O   UNL     1       2.847   5.770  19.942  0.00  0.00    +0.000 OA
BRANCH  14  15
ATOM     15  C   UNL     1       2.271   4.811  20.834  0.00  0.00    +0.000 C 
BRANCH  15  17
ATOM     16  C   UNL     1       1.673   2.954  19.291  0.00  0.00    +0.000 C 
ATOM     17  C   UNL     1       1.120   4.056  20.184  0.00  0.00    +0.000 C 
ENDBRANCH  15  17
ENDBRANCH  14  15
ENDBRANCH   8  14
ENDBRANCH   1  11
BRANCH   5  18
ATOM     18  N   UNL     1      -1.314  13.325  21.067  0.00  0.00    +0.000 N 
ATOM     19  C   UNL     1      -0.938  14.492  21.773  0.00  0.00    +0.000 C 
ATOM     20  O   UNL     1       0.047  15.146  21.424  0.00  0.00    +0.000 OA
BRANCH  19  21
ATOM     21  C   UNL     1      -1.725  15.021  22.937  0.00  0.00    +0.000 A 
ATOM     22  C   UNL     1      -1.449  14.706  24.272  0.00  0.00    +0.000 A 
ATOM     23  C   UNL     1      -2.249  15.192  25.310  0.00  0.00    +0.000 A 
ATOM     24  C   UNL     1      -3.279  16.084  25.036  0.00  0.00    +0.000 A 
ATOM     25  C   UNL     1      -3.509  16.486  23.722  0.00  0.00    +0.000 A 
ATOM     26  C   UNL     1      -2.746  15.950  22.677  0.00  0.00    +0.000 A 
ENDBRANCH  19  21
BRANCH  18  27
ATOM     27  C   UNL     1      -2.490  12.524  21.429  0.00  0.00    +0.000 C 
BRANCH  27  28
ATOM     28  C   UNL     1      -3.883  12.875  20.894  0.00  0.00    +0.000 C 
BRANCH  28  29
ATOM     29  C   UNL     1      -4.885  12.791  22.028  0.00  0.00    +0.000 A 
ATOM     30  C   UNL     1      -6.256  12.895  21.762  0.00  0.00    +0.000 A 
ATOM     31  C   UNL     1      -7.184  12.923  22.800  0.00  0.00    +0.000 A 
ATOM     32  C   UNL     1      -6.747  12.842  24.126  0.00  0.00    +0.000 A 
ATOM     33  C   UNL     1      -5.385  12.736  24.405  0.00  0.00    +0.000 A 
ATOM     34  C   UNL     1      -4.455  12.707  23.362  0.00  0.00    +0.000 A 
ENDBRANCH  28  29
ENDBRANCH  27  28
ENDBRANCH  18  27
ENDBRANCH   5  18
TORSDOF 9
ENDMDL
MODEL 8
REMARK VINA RESULT:      -7.4      3.967     10.601
REMARK  Name = 
REMARK  10 active torsions:
REMARK  status: ('A' for Active; 'I' for Inactive)
REMARK    1  A    between atoms: C_1  and  C_2
REMARK    2  A    between atoms: C_2  and  C_3
REMARK    3  A    between atoms: C_3  and  O_4
REMARK    4  A    between atoms: O_4  and  C_5
REMARK    5  A    between atoms: C_8  and  N_9
REMARK    6  A    between atoms: C_13  and  N_14
REMARK    7  A    between atoms: N_14  and  C_15
REMARK    8  A    between atoms: C_15  and  C_16
REMARK    9  A    between atoms: C_16  and  C_17
REMARK   10  A    between atoms: C_23  and  C_25
REMARK                            x       y       z     vdW  Elec       q    Type
REMARK                         _______ _______ _______ _____ _____    ______ ____
ROOT
ATOM      1  N   UNL     1       0.261  10.876  18.748  0.00  0.00    +0.000 N 
ATOM      2  C   UNL     1      -1.045  10.942  18.327  0.00  0.00    +0.000 C 
ATOM      3  O   UNL     1      -1.779  10.024  17.976  0.00  0.00    +0.000 OA
ATOM      4  C   UNL     1      -1.496  12.372  18.317  0.00  0.00    +0.000 C 
ATOM      5  C   UNL     1      -0.273  13.156  18.759  0.00  0.00    +0.000 C 
ATOM      6  C   UNL     1       0.825  12.115  18.934  0.00  0.00    +0.000 C 
ATOM      7  O   UNL     1       2.007  12.397  19.116  0.00  0.00    +0.000 OA
ENDROOT
BRANCH   1  11
ATOM      8  C   UNL     1       2.449   7.291  19.219  0.00  0.00    +0.000 A 
ATOM      9  C   UNL     1       1.715   7.828  20.277  0.00  0.00    +0.000 A 
ATOM     10  C   UNL     1       1.009   9.023  20.123  0.00  0.00    +0.000 A 
ATOM     11  C   UNL     1       0.978   9.672  18.892  0.00  0.00    +0.000 A 
ATOM     12  C   UNL     1       1.697   9.130  17.819  0.00  0.00    +0.000 A 
ATOM     13  C   UNL     1       2.447   7.956  17.988  0.00  0.00    +0.000 A 
BRANCH   8  14
ATOM     14  O   UNL     1       3.186   6.134  19.286  0.00  0.00    +0.000 OA
BRANCH  14  15
ATOM     15  C   UNL     1       3.201   5.376  18.073  0.00  0.00    +0.000 C 
BRANCH  15  17
ATOM     16  C   UNL     1       2.423   3.067  17.575  0.00  0.00    +0.000 C 
ATOM     17  C   UNL     1       1.982   4.474  17.956  0.00  0.00    +0.000 C 
ENDBRANCH  15  17
ENDBRANCH  14  15
ENDBRANCH   8  14
ENDBRANCH   1  11
BRANCH   5  18
ATOM     18  N   UNL     1      -0.445  13.997  19.961  0.00  0.00    +0.000 N 
ATOM     19  C   UNL     1      -0.502  15.398  19.768  0.00  0.00    +0.000 C 
ATOM     20  O   UNL     1      -0.468  15.876  18.633  0.00  0.00    +0.000 OA
BRANCH  19  21
ATOM     21  C   UNL     1      -0.651  16.365  20.906  0.00  0.00    +0.000 A 
ATOM     22  C   UNL     1      -1.858  16.984  21.250  0.00  0.00    +0.000 A 
ATOM     23  C   UNL     1      -1.922  17.915  22.291  0.00  0.00    +0.000 A 
ATOM     24  C   UNL     1      -0.800  18.166  23.071  0.00  0.00    +0.000 A 
ATOM     25  C   UNL     1       0.388  17.489  22.805  0.00  0.00    +0.000 A 
ATOM     26  C   UNL     1       0.466  16.602  21.723  0.00  0.00    +0.000 A 
ENDBRANCH  19  21
BRANCH  18  27
ATOM     27  C   UNL     1      -0.503  13.378  21.290  0.00  0.00    +0.000 C 
BRANCH  27  28
ATOM     28  C   UNL     1      -1.836  12.921  21.893  0.00  0.00    +0.000 C 
BRANCH  28  29
ATOM     29  C   UNL     1      -2.253  13.899  22.974  0.00  0.00    +0.000 A 
ATOM     30  C   UNL     1      -1.328  14.314  23.940  0.00  0.00    +0.000 A 
ATOM     31  C   UNL     1      -1.720  15.130  24.998  0.00  0.00    +0.000 A 
ATOM     32  C   UNL     1      -3.052  15.547  25.100  0.00  0.00    +0.000 A 
ATOM     33  C   UNL     1      -3.982  15.143  24.143  0.00  0.00    +0.000 A 
ATOM     34  C   UNL     1      -3.587  14.325  23.081  0.00  0.00    +0.000 A 
ENDBRANCH  28  29
ENDBRANCH  27  28
ENDBRANCH  18  27
ENDBRANCH   5  18
TORSDOF 9
ENDMDL
MODEL 9
REMARK VINA RESULT:      -7.4      3.843     10.637
REMARK  Name = 
REMARK  10 active torsions:
REMARK  status: ('A' for Active; 'I' for Inactive)
REMARK    1  A    between atoms: C_1  and  C_2
REMARK    2  A    between atoms: C_2  and  C_3
REMARK    3  A    between atoms: C_3  and  O_4
REMARK    4  A    between atoms: O_4  and  C_5
REMARK    5  A    between atoms: C_8  and  N_9
REMARK    6  A    between atoms: C_13  and  N_14
REMARK    7  A    between atoms: N_14  and  C_15
REMARK    8  A    between atoms: C_15  and  C_16
REMARK    9  A    between atoms: C_16  and  C_17
REMARK   10  A    between atoms: C_23  and  C_25
REMARK                            x       y       z     vdW  Elec       q    Type
REMARK                         _______ _______ _______ _____ _____    ______ ____
ROOT
ATOM      1  N   UNL     1       0.319  11.087  19.525  0.00  0.00    +0.000 N 
ATOM      2  C   UNL     1      -0.835  11.364  18.833  0.00  0.00    +0.000 C 
ATOM      3  O   UNL     1      -1.419  10.663  18.013  0.00  0.00    +0.000 OA
ATOM      4  C   UNL     1      -1.321  12.735  19.199  0.00  0.00    +0.000 C 
ATOM      5  C   UNL     1      -0.284  13.252  20.181  0.00  0.00    +0.000 C 
ATOM      6  C   UNL     1       0.769  12.155  20.262  0.00  0.00    +0.000 C 
ATOM      7  O   UNL     1       1.852  12.291  20.826  0.00  0.00    +0.000 OA
ENDROOT
BRANCH   1  11
ATOM      8  C   UNL     1       2.376   7.411  19.181  0.00  0.00    +0.000 A 
ATOM      9  C   UNL     1       2.359   8.325  18.127  0.00  0.00    +0.000 A 
ATOM     10  C   UNL     1       1.662   9.530  18.237  0.00  0.00    +0.000 A 
ATOM     11  C   UNL     1       1.018   9.868  19.424  0.00  0.00    +0.000 A 
ATOM     12  C   UNL     1       1.046   8.964  20.494  0.00  0.00    +0.000 A 
ATOM     13  C   UNL     1       1.704   7.732  20.365  0.00  0.00    +0.000 A 
BRANCH   8  14
ATOM     14  O   UNL     1       3.018   6.197  19.153  0.00  0.00    +0.000 OA
BRANCH  14  15
ATOM     15  C   UNL     1       2.368   5.208  18.349  0.00  0.00    +0.000 C 
BRANCH  15  17
ATOM     16  C   UNL     1       4.549   5.373  17.166  0.00  0.00    +0.000 C 
ATOM     17  C   UNL     1       3.353   4.475  17.451  0.00  0.00    +0.000 C 
ENDBRANCH  15  17
ENDBRANCH  14  15
ENDBRANCH   8  14
ENDBRANCH   1  11
BRANCH   5  18
ATOM     18  N   UNL     1      -0.792  13.642  21.512  0.00  0.00    +0.000 N 
ATOM     19  C   UNL     1      -1.197  14.986  21.682  0.00  0.00    +0.000 C 
ATOM     20  O   UNL     1      -1.177  15.772  20.732  0.00  0.00    +0.000 OA
BRANCH  19  21
ATOM     21  C   UNL     1      -1.711  15.517  22.989  0.00  0.00    +0.000 A 
ATOM     22  C   UNL     1      -0.937  15.611  24.151  0.00  0.00    +0.000 A 
ATOM     23  C   UNL     1      -1.488  16.068  25.351  0.00  0.00    +0.000 A 
ATOM     24  C   UNL     1      -2.797  16.535  25.384  0.00  0.00    +0.000 A 
ATOM     25  C   UNL     1      -3.555  16.539  24.215  0.00  0.00    +0.000 A 
ATOM     26  C   UNL     1      -3.021  16.023  23.028  0.00  0.00    +0.000 A 
ENDBRANCH  19  21
BRANCH  18  27
ATOM     27  C   UNL     1      -0.819  12.662  22.604  0.00  0.00    +0.000 C 
BRANCH  27  28
ATOM     28  C   UNL     1      -1.928  11.609  22.697  0.00  0.00    +0.000 C 
BRANCH  28  29
ATOM     29  C   UNL     1      -3.258  12.306  22.899  0.00  0.00    +0.000 A 
ATOM     30  C   UNL     1      -3.737  12.544  24.194  0.00  0.00    +0.000 A 
ATOM     31  C   UNL     1      -5.002  13.090  24.398  0.00  0.00    +0.000 A 
ATOM     32  C   UNL     1      -5.807  13.409  23.299  0.00  0.00    +0.000 A 
ATOM     33  C   UNL     1      -5.343  13.178  22.004  0.00  0.00    +0.000 A 
ATOM     34  C   UNL     1      -4.072  12.632  21.802  0.00  0.00    +0.000 A 
ENDBRANCH  28  29
ENDBRANCH  27  28
ENDBRANCH  18  27
ENDBRANCH   5  18
TORSDOF 9
ENDMDL
