MODEL 1
REMARK VINA RESULT:      -8.3      0.000      0.000
REMARK  Name = 
REMARK  11 active torsions:
REMARK  status: ('A' for Active; 'I' for Inactive)
REMARK    1  A    between atoms: C_1  and  O_2
REMARK    2  A    between atoms: O_2  and  C_3
REMARK    3  A    between atoms: C_3  and  C_5
REMARK    4  A    between atoms: C_16  and  C_18
REMARK    5  A    between atoms: C_18  and  C_19
REMARK    6  A    between atoms: C_21  and  O_22
REMARK    7  A    between atoms: O_22  and  C_23
REMARK    8  A    between atoms: C_24  and  O_25
REMARK    9  A    between atoms: O_25  and  C_26
REMARK   10  A    between atoms: C_27  and  O_28
REMARK   11  A    between atoms: O_28  and  C_29
REMARK                            x       y       z     vdW  Elec       q    Type
REMARK                         _______ _______ _______ _____ _____    ______ ____
ROOT
ATOM      1  C   UNL     1       1.804   7.624  20.017  0.00  0.00    +0.000 A 
ATOM      2  C   UNL     1       2.724   7.438  18.989  0.00  0.00    +0.000 A 
ATOM      3  C   UNL     1       3.274   6.178  18.766  0.00  0.00    +0.000 A 
ATOM      4  C   UNL     1       2.876   5.067  19.502  0.00  0.00    +0.000 A 
ATOM      5  C   UNL     1       2.015   5.282  20.595  0.00  0.00    +0.000 A 
ATOM      6  C   UNL     1       1.472   6.550  20.847  0.00  0.00    +0.000 A 
ATOM      7  N   UNL     1       1.662   4.222  21.437  0.00  0.00    +0.000 N 
ATOM      8  C   UNL     1       2.258   2.988  21.373  0.00  0.00    +0.000 C 
ATOM      9  O   UNL     1       1.978   2.121  22.194  0.00  0.00    +0.000 OA
ATOM     10  C   UNL     1       3.394   2.848  20.373  0.00  0.00    +0.000 C 
ATOM     11  N   UNL     1       3.274   3.730  19.200  0.00  0.00    +0.000 N 
ATOM     12  C   UNL     1       3.472   3.156  17.943  0.00  0.00    +0.000 C 
ATOM     13  O   UNL     1       3.736   1.950  17.832  0.00  0.00    +0.000 OA
ATOM     14  H   UNL     1       0.994   4.346  22.186  0.00  0.00    +0.000 HD
ENDROOT
BRANCH   1  15
ATOM     15  C   UNL     1       1.239   8.986  20.167  0.00  0.00    +0.000 C 
ATOM     16  O   UNL     1       0.847   9.432  21.234  0.00  0.00    +0.000 OA
BRANCH  15  18
ATOM     17  C   UNL     1       0.848  11.001  19.093  0.00  0.00    +0.000 C 
ATOM     18  O   UNL     1       1.215   9.628  18.976  0.00  0.00    +0.000 OA
ENDBRANCH  15  18
ENDBRANCH   1  15
BRANCH  12  19
ATOM     19  C   UNL     1       3.419   3.988  16.659  0.00  0.00    +0.000 C 
BRANCH  19  20
ATOM     20  C   UNL     1       4.788   4.234  16.042  0.00  0.00    +0.000 A 
ATOM     21  C   UNL     1       5.647   5.202  16.573  0.00  0.00    +0.000 A 
ATOM     22  C   UNL     1       6.813   5.587  15.911  0.00  0.00    +0.000 A 
ATOM     23  C   UNL     1       7.151   4.983  14.685  0.00  0.00    +0.000 A 
ATOM     24  C   UNL     1       6.319   3.972  14.152  0.00  0.00    +0.000 A 
ATOM     25  C   UNL     1       5.160   3.590  14.852  0.00  0.00    +0.000 A 
BRANCH  22  26
ATOM     26  O   UNL     1       7.635   6.582  16.389  0.00  0.00    +0.000 OA
ATOM     27  C   UNL     1       7.554   6.843  17.789  0.00  0.00    +0.000 C 
ENDBRANCH  22  26
BRANCH  23  28
ATOM     28  O   UNL     1       8.249   5.522  14.055  0.00  0.00    +0.000 OA
ATOM     29  C   UNL     1       8.120   5.800  12.667  0.00  0.00    +0.000 C 
ENDBRANCH  23  28
BRANCH  24  30
ATOM     30  O   UNL     1       6.652   3.461  12.925  0.00  0.00    +0.000 OA
ATOM     31  C   UNL     1       5.609   3.133  12.018  0.00  0.00    +0.000 C 
ENDBRANCH  24  30
ENDBRANCH  19  20
ENDBRANCH  12  19
TORSDOF 7
ENDMDL
MODEL 2
REMARK VINA RESULT:      -7.7      2.104      8.085
REMARK  Name = 
REMARK  11 active torsions:
REMARK  status: ('A' for Active; 'I' for Inactive)
REMARK    1  A    between atoms: C_1  and  O_2
REMARK    2  A    between atoms: O_2  and  C_3
REMARK    3  A    between atoms: C_3  and  C_5
REMARK    4  A    between atoms: C_16  and  C_18
REMARK    5  A    between atoms: C_18  and  C_19
REMARK    6  A    between atoms: C_21  and  O_22
REMARK    7  A    between atoms: O_22  and  C_23
REMARK    8  A    between atoms: C_24  and  O_25
REMARK    9  A    between atoms: O_25  and  C_26
REMARK   10  A    between atoms: C_27  and  O_28
REMARK   11  A    between atoms: O_28  and  C_29
REMARK                            x       y       z     vdW  Elec       q    Type
REMARK                         _______ _______ _______ _____ _____    ______ ____
ROOT
ATOM      1  C   UNL     1       5.572   4.986  17.218  0.00  0.00    +0.000 A 
ATOM      2  C   UNL     1       4.674   6.001  16.900  0.00  0.00    +0.000 A 
ATOM      3  C   UNL     1       3.532   6.190  17.674  0.00  0.00    +0.000 A 
ATOM      4  C   UNL     1       3.289   5.431  18.814  0.00  0.00    +0.000 A 
ATOM      5  C   UNL     1       4.154   4.350  19.075  0.00  0.00    +0.000 A 
ATOM      6  C   UNL     1       5.295   4.134  18.291  0.00  0.00    +0.000 A 
ATOM      7  N   UNL     1       3.903   3.487  20.147  0.00  0.00    +0.000 N 
ATOM      8  C   UNL     1       2.738   3.516  20.871  0.00  0.00    +0.000 C 
ATOM      9  O   UNL     1       2.528   2.676  21.741  0.00  0.00    +0.000 OA
ATOM     10  C   UNL     1       1.683   4.502  20.398  0.00  0.00    +0.000 C 
ATOM     11  N   UNL     1       2.232   5.697  19.735  0.00  0.00    +0.000 N 
ATOM     12  C   UNL     1       1.733   6.938  20.134  0.00  0.00    +0.000 C 
ATOM     13  O   UNL     1       0.864   7.018  21.013  0.00  0.00    +0.000 OA
ATOM     14  H   UNL     1       4.548   2.746  20.387  0.00  0.00    +0.000 HD
ENDROOT
BRANCH   1  15
ATOM     15  C   UNL     1       6.780   4.874  16.367  0.00  0.00    +0.000 C 
ATOM     16  O   UNL     1       7.837   4.411  16.766  0.00  0.00    +0.000 OA
BRANCH  15  18
ATOM     17  C   UNL     1       6.494   4.344  14.130  0.00  0.00    +0.000 C 
ATOM     18  O   UNL     1       6.539   5.361  15.128  0.00  0.00    +0.000 OA
ENDBRANCH  15  18
ENDBRANCH   1  15
BRANCH  12  19
ATOM     19  C   UNL     1       2.197   8.243  19.480  0.00  0.00    +0.000 C 
BRANCH  19  20
ATOM     20  C   UNL     1       1.177   9.367  19.585  0.00  0.00    +0.000 A 
ATOM     21  C   UNL     1       0.921   9.986  20.814  0.00  0.00    +0.000 A 
ATOM     22  C   UNL     1      -0.144  10.871  20.979  0.00  0.00    +0.000 A 
ATOM     23  C   UNL     1      -0.980  11.167  19.885  0.00  0.00    +0.000 A 
ATOM     24  C   UNL     1      -0.714  10.586  18.625  0.00  0.00    +0.000 A 
ATOM     25  C   UNL     1       0.380   9.712  18.483  0.00  0.00    +0.000 A 
BRANCH  22  26
ATOM     26  O   UNL     1      -0.447  11.438  22.195  0.00  0.00    +0.000 OA
ATOM     27  C   UNL     1      -1.028  10.568  23.165  0.00  0.00    +0.000 C 
ENDBRANCH  22  26
BRANCH  23  28
ATOM     28  O   UNL     1      -2.073  11.949  20.183  0.00  0.00    +0.000 OA
ATOM     29  C   UNL     1      -1.907  13.355  20.067  0.00  0.00    +0.000 C 
ENDBRANCH  23  28
BRANCH  24  30
ATOM     30  O   UNL     1      -1.594  10.850  17.607  0.00  0.00    +0.000 OA
ATOM     31  C   UNL     1      -2.475   9.819  17.183  0.00  0.00    +0.000 C 
ENDBRANCH  24  30
ENDBRANCH  19  20
ENDBRANCH  12  19
TORSDOF 7
ENDMDL
MODEL 3
REMARK VINA RESULT:      -7.7      0.620      2.572
REMARK  Name = 
REMARK  11 active torsions:
REMARK  status: ('A' for Active; 'I' for Inactive)
REMARK    1  A    between atoms: C_1  and  O_2
REMARK    2  A    between atoms: O_2  and  C_3
REMARK    3  A    between atoms: C_3  and  C_5
REMARK    4  A    between atoms: C_16  and  C_18
REMARK    5  A    between atoms: C_18  and  C_19
REMARK    6  A    between atoms: C_21  and  O_22
REMARK    7  A    between atoms: O_22  and  C_23
REMARK    8  A    between atoms: C_24  and  O_25
REMARK    9  A    between atoms: O_25  and  C_26
REMARK   10  A    between atoms: C_27  and  O_28
REMARK   11  A    between atoms: O_28  and  C_29
REMARK                            x       y       z     vdW  Elec       q    Type
REMARK                         _______ _______ _______ _____ _____    ______ ____
ROOT
ATOM      1  C   UNL     1       1.732   7.564  20.221  0.00  0.00    +0.000 A 
ATOM      2  C   UNL     1       2.543   7.481  19.092  0.00  0.00    +0.000 A 
ATOM      3  C   UNL     1       3.171   6.280  18.772  0.00  0.00    +0.000 A 
ATOM      4  C   UNL     1       2.957   5.124  19.515  0.00  0.00    +0.000 A 
ATOM      5  C   UNL     1       2.209   5.240  20.703  0.00  0.00    +0.000 A 
ATOM      6  C   UNL     1       1.591   6.448  21.050  0.00  0.00    +0.000 A 
ATOM      7  N   UNL     1       2.047   4.136  21.547  0.00  0.00    +0.000 N 
ATOM      8  C   UNL     1       2.737   2.962  21.381  0.00  0.00    +0.000 C 
ATOM      9  O   UNL     1       2.628   2.057  22.203  0.00  0.00    +0.000 OA
ATOM     10  C   UNL     1       3.760   2.943  20.258  0.00  0.00    +0.000 C 
ATOM     11  N   UNL     1       3.433   3.833  19.132  0.00  0.00    +0.000 N 
ATOM     12  C   UNL     1       3.535   3.304  17.844  0.00  0.00    +0.000 C 
ATOM     13  O   UNL     1       3.889   2.129  17.669  0.00  0.00    +0.000 OA
ATOM     14  H   UNL     1       1.460   4.185  22.369  0.00  0.00    +0.000 HD
ENDROOT
BRANCH   1  15
ATOM     15  C   UNL     1       1.072   8.867  20.472  0.00  0.00    +0.000 C 
ATOM     16  O   UNL     1       0.480   9.492  19.608  0.00  0.00    +0.000 OA
BRANCH  15  18
ATOM     17  C   UNL     1       0.002   9.463  22.438  0.00  0.00    +0.000 C 
ATOM     18  O   UNL     1       1.238   9.247  21.760  0.00  0.00    +0.000 OA
ENDBRANCH  15  18
ENDBRANCH   1  15
BRANCH  12  19
ATOM     19  C   UNL     1       3.265   4.153  16.599  0.00  0.00    +0.000 C 
BRANCH  19  20
ATOM     20  C   UNL     1       4.531   4.555  15.856  0.00  0.00    +0.000 A 
ATOM     21  C   UNL     1       4.872   3.945  14.643  0.00  0.00    +0.000 A 
ATOM     22  C   UNL     1       6.117   4.145  14.048  0.00  0.00    +0.000 A 
ATOM     23  C   UNL     1       7.057   4.992  14.667  0.00  0.00    +0.000 A 
ATOM     24  C   UNL     1       6.718   5.651  15.870  0.00  0.00    +0.000 A 
ATOM     25  C   UNL     1       5.446   5.446  16.437  0.00  0.00    +0.000 A 
BRANCH  22  26
ATOM     26  O   UNL     1       6.490   3.504  12.890  0.00  0.00    +0.000 OA
ATOM     27  C   UNL     1       5.430   3.128  12.012  0.00  0.00    +0.000 C 
ENDBRANCH  22  26
BRANCH  23  28
ATOM     28  O   UNL     1       8.296   5.022  14.067  0.00  0.00    +0.000 OA
ATOM     29  C   UNL     1       8.434   5.850  12.921  0.00  0.00    +0.000 C 
ENDBRANCH  23  28
BRANCH  24  30
ATOM     30  O   UNL     1       7.688   6.411  16.470  0.00  0.00    +0.000 OA
ATOM     31  C   UNL     1       7.300   7.348  17.466  0.00  0.00    +0.000 C 
ENDBRANCH  24  30
ENDBRANCH  19  20
ENDBRANCH  12  19
TORSDOF 7
ENDMDL
MODEL 4
REMARK VINA RESULT:      -7.7      1.935      8.127
REMARK  Name = 
REMARK  11 active torsions:
REMARK  status: ('A' for Active; 'I' for Inactive)
REMARK    1  A    between atoms: C_1  and  O_2
REMARK    2  A    between atoms: O_2  and  C_3
REMARK    3  A    between atoms: C_3  and  C_5
REMARK    4  A    between atoms: C_16  and  C_18
REMARK    5  A    between atoms: C_18  and  C_19
REMARK    6  A    between atoms: C_21  and  O_22
REMARK    7  A    between atoms: O_22  and  C_23
REMARK    8  A    between atoms: C_24  and  O_25
REMARK    9  A    between atoms: O_25  and  C_26
REMARK   10  A    between atoms: C_27  and  O_28
REMARK   11  A    between atoms: O_28  and  C_29
REMARK                            x       y       z     vdW  Elec       q    Type
REMARK                         _______ _______ _______ _____ _____    ______ ____
ROOT
ATOM      1  C   UNL     1       5.810   5.526  16.907  0.00  0.00    +0.000 A 
ATOM      2  C   UNL     1       5.030   6.646  17.183  0.00  0.00    +0.000 A 
ATOM      3  C   UNL     1       3.803   6.499  17.826  0.00  0.00    +0.000 A 
ATOM      4  C   UNL     1       3.355   5.260  18.271  0.00  0.00    +0.000 A 
ATOM      5  C   UNL     1       4.108   4.125  17.908  0.00  0.00    +0.000 A 
ATOM      6  C   UNL     1       5.332   4.256  17.241  0.00  0.00    +0.000 A 
ATOM      7  N   UNL     1       3.655   2.843  18.236  0.00  0.00    +0.000 N 
ATOM      8  C   UNL     1       2.404   2.600  18.743  0.00  0.00    +0.000 C 
ATOM      9  O   UNL     1       2.022   1.448  18.927  0.00  0.00    +0.000 OA
ATOM     10  C   UNL     1       1.488   3.807  18.866  0.00  0.00    +0.000 C 
ATOM     11  N   UNL     1       2.197   5.079  19.085  0.00  0.00    +0.000 N 
ATOM     12  C   UNL     1       1.723   5.910  20.101  0.00  0.00    +0.000 C 
ATOM     13  O   UNL     1       0.744   5.579  20.785  0.00  0.00    +0.000 OA
ATOM     14  H   UNL     1       4.214   2.023  18.041  0.00  0.00    +0.000 HD
ENDROOT
BRANCH   1  15
ATOM     15  C   UNL     1       7.117   5.770  16.253  0.00  0.00    +0.000 C 
ATOM     16  O   UNL     1       7.750   6.804  16.393  0.00  0.00    +0.000 OA
BRANCH  15  18
ATOM     17  C   UNL     1       6.971   4.787  14.161  0.00  0.00    +0.000 C 
ATOM     18  O   UNL     1       7.477   4.711  15.492  0.00  0.00    +0.000 OA
ENDBRANCH  15  18
ENDBRANCH   1  15
BRANCH  12  19
ATOM     19  C   UNL     1       2.354   7.277  20.385  0.00  0.00    +0.000 C 
BRANCH  19  20
ATOM     20  C   UNL     1       1.346   8.417  20.389  0.00  0.00    +0.000 A 
ATOM     21  C   UNL     1       0.857   8.943  19.188  0.00  0.00    +0.000 A 
ATOM     22  C   UNL     1       0.096  10.111  19.156  0.00  0.00    +0.000 A 
ATOM     23  C   UNL     1      -0.206  10.778  20.359  0.00  0.00    +0.000 A 
ATOM     24  C   UNL     1       0.241  10.242  21.587  0.00  0.00    +0.000 A 
ATOM     25  C   UNL     1       0.990   9.050  21.590  0.00  0.00    +0.000 A 
BRANCH  22  26
ATOM     26  O   UNL     1      -0.337  10.674  17.978  0.00  0.00    +0.000 OA
ATOM     27  C   UNL     1      -1.573  10.180  17.465  0.00  0.00    +0.000 C 
ENDBRANCH  22  26
BRANCH  23  28
ATOM     28  O   UNL     1      -0.852  11.984  20.207  0.00  0.00    +0.000 OA
ATOM     29  C   UNL     1      -0.047  13.154  20.265  0.00  0.00    +0.000 C 
ENDBRANCH  23  28
BRANCH  24  30
ATOM     30  O   UNL     1      -0.020  10.961  22.724  0.00  0.00    +0.000 OA
ATOM     31  C   UNL     1      -1.327  10.907  23.280  0.00  0.00    +0.000 C 
ENDBRANCH  24  30
ENDBRANCH  19  20
ENDBRANCH  12  19
TORSDOF 7
ENDMDL
MODEL 5
REMARK VINA RESULT:      -7.6      2.301      8.570
REMARK  Name = 
REMARK  11 active torsions:
REMARK  status: ('A' for Active; 'I' for Inactive)
REMARK    1  A    between atoms: C_1  and  O_2
REMARK    2  A    between atoms: O_2  and  C_3
REMARK    3  A    between atoms: C_3  and  C_5
REMARK    4  A    between atoms: C_16  and  C_18
REMARK    5  A    between atoms: C_18  and  C_19
REMARK    6  A    between atoms: C_21  and  O_22
REMARK    7  A    between atoms: O_22  and  C_23
REMARK    8  A    between atoms: C_24  and  O_25
REMARK    9  A    between atoms: O_25  and  C_26
REMARK   10  A    between atoms: C_27  and  O_28
REMARK   11  A    between atoms: O_28  and  C_29
REMARK                            x       y       z     vdW  Elec       q    Type
REMARK                         _______ _______ _______ _____ _____    ______ ____
ROOT
ATOM      1  C   UNL     1       5.473   5.667  17.616  0.00  0.00    +0.000 A 
ATOM      2  C   UNL     1       4.538   6.658  17.330  0.00  0.00    +0.000 A 
ATOM      3  C   UNL     1       3.361   6.740  18.069  0.00  0.00    +0.000 A 
ATOM      4  C   UNL     1       3.115   5.895  19.146  0.00  0.00    +0.000 A 
ATOM      5  C   UNL     1       4.022   4.841  19.370  0.00  0.00    +0.000 A 
ATOM      6  C   UNL     1       5.200   4.732  18.618  0.00  0.00    +0.000 A 
ATOM      7  N   UNL     1       3.776   3.896  20.372  0.00  0.00    +0.000 N 
ATOM      8  C   UNL     1       2.586   3.821  21.050  0.00  0.00    +0.000 C 
ATOM      9  O   UNL     1       2.386   2.916  21.854  0.00  0.00    +0.000 OA
ATOM     10  C   UNL     1       1.501   4.787  20.602  0.00  0.00    +0.000 C 
ATOM     11  N   UNL     1       2.014   6.048  20.041  0.00  0.00    +0.000 N 
ATOM     12  C   UNL     1       1.440   7.235  20.501  0.00  0.00    +0.000 C 
ATOM     13  O   UNL     1       0.536   7.214  21.349  0.00  0.00    +0.000 OA
ATOM     14  H   UNL     1       4.448   3.172  20.588  0.00  0.00    +0.000 HD
ENDROOT
BRANCH   1  15
ATOM     15  C   UNL     1       6.715   5.669  16.807  0.00  0.00    +0.000 C 
ATOM     16  O   UNL     1       7.397   6.667  16.635  0.00  0.00    +0.000 OA
BRANCH  15  18
ATOM     17  C   UNL     1       6.706   4.363  14.894  0.00  0.00    +0.000 C 
ATOM     18  O   UNL     1       6.956   4.440  16.296  0.00  0.00    +0.000 OA
ENDBRANCH  15  18
ENDBRANCH   1  15
BRANCH  12  19
ATOM     19  C   UNL     1       1.862   8.601  19.952  0.00  0.00    +0.000 C 
BRANCH  19  20
ATOM     20  C   UNL     1       0.737   9.625  19.953  0.00  0.00    +0.000 A 
ATOM     21  C   UNL     1      -0.094   9.774  18.836  0.00  0.00    +0.000 A 
ATOM     22  C   UNL     1      -0.995  10.834  18.731  0.00  0.00    +0.000 A 
ATOM     23  C   UNL     1      -1.089  11.774  19.774  0.00  0.00    +0.000 A 
ATOM     24  C   UNL     1      -0.291  11.619  20.929  0.00  0.00    +0.000 A 
ATOM     25  C   UNL     1       0.595  10.528  21.017  0.00  0.00    +0.000 A 
BRANCH  22  26
ATOM     26  O   UNL     1      -1.772  11.030  17.612  0.00  0.00    +0.000 OA
ATOM     27  C   UNL     1      -2.764  10.037  17.357  0.00  0.00    +0.000 C 
ENDBRANCH  22  26
BRANCH  23  28
ATOM     28  O   UNL     1      -1.913  12.847  19.517  0.00  0.00    +0.000 OA
ATOM     29  C   UNL     1      -3.240  12.771  20.020  0.00  0.00    +0.000 C 
ENDBRANCH  23  28
BRANCH  24  30
ATOM     30  O   UNL     1      -0.368  12.595  21.889  0.00  0.00    +0.000 OA
ATOM     31  C   UNL     1      -1.209  12.379  23.014  0.00  0.00    +0.000 C 
ENDBRANCH  24  30
ENDBRANCH  19  20
ENDBRANCH  12  19
TORSDOF 7
ENDMDL
MODEL 6
REMARK VINA RESULT:      -7.5      1.963      7.835
REMARK  Name = 
REMARK  11 active torsions:
REMARK  status: ('A' for Active; 'I' for Inactive)
REMARK    1  A    between atoms: C_1  and  O_2
REMARK    2  A    between atoms: O_2  and  C_3
REMARK    3  A    between atoms: C_3  and  C_5
REMARK    4  A    between atoms: C_16  and  C_18
REMARK    5  A    between atoms: C_18  and  C_19
REMARK    6  A    between atoms: C_21  and  O_22
REMARK    7  A    between atoms: O_22  and  C_23
REMARK    8  A    between atoms: C_24  and  O_25
REMARK    9  A    between atoms: O_25  and  C_26
REMARK   10  A    between atoms: C_27  and  O_28
REMARK   11  A    between atoms: O_28  and  C_29
REMARK                            x       y       z     vdW  Elec       q    Type
REMARK                         _______ _______ _______ _____ _____    ______ ____
ROOT
ATOM      1  C   UNL     1       5.531   5.132  16.554  0.00  0.00    +0.000 A 
ATOM      2  C   UNL     1       4.827   6.317  16.751  0.00  0.00    +0.000 A 
ATOM      3  C   UNL     1       3.653   6.314  17.500  0.00  0.00    +0.000 A 
ATOM      4  C   UNL     1       3.189   5.162  18.126  0.00  0.00    +0.000 A 
ATOM      5  C   UNL     1       3.856   3.954  17.847  0.00  0.00    +0.000 A 
ATOM      6  C   UNL     1       5.026   3.938  17.076  0.00  0.00    +0.000 A 
ATOM      7  N   UNL     1       3.375   2.746  18.364  0.00  0.00    +0.000 N 
ATOM      8  C   UNL     1       2.161   2.633  18.991  0.00  0.00    +0.000 C 
ATOM      9  O   UNL     1       1.744   1.533  19.343  0.00  0.00    +0.000 OA
ATOM     10  C   UNL     1       1.314   3.894  19.036  0.00  0.00    +0.000 C 
ATOM     11  N   UNL     1       2.095   5.142  19.043  0.00  0.00    +0.000 N 
ATOM     12  C   UNL     1       1.746   6.112  19.984  0.00  0.00    +0.000 C 
ATOM     13  O   UNL     1       0.813   5.919  20.777  0.00  0.00    +0.000 OA
ATOM     14  H   UNL     1       3.879   1.879  18.227  0.00  0.00    +0.000 HD
ENDROOT
BRANCH   1  15
ATOM     15  C   UNL     1       6.789   5.225  15.776  0.00  0.00    +0.000 C 
ATOM     16  O   UNL     1       7.541   6.184  15.838  0.00  0.00    +0.000 OA
BRANCH  15  18
ATOM     17  C   UNL     1       6.366   4.261  13.713  0.00  0.00    +0.000 C 
ATOM     18  O   UNL     1       6.956   4.127  15.004  0.00  0.00    +0.000 OA
ENDBRANCH  15  18
ENDBRANCH   1  15
BRANCH  12  19
ATOM     19  C   UNL     1       2.458   7.467  20.049  0.00  0.00    +0.000 C 
BRANCH  19  20
ATOM     20  C   UNL     1       1.509   8.653  19.960  0.00  0.00    +0.000 A 
ATOM     21  C   UNL     1       0.993   9.243  21.120  0.00  0.00    +0.000 A 
ATOM     22  C   UNL     1      -0.027  10.192  21.065  0.00  0.00    +0.000 A 
ATOM     23  C   UNL     1      -0.549  10.583  19.817  0.00  0.00    +0.000 A 
ATOM     24  C   UNL     1      -0.014  10.031  18.632  0.00  0.00    +0.000 A 
ATOM     25  C   UNL     1       1.030   9.091  18.716  0.00  0.00    +0.000 A 
BRANCH  22  26
ATOM     26  O   UNL     1      -0.588  10.735  22.198  0.00  0.00    +0.000 OA
ATOM     27  C   UNL     1      -0.557   9.915  23.366  0.00  0.00    +0.000 C 
ENDBRANCH  22  26
BRANCH  23  28
ATOM     28  O   UNL     1      -1.636  11.426  19.880  0.00  0.00    +0.000 OA
ATOM     29  C   UNL     1      -1.380  12.815  19.714  0.00  0.00    +0.000 C 
ENDBRANCH  23  28
BRANCH  24  30
ATOM     30  O   UNL     1      -0.599  10.391  17.445  0.00  0.00    +0.000 OA
ATOM     31  C   UNL     1      -1.858   9.826  17.108  0.00  0.00    +0.000 C 
ENDBRANCH  24  30
ENDBRANCH  19  20
ENDBRANCH  12  19
TORSDOF 7
ENDMDL
MODEL 7
REMARK VINA RESULT:      -7.4      2.020      7.885
REMARK  Name = 
REMARK  11 active torsions:
REMARK  status: ('A' for Active; 'I' for Inactive)
REMARK    1  A    between atoms: C_1  and  O_2
REMARK    2  A    between atoms: O_2  and  C_3
REMARK    3  A    between atoms: C_3  and  C_5
REMARK    4  A    between atoms: C_16  and  C_18
REMARK    5  A    between atoms: C_18  and  C_19
REMARK    6  A    between atoms: C_21  and  O_22
REMARK    7  A    between atoms: O_22  and  C_23
REMARK    8  A    between atoms: C_24  and  O_25
REMARK    9  A    between atoms: O_25  and  C_26
REMARK   10  A    between atoms: C_27  and  O_28
REMARK   11  A    between atoms: O_28  and  C_29
REMARK                            x       y       z     vdW  Elec       q    Type
REMARK                         _______ _______ _______ _____ _____    ______ ____
ROOT
ATOM      1  C   UNL     1       5.475   4.875  16.441  0.00  0.00    +0.000 A 
ATOM      2  C   UNL     1       4.888   6.069  16.849  0.00  0.00    +0.000 A 
ATOM      3  C   UNL     1       3.707   6.049  17.587  0.00  0.00    +0.000 A 
ATOM      4  C   UNL     1       3.122   4.855  17.996  0.00  0.00    +0.000 A 
ATOM      5  C   UNL     1       3.673   3.656  17.503  0.00  0.00    +0.000 A 
ATOM      6  C   UNL     1       4.848   3.663  16.740  0.00  0.00    +0.000 A 
ATOM      7  N   UNL     1       3.068   2.429  17.794  0.00  0.00    +0.000 N 
ATOM      8  C   UNL     1       1.838   2.326  18.393  0.00  0.00    +0.000 C 
ATOM      9  O   UNL     1       1.310   1.228  18.541  0.00  0.00    +0.000 OA
ATOM     10  C   UNL     1       1.118   3.636  18.665  0.00  0.00    +0.000 C 
ATOM     11  N   UNL     1       2.017   4.779  18.896  0.00  0.00    +0.000 N 
ATOM     12  C   UNL     1       1.748   5.595  19.997  0.00  0.00    +0.000 C 
ATOM     13  O   UNL     1       0.789   5.355  20.743  0.00  0.00    +0.000 OA
ATOM     14  H   UNL     1       3.486   1.555  17.503  0.00  0.00    +0.000 HD
ENDROOT
BRANCH   1  15
ATOM     15  C   UNL     1       6.748   4.982  15.690  0.00  0.00    +0.000 C 
ATOM     16  O   UNL     1       6.837   5.526  14.601  0.00  0.00    +0.000 OA
BRANCH  15  18
ATOM     17  C   UNL     1       7.757   4.717  17.759  0.00  0.00    +0.000 C 
ATOM     18  O   UNL     1       7.756   4.389  16.371  0.00  0.00    +0.000 OA
ENDBRANCH  15  18
ENDBRANCH   1  15
BRANCH  12  19
ATOM     19  C   UNL     1       2.588   6.838  20.304  0.00  0.00    +0.000 C 
BRANCH  19  20
ATOM     20  C   UNL     1       1.768   8.117  20.380  0.00  0.00    +0.000 A 
ATOM     21  C   UNL     1       1.630   8.944  19.259  0.00  0.00    +0.000 A 
ATOM     22  C   UNL     1       1.059  10.213  19.352  0.00  0.00    +0.000 A 
ATOM     23  C   UNL     1       0.595  10.678  20.597  0.00  0.00    +0.000 A 
ATOM     24  C   UNL     1       0.686   9.844  21.733  0.00  0.00    +0.000 A 
ATOM     25  C   UNL     1       1.248   8.559  21.605  0.00  0.00    +0.000 A 
BRANCH  22  26
ATOM     26  O   UNL     1       0.973  11.062  18.272  0.00  0.00    +0.000 OA
ATOM     27  C   UNL     1       2.201  11.643  17.834  0.00  0.00    +0.000 C 
ENDBRANCH  22  26
BRANCH  23  28
ATOM     28  O   UNL     1       0.167  11.987  20.605  0.00  0.00    +0.000 OA
ATOM     29  C   UNL     1       1.096  12.962  21.058  0.00  0.00    +0.000 C 
ENDBRANCH  23  28
BRANCH  24  30
ATOM     30  O   UNL     1       0.283  10.365  22.935  0.00  0.00    +0.000 OA
ATOM     31  C   UNL     1      -1.107  10.411  23.226  0.00  0.00    +0.000 C 
ENDBRANCH  24  30
ENDBRANCH  19  20
ENDBRANCH  12  19
TORSDOF 7
ENDMDL
MODEL 8
REMARK VINA RESULT:      -7.4      2.239      8.314
REMARK  Name = 
REMARK  11 active torsions:
REMARK  status: ('A' for Active; 'I' for Inactive)
REMARK    1  A    between atoms: C_1  and  O_2
REMARK    2  A    between atoms: O_2  and  C_3
REMARK    3  A    between atoms: C_3  and  C_5
REMARK    4  A    between atoms: C_16  and  C_18
REMARK    5  A    between atoms: C_18  and  C_19
REMARK    6  A    between atoms: C_21  and  O_22
REMARK    7  A    between atoms: O_22  and  C_23
REMARK    8  A    between atoms: C_24  and  O_25
REMARK    9  A    between atoms: O_25  and  C_26
REMARK   10  A    between atoms: C_27  and  O_28
REMARK   11  A    between atoms: O_28  and  C_29
REMARK                            x       y       z     vdW  Elec       q    Type
REMARK                         _______ _______ _______ _____ _____    ______ ____
ROOT
ATOM      1  C   UNL     1       5.714   5.430  17.387  0.00  0.00    +0.000 A 
ATOM      2  C   UNL     1       4.780   6.428  17.126  0.00  0.00    +0.000 A 
ATOM      3  C   UNL     1       3.592   6.479  17.851  0.00  0.00    +0.000 A 
ATOM      4  C   UNL     1       3.334   5.594  18.893  0.00  0.00    +0.000 A 
ATOM      5  C   UNL     1       4.242   4.535  19.089  0.00  0.00    +0.000 A 
ATOM      6  C   UNL     1       5.430   4.458  18.350  0.00  0.00    +0.000 A 
ATOM      7  N   UNL     1       3.985   3.553  20.052  0.00  0.00    +0.000 N 
ATOM      8  C   UNL     1       2.787   3.450  20.711  0.00  0.00    +0.000 C 
ATOM      9  O   UNL     1       2.579   2.514  21.478  0.00  0.00    +0.000 OA
ATOM     10  C   UNL     1       1.705   4.428  20.284  0.00  0.00    +0.000 C 
ATOM     11  N   UNL     1       2.220   5.710  19.778  0.00  0.00    +0.000 N 
ATOM     12  C   UNL     1       1.636   6.878  20.273  0.00  0.00    +0.000 C 
ATOM     13  O   UNL     1       0.721   6.823  21.107  0.00  0.00    +0.000 OA
ATOM     14  H   UNL     1       4.657   2.824  20.251  0.00  0.00    +0.000 HD
ENDROOT
BRANCH   1  15
ATOM     15  C   UNL     1       6.967   5.466  16.596  0.00  0.00    +0.000 C 
ATOM     16  O   UNL     1       7.453   4.477  16.072  0.00  0.00    +0.000 OA
BRANCH  15  18
ATOM     17  C   UNL     1       7.846   7.204  17.850  0.00  0.00    +0.000 C 
ATOM     18  O   UNL     1       7.475   6.720  16.562  0.00  0.00    +0.000 OA
ENDBRANCH  15  18
ENDBRANCH   1  15
BRANCH  12  19
ATOM     19  C   UNL     1       2.061   8.264  19.782  0.00  0.00    +0.000 C 
BRANCH  19  20
ATOM     20  C   UNL     1       0.958   9.307  19.889  0.00  0.00    +0.000 A 
ATOM     21  C   UNL     1       0.222   9.686  18.760  0.00  0.00    +0.000 A 
ATOM     22  C   UNL     1      -0.649  10.775  18.787  0.00  0.00    +0.000 A 
ATOM     23  C   UNL     1      -0.810  11.509  19.978  0.00  0.00    +0.000 A 
ATOM     24  C   UNL     1      -0.109  11.117  21.140  0.00  0.00    +0.000 A 
ATOM     25  C   UNL     1       0.747  10.002  21.089  0.00  0.00    +0.000 A 
BRANCH  22  26
ATOM     26  O   UNL     1      -1.331  11.199  17.670  0.00  0.00    +0.000 OA
ATOM     27  C   UNL     1      -2.193  10.240  17.060  0.00  0.00    +0.000 C 
ENDBRANCH  22  26
BRANCH  23  28
ATOM     28  O   UNL     1      -1.592  12.637  19.864  0.00  0.00    +0.000 OA
ATOM     29  C   UNL     1      -0.912  13.878  19.729  0.00  0.00    +0.000 C 
ENDBRANCH  23  28
BRANCH  24  30
ATOM     30  O   UNL     1      -0.246  11.902  22.257  0.00  0.00    +0.000 OA
ATOM     31  C   UNL     1      -1.364  11.687  23.107  0.00  0.00    +0.000 C 
ENDBRANCH  24  30
ENDBRANCH  19  20
ENDBRANCH  12  19
TORSDOF 7
ENDMDL
MODEL 9
REMARK VINA RESULT:      -7.4      2.376      8.617
REMARK  Name = 
REMARK  11 active torsions:
REMARK  status: ('A' for Active; 'I' for Inactive)
REMARK    1  A    between atoms: C_1  and  O_2
REMARK    2  A    between atoms: O_2  and  C_3
REMARK    3  A    between atoms: C_3  and  C_5
REMARK    4  A    between atoms: C_16  and  C_18
REMARK    5  A    between atoms: C_18  and  C_19
REMARK    6  A    between atoms: C_21  and  O_22
REMARK    7  A    between atoms: O_22  and  C_23
REMARK    8  A    between atoms: C_24  and  O_25
REMARK    9  A    between atoms: O_25  and  C_26
REMARK   10  A    between atoms: C_27  and  O_28
REMARK   11  A    between atoms: O_28  and  C_29
REMARK                            x       y       z     vdW  Elec       q    Type
REMARK                         _______ _______ _______ _____ _____    ______ ____
ROOT
ATOM      1  C   UNL     1       5.082   5.962  17.371  0.00  0.00    +0.000 A 
ATOM      2  C   UNL     1       4.115   6.949  17.203  0.00  0.00    +0.000 A 
ATOM      3  C   UNL     1       3.016   7.000  18.057  0.00  0.00    +0.000 A 
ATOM      4  C   UNL     1       2.885   6.128  19.132  0.00  0.00    +0.000 A 
ATOM      5  C   UNL     1       3.819   5.079  19.239  0.00  0.00    +0.000 A 
ATOM      6  C   UNL     1       4.917   5.001  18.372  0.00  0.00    +0.000 A 
ATOM      7  N   UNL     1       3.681   4.108  20.237  0.00  0.00    +0.000 N 
ATOM      8  C   UNL     1       2.565   4.005  21.028  0.00  0.00    +0.000 C 
ATOM      9  O   UNL     1       2.453   3.079  21.825  0.00  0.00    +0.000 OA
ATOM     10  C   UNL     1       1.433   4.968  20.712  0.00  0.00    +0.000 C 
ATOM     11  N   UNL     1       1.876   6.248  20.135  0.00  0.00    +0.000 N 
ATOM     12  C   UNL     1       1.341   7.417  20.678  0.00  0.00    +0.000 C 
ATOM     13  O   UNL     1       0.525   7.367  21.610  0.00  0.00    +0.000 OA
ATOM     14  H   UNL     1       4.378   3.387  20.369  0.00  0.00    +0.000 HD
ENDROOT
BRANCH   1  15
ATOM     15  C   UNL     1       6.238   5.997  16.444  0.00  0.00    +0.000 C 
ATOM     16  O   UNL     1       6.122   5.919  15.231  0.00  0.00    +0.000 OA
BRANCH  15  18
ATOM     17  C   UNL     1       7.643   7.435  17.594  0.00  0.00    +0.000 C 
ATOM     18  O   UNL     1       7.398   6.109  17.130  0.00  0.00    +0.000 OA
ENDBRANCH  15  18
ENDBRANCH   1  15
BRANCH  12  19
ATOM     19  C   UNL     1       1.694   8.800  20.123  0.00  0.00    +0.000 C 
BRANCH  19  20
ATOM     20  C   UNL     1       0.515   9.761  20.102  0.00  0.00    +0.000 A 
ATOM     21  C   UNL     1      -0.319   9.843  18.980  0.00  0.00    +0.000 A 
ATOM     22  C   UNL     1      -1.276  10.849  18.853  0.00  0.00    +0.000 A 
ATOM     23  C   UNL     1      -1.425  11.803  19.878  0.00  0.00    +0.000 A 
ATOM     24  C   UNL     1      -0.623  11.714  21.037  0.00  0.00    +0.000 A 
ATOM     25  C   UNL     1       0.321  10.676  21.148  0.00  0.00    +0.000 A 
BRANCH  22  26
ATOM     26  O   UNL     1      -2.060  10.981  17.729  0.00  0.00    +0.000 OA
ATOM     27  C   UNL     1      -3.090  10.007  17.567  0.00  0.00    +0.000 C 
ENDBRANCH  22  26
BRANCH  23  28
ATOM     28  O   UNL     1      -2.306  12.824  19.598  0.00  0.00    +0.000 OA
ATOM     29  C   UNL     1      -3.587  12.752  20.209  0.00  0.00    +0.000 C 
ENDBRANCH  23  28
BRANCH  24  30
ATOM     30  O   UNL     1      -0.756  12.703  21.977  0.00  0.00    +0.000 OA
ATOM     31  C   UNL     1       0.122  13.819  21.921  0.00  0.00    +0.000 C 
ENDBRANCH  24  30
ENDBRANCH  19  20
ENDBRANCH  12  19
TORSDOF 7
ENDMDL
