MODEL 1
REMARK VINA RESULT:      -8.5      0.000      0.000
REMARK  Name = 
REMARK  9 active torsions:
REMARK  status: ('A' for Active; 'I' for Inactive)
REMARK    1  A    between atoms: C_1  and  C_2
REMARK    2  A    between atoms: C_4  and  C_5
REMARK    3  A    between atoms: C_7  and  O_8
REMARK    4  A    between atoms: O_8  and  C_9
REMARK    5  A    between atoms: C_9  and  C_10
REMARK    6  A    between atoms: N_12  and  C_13
REMARK    7  A    between atoms: C_18  and  C_19
REMARK    8  A    between atoms: N_21  and  C_22
REMARK    9  A    between atoms: C_22  and  C_23
REMARK                            x       y       z     vdW  Elec       q    Type
REMARK                         _______ _______ _______ _____ _____    ______ ____
ROOT
ATOM      1  C   UNL     1       1.977   7.427  20.031  0.00  0.00    +0.000 A 
ATOM      2  C   UNL     1       2.811   7.321  18.909  0.00  0.00    +0.000 A 
ATOM      3  C   UNL     1       2.708   8.243  17.866  0.00  0.00    +0.000 A 
ATOM      4  C   UNL     1       1.796   9.291  17.950  0.00  0.00    +0.000 A 
ATOM      5  C   UNL     1       1.001   9.429  19.088  0.00  0.00    +0.000 A 
ATOM      6  C   UNL     1       1.088   8.508  20.146  0.00  0.00    +0.000 A 
ENDROOT
BRANCH   1   9
ATOM      7  C   UNL     1       2.143   5.055  20.574  0.00  0.00    +0.000 C 
ATOM      8  O   UNL     1       2.411   4.217  21.438  0.00  0.00    +0.000 OA
ATOM      9  N   UNL     1       1.990   6.374  20.963  0.00  0.00    +0.000 N 
ATOM     10  H   UNL     1       2.554   6.507  21.799  0.00  0.00    +0.000 HD
BRANCH   7  11
ATOM     11  C   UNL     1       2.056   4.682  19.093  0.00  0.00    +0.000 C 
BRANCH  11  12
ATOM     12  O   UNL     1       3.089   3.720  18.863  0.00  0.00    +0.000 OA
BRANCH  12  19
ATOM     13  C   UNL     1       7.613   5.742  19.109  0.00  0.00    +0.000 C 
ATOM     14  C   UNL     1       6.455   5.191  18.331  0.00  0.00    +0.000 A 
ATOM     15  C   UNL     1       6.517   5.082  16.935  0.00  0.00    +0.000 A 
ATOM     16  C   UNL     1       5.441   4.555  16.212  0.00  0.00    +0.000 A 
ATOM     17  C   UNL     1       5.515   4.414  14.720  0.00  0.00    +0.000 C 
ATOM     18  C   UNL     1       4.306   4.115  16.907  0.00  0.00    +0.000 A 
ATOM     19  C   UNL     1       4.244   4.190  18.302  0.00  0.00    +0.000 A 
ATOM     20  C   UNL     1       5.311   4.743  19.008  0.00  0.00    +0.000 A 
ENDBRANCH  12  19
ENDBRANCH  11  12
ENDBRANCH   7  11
ENDBRANCH   1   9
BRANCH   6  21
ATOM     21  C   UNL     1       0.194   8.771  21.311  0.00  0.00    +0.000 C 
ATOM     22  O   UNL     1      -0.669   7.947  21.603  0.00  0.00    +0.000 OA
ATOM     23  N   UNL     1       0.327   9.958  21.998  0.00  0.00    +0.000 N 
ATOM     24  H   UNL     1       1.115  10.574  21.842  0.00  0.00    +0.000 HD
BRANCH  23  25
ATOM     25  C   UNL     1      -0.575  10.236  23.094  0.00  0.00    +0.000 C 
BRANCH  25  26
ATOM     26  C   UNL     1      -1.188  11.585  23.001  0.00  0.00    +0.000 A 
ATOM     27  C   UNL     1      -2.484  12.025  23.189  0.00  0.00    +0.000 A 
ATOM     28  C   UNL     1      -2.454  13.434  23.063  0.00  0.00    +0.000 A 
ATOM     29  C   UNL     1      -1.147  13.765  22.795  0.00  0.00    +0.000 A 
ATOM     30  O   UNL     1      -0.369  12.650  22.750  0.00  0.00    +0.000 OA
ENDBRANCH  25  26
ENDBRANCH  23  25
ENDBRANCH   6  21
TORSDOF 7
ENDMDL
MODEL 2
REMARK VINA RESULT:      -8.4      0.635      1.748
REMARK  Name = 
REMARK  9 active torsions:
REMARK  status: ('A' for Active; 'I' for Inactive)
REMARK    1  A    between atoms: C_1  and  C_2
REMARK    2  A    between atoms: C_4  and  C_5
REMARK    3  A    between atoms: C_7  and  O_8
REMARK    4  A    between atoms: O_8  and  C_9
REMARK    5  A    between atoms: C_9  and  C_10
REMARK    6  A    between atoms: N_12  and  C_13
REMARK    7  A    between atoms: C_18  and  C_19
REMARK    8  A    between atoms: N_21  and  C_22
REMARK    9  A    between atoms: C_22  and  C_23
REMARK                            x       y       z     vdW  Elec       q    Type
REMARK                         _______ _______ _______ _____ _____    ______ ____
ROOT
ATOM      1  C   UNL     1       2.003   7.529  19.982  0.00  0.00    +0.000 A 
ATOM      2  C   UNL     1       2.488   7.240  18.699  0.00  0.00    +0.000 A 
ATOM      3  C   UNL     1       2.352   8.173  17.670  0.00  0.00    +0.000 A 
ATOM      4  C   UNL     1       1.763   9.408  17.922  0.00  0.00    +0.000 A 
ATOM      5  C   UNL     1       1.325   9.718  19.210  0.00  0.00    +0.000 A 
ATOM      6  C   UNL     1       1.449   8.791  20.257  0.00  0.00    +0.000 A 
ENDROOT
BRANCH   1   9
ATOM      7  C   UNL     1       2.213   5.173  20.576  0.00  0.00    +0.000 C 
ATOM      8  O   UNL     1       2.456   4.358  21.469  0.00  0.00    +0.000 OA
ATOM      9  N   UNL     1       1.996   6.492  20.933  0.00  0.00    +0.000 N 
ATOM     10  H   UNL     1       2.505   6.657  21.797  0.00  0.00    +0.000 HD
BRANCH   7  11
ATOM     11  C   UNL     1       2.224   4.774  19.100  0.00  0.00    +0.000 C 
BRANCH  11  12
ATOM     12  O   UNL     1       3.254   3.792  18.961  0.00  0.00    +0.000 OA
BRANCH  12  19
ATOM     13  C   UNL     1       5.714   4.286  14.680  0.00  0.00    +0.000 C 
ATOM     14  C   UNL     1       5.623   4.416  16.171  0.00  0.00    +0.000 A 
ATOM     15  C   UNL     1       6.674   4.981  16.906  0.00  0.00    +0.000 A 
ATOM     16  C   UNL     1       6.581   5.114  18.296  0.00  0.00    +0.000 A 
ATOM     17  C   UNL     1       7.695   5.743  19.082  0.00  0.00    +0.000 C 
ATOM     18  C   UNL     1       5.411   4.693  18.942  0.00  0.00    +0.000 A 
ATOM     19  C   UNL     1       4.344   4.155  18.218  0.00  0.00    +0.000 A 
ATOM     20  C   UNL     1       4.460   4.003  16.837  0.00  0.00    +0.000 A 
ENDBRANCH  12  19
ENDBRANCH  11  12
ENDBRANCH   7  11
ENDBRANCH   1   9
BRANCH   6  21
ATOM     21  C   UNL     1       0.955   9.245  21.590  0.00  0.00    +0.000 C 
ATOM     22  O   UNL     1       1.714   9.212  22.554  0.00  0.00    +0.000 OA
ATOM     23  N   UNL     1      -0.359   9.640  21.713  0.00  0.00    +0.000 N 
ATOM     24  H   UNL     1      -0.945   9.790  20.900  0.00  0.00    +0.000 HD
BRANCH  23  25
ATOM     25  C   UNL     1      -0.853  10.029  23.014  0.00  0.00    +0.000 C 
BRANCH  25  26
ATOM     26  C   UNL     1      -1.343  11.430  23.044  0.00  0.00    +0.000 A 
ATOM     27  C   UNL     1      -2.597  11.965  23.269  0.00  0.00    +0.000 A 
ATOM     28  C   UNL     1      -2.441  13.372  23.273  0.00  0.00    +0.000 A 
ATOM     29  C   UNL     1      -1.107  13.607  23.040  0.00  0.00    +0.000 A 
ATOM     30  O   UNL     1      -0.431  12.437  22.895  0.00  0.00    +0.000 OA
ENDBRANCH  25  26
ENDBRANCH  23  25
ENDBRANCH   6  21
TORSDOF 7
ENDMDL
MODEL 3
REMARK VINA RESULT:      -8.2      2.660      8.346
REMARK  Name = 
REMARK  9 active torsions:
REMARK  status: ('A' for Active; 'I' for Inactive)
REMARK    1  A    between atoms: C_1  and  C_2
REMARK    2  A    between atoms: C_4  and  C_5
REMARK    3  A    between atoms: C_7  and  O_8
REMARK    4  A    between atoms: O_8  and  C_9
REMARK    5  A    between atoms: C_9  and  C_10
REMARK    6  A    between atoms: N_12  and  C_13
REMARK    7  A    between atoms: C_18  and  C_19
REMARK    8  A    between atoms: N_21  and  C_22
REMARK    9  A    between atoms: C_22  and  C_23
REMARK                            x       y       z     vdW  Elec       q    Type
REMARK                         _______ _______ _______ _____ _____    ______ ____
ROOT
ATOM      1  C   UNL     1       2.793   4.453  18.079  0.00  0.00    +0.000 A 
ATOM      2  C   UNL     1       1.453   4.047  18.140  0.00  0.00    +0.000 A 
ATOM      3  C   UNL     1       1.130   2.744  18.519  0.00  0.00    +0.000 A 
ATOM      4  C   UNL     1       2.137   1.850  18.869  0.00  0.00    +0.000 A 
ATOM      5  C   UNL     1       3.469   2.266  18.859  0.00  0.00    +0.000 A 
ATOM      6  C   UNL     1       3.814   3.573  18.476  0.00  0.00    +0.000 A 
ENDROOT
BRANCH   1   9
ATOM      7  C   UNL     1       2.811   6.890  18.190  0.00  0.00    +0.000 C 
ATOM      8  O   UNL     1       3.316   7.932  17.767  0.00  0.00    +0.000 OA
ATOM      9  N   UNL     1       3.076   5.712  17.516  0.00  0.00    +0.000 N 
ATOM     10  H   UNL     1       3.980   5.820  17.065  0.00  0.00    +0.000 HD
BRANCH   7  11
ATOM     11  C   UNL     1       1.975   6.864  19.471  0.00  0.00    +0.000 C 
BRANCH  11  12
ATOM     12  O   UNL     1       2.301   8.062  20.183  0.00  0.00    +0.000 OA
BRANCH  12  19
ATOM     13  C   UNL     1      -0.886  10.294  23.261  0.00  0.00    +0.000 C 
ATOM     14  C   UNL     1      -0.344  10.031  21.887  0.00  0.00    +0.000 A 
ATOM     15  C   UNL     1      -0.864  10.700  20.771  0.00  0.00    +0.000 A 
ATOM     16  C   UNL     1      -0.347  10.464  19.493  0.00  0.00    +0.000 A 
ATOM     17  C   UNL     1      -0.885  11.198  18.300  0.00  0.00    +0.000 C 
ATOM     18  C   UNL     1       0.715   9.561  19.346  0.00  0.00    +0.000 A 
ATOM     19  C   UNL     1       1.263   8.909  20.454  0.00  0.00    +0.000 A 
ATOM     20  C   UNL     1       0.720   9.133  21.719  0.00  0.00    +0.000 A 
ENDBRANCH  12  19
ENDBRANCH  11  12
ENDBRANCH   7  11
ENDBRANCH   1   9
BRANCH   6  21
ATOM     21  C   UNL     1       5.269   3.900  18.517  0.00  0.00    +0.000 C 
ATOM     22  O   UNL     1       5.827   4.016  19.604  0.00  0.00    +0.000 OA
ATOM     23  N   UNL     1       5.936   4.115  17.330  0.00  0.00    +0.000 N 
ATOM     24  H   UNL     1       5.512   3.894  16.437  0.00  0.00    +0.000 HD
BRANCH  23  25
ATOM     25  C   UNL     1       7.333   4.485  17.372  0.00  0.00    +0.000 C 
BRANCH  25  26
ATOM     26  C   UNL     1       7.535   5.922  17.682  0.00  0.00    +0.000 A 
ATOM     27  C   UNL     1       8.122   6.561  18.757  0.00  0.00    +0.000 A 
ATOM     28  C   UNL     1       8.114   7.945  18.458  0.00  0.00    +0.000 A 
ATOM     29  C   UNL     1       7.514   8.064  17.227  0.00  0.00    +0.000 A 
ATOM     30  O   UNL     1       7.154   6.844  16.748  0.00  0.00    +0.000 OA
ENDBRANCH  25  26
ENDBRANCH  23  25
ENDBRANCH   6  21
TORSDOF 7
ENDMDL
MODEL 4
REMARK VINA RESULT:      -8.2      0.901      1.021
REMARK  Name = 
REMARK  9 active torsions:
REMARK  status: ('A' for Active; 'I' for Inactive)
REMARK    1  A    between atoms: C_1  and  C_2
REMARK    2  A    between atoms: C_4  and  C_5
REMARK    3  A    between atoms: C_7  and  O_8
REMARK    4  A    between atoms: O_8  and  C_9
REMARK    5  A    between atoms: C_9  and  C_10
REMARK    6  A    between atoms: N_12  and  C_13
REMARK    7  A    between atoms: C_18  and  C_19
REMARK    8  A    between atoms: N_21  and  C_22
REMARK    9  A    between atoms: C_22  and  C_23
REMARK                            x       y       z     vdW  Elec       q    Type
REMARK                         _______ _______ _______ _____ _____    ______ ____
ROOT
ATOM      1  C   UNL     1       1.797   7.731  19.960  0.00  0.00    +0.000 A 
ATOM      2  C   UNL     1       2.242   7.499  18.651  0.00  0.00    +0.000 A 
ATOM      3  C   UNL     1       2.068   8.473  17.666  0.00  0.00    +0.000 A 
ATOM      4  C   UNL     1       1.479   9.691  17.989  0.00  0.00    +0.000 A 
ATOM      5  C   UNL     1       1.081   9.945  19.302  0.00  0.00    +0.000 A 
ATOM      6  C   UNL     1       1.244   8.975  20.305  0.00  0.00    +0.000 A 
ENDROOT
BRANCH   1   9
ATOM      7  C   UNL     1       2.147   5.370  20.464  0.00  0.00    +0.000 C 
ATOM      8  O   UNL     1       2.413   4.536  21.332  0.00  0.00    +0.000 OA
ATOM      9  N   UNL     1       1.826   6.654  20.866  0.00  0.00    +0.000 N 
ATOM     10  H   UNL     1       2.290   6.816  21.756  0.00  0.00    +0.000 HD
BRANCH   7  11
ATOM     11  C   UNL     1       2.241   5.038  18.974  0.00  0.00    +0.000 C 
BRANCH  11  12
ATOM     12  O   UNL     1       3.217   3.999  18.859  0.00  0.00    +0.000 OA
BRANCH  12  19
ATOM     13  C   UNL     1       7.806   5.871  19.102  0.00  0.00    +0.000 C 
ATOM     14  C   UNL     1       6.667   5.267  18.336  0.00  0.00    +0.000 A 
ATOM     15  C   UNL     1       6.794   4.980  16.970  0.00  0.00    +0.000 A 
ATOM     16  C   UNL     1       5.735   4.404  16.260  0.00  0.00    +0.000 A 
ATOM     17  C   UNL     1       5.879   4.072  14.804  0.00  0.00    +0.000 C 
ATOM     18  C   UNL     1       4.549   4.098  16.940  0.00  0.00    +0.000 A 
ATOM     19  C   UNL     1       4.418   4.352  18.309  0.00  0.00    +0.000 A 
ATOM     20  C   UNL     1       5.471   4.951  18.998  0.00  0.00    +0.000 A 
ENDBRANCH  12  19
ENDBRANCH  11  12
ENDBRANCH   7  11
ENDBRANCH   1   9
BRANCH   6  21
ATOM     21  C   UNL     1       0.790   9.370  21.670  0.00  0.00    +0.000 C 
ATOM     22  O   UNL     1       1.508   9.125  22.635  0.00  0.00    +0.000 OA
ATOM     23  N   UNL     1      -0.450   9.954  21.816  0.00  0.00    +0.000 N 
ATOM     24  H   UNL     1      -0.983  10.272  21.016  0.00  0.00    +0.000 HD
BRANCH  23  25
ATOM     25  C   UNL     1      -0.913  10.287  23.144  0.00  0.00    +0.000 C 
BRANCH  25  26
ATOM     26  C   UNL     1      -1.615  11.594  23.193  0.00  0.00    +0.000 A 
ATOM     27  C   UNL     1      -1.205  12.875  22.877  0.00  0.00    +0.000 A 
ATOM     28  C   UNL     1      -2.337  13.710  23.027  0.00  0.00    +0.000 A 
ATOM     29  C   UNL     1      -3.363  12.891  23.436  0.00  0.00    +0.000 A 
ATOM     30  O   UNL     1      -2.936  11.605  23.545  0.00  0.00    +0.000 OA
ENDBRANCH  25  26
ENDBRANCH  23  25
ENDBRANCH   6  21
TORSDOF 7
ENDMDL
MODEL 5
REMARK VINA RESULT:      -8.1      2.824      8.270
REMARK  Name = 
REMARK  9 active torsions:
REMARK  status: ('A' for Active; 'I' for Inactive)
REMARK    1  A    between atoms: C_1  and  C_2
REMARK    2  A    between atoms: C_4  and  C_5
REMARK    3  A    between atoms: C_7  and  O_8
REMARK    4  A    between atoms: O_8  and  C_9
REMARK    5  A    between atoms: C_9  and  C_10
REMARK    6  A    between atoms: N_12  and  C_13
REMARK    7  A    between atoms: C_18  and  C_19
REMARK    8  A    between atoms: N_21  and  C_22
REMARK    9  A    between atoms: C_22  and  C_23
REMARK                            x       y       z     vdW  Elec       q    Type
REMARK                         _______ _______ _______ _____ _____    ______ ____
ROOT
ATOM      1  C   UNL     1       2.734   4.400  18.031  0.00  0.00    +0.000 A 
ATOM      2  C   UNL     1       1.386   4.023  18.119  0.00  0.00    +0.000 A 
ATOM      3  C   UNL     1       1.040   2.757  18.592  0.00  0.00    +0.000 A 
ATOM      4  C   UNL     1       2.031   1.874  19.009  0.00  0.00    +0.000 A 
ATOM      5  C   UNL     1       3.370   2.265  18.971  0.00  0.00    +0.000 A 
ATOM      6  C   UNL     1       3.738   3.534  18.493  0.00  0.00    +0.000 A 
ENDROOT
BRANCH   1   9
ATOM      7  C   UNL     1       3.338   6.763  18.077  0.00  0.00    +0.000 C 
ATOM      8  O   UNL     1       3.848   7.703  17.464  0.00  0.00    +0.000 OA
ATOM      9  N   UNL     1       3.038   5.609  17.377  0.00  0.00    +0.000 N 
ATOM     10  H   UNL     1       3.683   5.556  16.593  0.00  0.00    +0.000 HD
BRANCH   7  11
ATOM     11  C   UNL     1       3.107   6.820  19.588  0.00  0.00    +0.000 C 
BRANCH  11  12
ATOM     12  O   UNL     1       1.699   6.993  19.769  0.00  0.00    +0.000 OA
BRANCH  12  19
ATOM     13  C   UNL     1       0.861  11.805  18.893  0.00  0.00    +0.000 C 
ATOM     14  C   UNL     1       0.859  10.609  19.799  0.00  0.00    +0.000 A 
ATOM     15  C   UNL     1       0.368  10.703  21.108  0.00  0.00    +0.000 A 
ATOM     16  C   UNL     1       0.354   9.583  21.947  0.00  0.00    +0.000 A 
ATOM     17  C   UNL     1      -0.195   9.676  23.340  0.00  0.00    +0.000 C 
ATOM     18  C   UNL     1       0.818   8.358  21.451  0.00  0.00    +0.000 A 
ATOM     19  C   UNL     1       1.283   8.243  20.137  0.00  0.00    +0.000 A 
ATOM     20  C   UNL     1       1.317   9.373  19.321  0.00  0.00    +0.000 A 
ENDBRANCH  12  19
ENDBRANCH  11  12
ENDBRANCH   7  11
ENDBRANCH   1   9
BRANCH   6  21
ATOM     21  C   UNL     1       5.199   3.838  18.512  0.00  0.00    +0.000 C 
ATOM     22  O   UNL     1       5.775   3.942  19.591  0.00  0.00    +0.000 OA
ATOM     23  N   UNL     1       5.851   4.045  17.316  0.00  0.00    +0.000 N 
ATOM     24  H   UNL     1       5.410   3.834  16.429  0.00  0.00    +0.000 HD
BRANCH  23  25
ATOM     25  C   UNL     1       7.254   4.392  17.337  0.00  0.00    +0.000 C 
BRANCH  25  26
ATOM     26  C   UNL     1       7.484   5.821  17.669  0.00  0.00    +0.000 A 
ATOM     27  C   UNL     1       8.059   6.433  18.766  0.00  0.00    +0.000 A 
ATOM     28  C   UNL     1       8.094   7.819  18.483  0.00  0.00    +0.000 A 
ATOM     29  C   UNL     1       7.530   7.968  17.238  0.00  0.00    +0.000 A 
ATOM     30  O   UNL     1       7.152   6.763  16.736  0.00  0.00    +0.000 OA
ENDBRANCH  25  26
ENDBRANCH  23  25
ENDBRANCH   6  21
TORSDOF 7
ENDMDL
MODEL 6
REMARK VINA RESULT:      -8.1      2.420      8.341
REMARK  Name = 
REMARK  9 active torsions:
REMARK  status: ('A' for Active; 'I' for Inactive)
REMARK    1  A    between atoms: C_1  and  C_2
REMARK    2  A    between atoms: C_4  and  C_5
REMARK    3  A    between atoms: C_7  and  O_8
REMARK    4  A    between atoms: O_8  and  C_9
REMARK    5  A    between atoms: C_9  and  C_10
REMARK    6  A    between atoms: N_12  and  C_13
REMARK    7  A    between atoms: C_18  and  C_19
REMARK    8  A    between atoms: N_21  and  C_22
REMARK    9  A    between atoms: C_22  and  C_23
REMARK                            x       y       z     vdW  Elec       q    Type
REMARK                         _______ _______ _______ _____ _____    ______ ____
ROOT
ATOM      1  C   UNL     1       2.304   4.485  19.359  0.00  0.00    +0.000 A 
ATOM      2  C   UNL     1       1.297   4.219  20.297  0.00  0.00    +0.000 A 
ATOM      3  C   UNL     1       1.460   3.195  21.231  0.00  0.00    +0.000 A 
ATOM      4  C   UNL     1       2.637   2.454  21.254  0.00  0.00    +0.000 A 
ATOM      5  C   UNL     1       3.662   2.750  20.355  0.00  0.00    +0.000 A 
ATOM      6  C   UNL     1       3.515   3.774  19.405  0.00  0.00    +0.000 A 
ENDROOT
BRANCH   1   9
ATOM      7  C   UNL     1       2.214   6.758  18.478  0.00  0.00    +0.000 C 
ATOM      8  O   UNL     1       2.199   7.467  17.469  0.00  0.00    +0.000 OA
ATOM      9  N   UNL     1       2.018   5.397  18.326  0.00  0.00    +0.000 N 
ATOM     10  H   UNL     1       2.338   5.150  17.393  0.00  0.00    +0.000 HD
BRANCH   7  11
ATOM     11  C   UNL     1       2.517   7.335  19.862  0.00  0.00    +0.000 C 
BRANCH  11  12
ATOM     12  O   UNL     1       1.250   7.557  20.487  0.00  0.00    +0.000 OA
BRANCH  12  19
ATOM     13  C   UNL     1       0.933  12.233  18.856  0.00  0.00    +0.000 C 
ATOM     14  C   UNL     1       0.658  11.172  19.880  0.00  0.00    +0.000 A 
ATOM     15  C   UNL     1      -0.097  11.459  21.025  0.00  0.00    +0.000 A 
ATOM     16  C   UNL     1      -0.364  10.464  21.972  0.00  0.00    +0.000 A 
ATOM     17  C   UNL     1      -1.193  10.764  23.186  0.00  0.00    +0.000 C 
ATOM     18  C   UNL     1       0.117   9.167  21.748  0.00  0.00    +0.000 A 
ATOM     19  C   UNL     1       0.846   8.859  20.595  0.00  0.00    +0.000 A 
ATOM     20  C   UNL     1       1.128   9.866  19.674  0.00  0.00    +0.000 A 
ENDBRANCH  12  19
ENDBRANCH  11  12
ENDBRANCH   7  11
ENDBRANCH   1   9
BRANCH   6  21
ATOM     21  C   UNL     1       4.685   4.002  18.508  0.00  0.00    +0.000 C 
ATOM     22  O   UNL     1       4.576   3.764  17.308  0.00  0.00    +0.000 OA
ATOM     23  N   UNL     1       5.875   4.424  19.060  0.00  0.00    +0.000 N 
ATOM     24  H   UNL     1       5.929   4.743  20.020  0.00  0.00    +0.000 HD
BRANCH  23  25
ATOM     25  C   UNL     1       7.023   4.594  18.199  0.00  0.00    +0.000 C 
BRANCH  25  26
ATOM     26  C   UNL     1       7.399   6.019  18.022  0.00  0.00    +0.000 A 
ATOM     27  C   UNL     1       7.001   6.971  17.103  0.00  0.00    +0.000 A 
ATOM     28  C   UNL     1       7.620   8.185  17.487  0.00  0.00    +0.000 A 
ATOM     29  C   UNL     1       8.364   7.896  18.606  0.00  0.00    +0.000 A 
ATOM     30  O   UNL     1       8.242   6.583  18.937  0.00  0.00    +0.000 OA
ENDBRANCH  25  26
ENDBRANCH  23  25
ENDBRANCH   6  21
TORSDOF 7
ENDMDL
MODEL 7
REMARK VINA RESULT:      -8.1      2.684      8.390
REMARK  Name = 
REMARK  9 active torsions:
REMARK  status: ('A' for Active; 'I' for Inactive)
REMARK    1  A    between atoms: C_1  and  C_2
REMARK    2  A    between atoms: C_4  and  C_5
REMARK    3  A    between atoms: C_7  and  O_8
REMARK    4  A    between atoms: O_8  and  C_9
REMARK    5  A    between atoms: C_9  and  C_10
REMARK    6  A    between atoms: N_12  and  C_13
REMARK    7  A    between atoms: C_18  and  C_19
REMARK    8  A    between atoms: N_21  and  C_22
REMARK    9  A    between atoms: C_22  and  C_23
REMARK                            x       y       z     vdW  Elec       q    Type
REMARK                         _______ _______ _______ _____ _____    ______ ____
ROOT
ATOM      1  C   UNL     1       2.653   4.334  18.176  0.00  0.00    +0.000 A 
ATOM      2  C   UNL     1       1.314   3.920  18.176  0.00  0.00    +0.000 A 
ATOM      3  C   UNL     1       0.975   2.631  18.587  0.00  0.00    +0.000 A 
ATOM      4  C   UNL     1       1.965   1.759  19.031  0.00  0.00    +0.000 A 
ATOM      5  C   UNL     1       3.293   2.184  19.081  0.00  0.00    +0.000 A 
ATOM      6  C   UNL     1       3.653   3.477  18.666  0.00  0.00    +0.000 A 
ENDROOT
BRANCH   1   9
ATOM      7  C   UNL     1       2.823   6.765  18.263  0.00  0.00    +0.000 C 
ATOM      8  O   UNL     1       3.352   7.774  17.790  0.00  0.00    +0.000 OA
ATOM      9  N   UNL     1       2.961   5.571  17.580  0.00  0.00    +0.000 N 
ATOM     10  H   UNL     1       3.830   5.623  17.055  0.00  0.00    +0.000 HD
BRANCH   7  11
ATOM     11  C   UNL     1       2.097   6.795  19.609  0.00  0.00    +0.000 C 
BRANCH  11  12
ATOM     12  O   UNL     1       2.364   8.081  20.176  0.00  0.00    +0.000 OA
BRANCH  12  19
ATOM     13  C   UNL     1      -1.065  11.116  18.268  0.00  0.00    +0.000 C 
ATOM     14  C   UNL     1      -0.400  10.445  19.432  0.00  0.00    +0.000 A 
ATOM     15  C   UNL     1      -0.882  10.625  20.735  0.00  0.00    +0.000 A 
ATOM     16  C   UNL     1      -0.268   9.987  21.818  0.00  0.00    +0.000 A 
ATOM     17  C   UNL     1      -0.799  10.159  23.212  0.00  0.00    +0.000 C 
ATOM     18  C   UNL     1       0.826   9.144  21.579  0.00  0.00    +0.000 A 
ATOM     19  C   UNL     1       1.299   8.932  20.281  0.00  0.00    +0.000 A 
ATOM     20  C   UNL     1       0.695   9.596  19.214  0.00  0.00    +0.000 A 
ENDBRANCH  12  19
ENDBRANCH  11  12
ENDBRANCH   7  11
ENDBRANCH   1   9
BRANCH   6  21
ATOM     21  C   UNL     1       5.102   3.817  18.779  0.00  0.00    +0.000 C 
ATOM     22  O   UNL     1       5.620   3.873  19.890  0.00  0.00    +0.000 OA
ATOM     23  N   UNL     1       5.807   4.110  17.631  0.00  0.00    +0.000 N 
ATOM     24  H   UNL     1       5.418   3.938  16.712  0.00  0.00    +0.000 HD
BRANCH  23  25
ATOM     25  C   UNL     1       7.197   4.491  17.745  0.00  0.00    +0.000 C 
BRANCH  25  26
ATOM     26  C   UNL     1       7.388   5.963  17.740  0.00  0.00    +0.000 A 
ATOM     27  C   UNL     1       6.772   6.971  17.024  0.00  0.00    +0.000 A 
ATOM     28  C   UNL     1       7.298   8.191  17.511  0.00  0.00    +0.000 A 
ATOM     29  C   UNL     1       8.209   7.852  18.483  0.00  0.00    +0.000 A 
ATOM     30  O   UNL     1       8.276   6.502  18.628  0.00  0.00    +0.000 OA
ENDBRANCH  25  26
ENDBRANCH  23  25
ENDBRANCH   6  21
TORSDOF 7
ENDMDL
MODEL 8
REMARK VINA RESULT:      -8.0      2.517      9.198
REMARK  Name = 
REMARK  9 active torsions:
REMARK  status: ('A' for Active; 'I' for Inactive)
REMARK    1  A    between atoms: C_1  and  C_2
REMARK    2  A    between atoms: C_4  and  C_5
REMARK    3  A    between atoms: C_7  and  O_8
REMARK    4  A    between atoms: O_8  and  C_9
REMARK    5  A    between atoms: C_9  and  C_10
REMARK    6  A    between atoms: N_12  and  C_13
REMARK    7  A    between atoms: C_18  and  C_19
REMARK    8  A    between atoms: N_21  and  C_22
REMARK    9  A    between atoms: C_22  and  C_23
REMARK                            x       y       z     vdW  Elec       q    Type
REMARK                         _______ _______ _______ _____ _____    ______ ____
ROOT
ATOM      1  C   UNL     1       2.534   4.850  19.232  0.00  0.00    +0.000 A 
ATOM      2  C   UNL     1       1.311   4.551  19.848  0.00  0.00    +0.000 A 
ATOM      3  C   UNL     1       1.216   3.479  20.737  0.00  0.00    +0.000 A 
ATOM      4  C   UNL     1       2.343   2.722  21.039  0.00  0.00    +0.000 A 
ATOM      5  C   UNL     1       3.573   3.049  20.466  0.00  0.00    +0.000 A 
ATOM      6  C   UNL     1       3.688   4.121  19.566  0.00  0.00    +0.000 A 
ENDROOT
BRANCH   1   9
ATOM      7  C   UNL     1       2.360   7.162  18.474  0.00  0.00    +0.000 C 
ATOM      8  O   UNL     1       2.634   7.974  17.587  0.00  0.00    +0.000 OA
ATOM      9  N   UNL     1       2.537   5.816  18.208  0.00  0.00    +0.000 N 
ATOM     10  H   UNL     1       3.271   5.742  17.509  0.00  0.00    +0.000 HD
BRANCH   7  11
ATOM     11  C   UNL     1       1.910   7.612  19.865  0.00  0.00    +0.000 C 
BRANCH  11  12
ATOM     12  O   UNL     1       2.032   9.037  19.881  0.00  0.00    +0.000 OA
BRANCH  12  19
ATOM     13  C   UNL     1      -2.044  10.977  17.821  0.00  0.00    +0.000 C 
ATOM     14  C   UNL     1      -1.145  10.743  18.999  0.00  0.00    +0.000 A 
ATOM     15  C   UNL     1      -1.491  11.219  20.270  0.00  0.00    +0.000 A 
ATOM     16  C   UNL     1      -0.658  10.988  21.370  0.00  0.00    +0.000 A 
ATOM     17  C   UNL     1      -1.039  11.474  22.738  0.00  0.00    +0.000 C 
ATOM     18  C   UNL     1       0.521  10.253  21.186  0.00  0.00    +0.000 A 
ATOM     19  C   UNL     1       0.864   9.746  19.929  0.00  0.00    +0.000 A 
ATOM     20  C   UNL     1       0.038  10.008  18.836  0.00  0.00    +0.000 A 
ENDBRANCH  12  19
ENDBRANCH  11  12
ENDBRANCH   7  11
ENDBRANCH   1   9
BRANCH   6  21
ATOM     21  C   UNL     1       5.057   4.377  19.031  0.00  0.00    +0.000 C 
ATOM     22  O   UNL     1       5.924   4.810  19.784  0.00  0.00    +0.000 OA
ATOM     23  N   UNL     1       5.296   4.170  17.689  0.00  0.00    +0.000 N 
ATOM     24  H   UNL     1       4.624   3.694  17.099  0.00  0.00    +0.000 HD
BRANCH  23  25
ATOM     25  C   UNL     1       6.607   4.470  17.160  0.00  0.00    +0.000 C 
BRANCH  25  26
ATOM     26  C   UNL     1       6.655   4.395  15.678  0.00  0.00    +0.000 A 
ATOM     27  C   UNL     1       5.872   3.721  14.761  0.00  0.00    +0.000 A 
ATOM     28  C   UNL     1       6.329   4.106  13.479  0.00  0.00    +0.000 A 
ATOM     29  C   UNL     1       7.367   4.981  13.692  0.00  0.00    +0.000 A 
ATOM     30  O   UNL     1       7.578   5.161  15.022  0.00  0.00    +0.000 OA
ENDBRANCH  25  26
ENDBRANCH  23  25
ENDBRANCH   6  21
TORSDOF 7
ENDMDL
MODEL 9
REMARK VINA RESULT:      -8.0      2.417      8.235
REMARK  Name = 
REMARK  9 active torsions:
REMARK  status: ('A' for Active; 'I' for Inactive)
REMARK    1  A    between atoms: C_1  and  C_2
REMARK    2  A    between atoms: C_4  and  C_5
REMARK    3  A    between atoms: C_7  and  O_8
REMARK    4  A    between atoms: O_8  and  C_9
REMARK    5  A    between atoms: C_9  and  C_10
REMARK    6  A    between atoms: N_12  and  C_13
REMARK    7  A    between atoms: C_18  and  C_19
REMARK    8  A    between atoms: N_21  and  C_22
REMARK    9  A    between atoms: C_22  and  C_23
REMARK                            x       y       z     vdW  Elec       q    Type
REMARK                         _______ _______ _______ _____ _____    ______ ____
ROOT
ATOM      1  C   UNL     1       2.296   4.510  19.303  0.00  0.00    +0.000 A 
ATOM      2  C   UNL     1       1.292   4.216  20.237  0.00  0.00    +0.000 A 
ATOM      3  C   UNL     1       1.475   3.191  21.166  0.00  0.00    +0.000 A 
ATOM      4  C   UNL     1       2.670   2.478  21.190  0.00  0.00    +0.000 A 
ATOM      5  C   UNL     1       3.690   2.802  20.296  0.00  0.00    +0.000 A 
ATOM      6  C   UNL     1       3.522   3.827  19.350  0.00  0.00    +0.000 A 
ENDROOT
BRANCH   1   9
ATOM      7  C   UNL     1       2.183   6.782  18.422  0.00  0.00    +0.000 C 
ATOM      8  O   UNL     1       2.152   7.490  17.412  0.00  0.00    +0.000 OA
ATOM      9  N   UNL     1       1.991   5.420  18.273  0.00  0.00    +0.000 N 
ATOM     10  H   UNL     1       2.300   5.173  17.337  0.00  0.00    +0.000 HD
BRANCH   7  11
ATOM     11  C   UNL     1       2.502   7.361  19.801  0.00  0.00    +0.000 C 
BRANCH  11  12
ATOM     12  O   UNL     1       1.251   7.468  20.486  0.00  0.00    +0.000 OA
BRANCH  12  19
ATOM     13  C   UNL     1      -1.201  10.829  23.191  0.00  0.00    +0.000 C 
ATOM     14  C   UNL     1      -0.388  10.440  21.992  0.00  0.00    +0.000 A 
ATOM     15  C   UNL     1       0.010  11.401  21.053  0.00  0.00    +0.000 A 
ATOM     16  C   UNL     1       0.780  11.038  19.943  0.00  0.00    +0.000 A 
ATOM     17  C   UNL     1       1.228  12.070  18.950  0.00  0.00    +0.000 C 
ATOM     18  C   UNL     1       1.167   9.700  19.793  0.00  0.00    +0.000 A 
ATOM     19  C   UNL     1       0.803   8.736  20.738  0.00  0.00    +0.000 A 
ATOM     20  C   UNL     1       0.012   9.106  21.825  0.00  0.00    +0.000 A 
ENDBRANCH  12  19
ENDBRANCH  11  12
ENDBRANCH   7  11
ENDBRANCH   1   9
BRANCH   6  21
ATOM     21  C   UNL     1       4.690   4.086  18.457  0.00  0.00    +0.000 C 
ATOM     22  O   UNL     1       4.552   3.975  17.243  0.00  0.00    +0.000 OA
ATOM     23  N   UNL     1       5.907   4.393  19.027  0.00  0.00    +0.000 N 
ATOM     24  H   UNL     1       5.991   4.611  20.012  0.00  0.00    +0.000 HD
BRANCH  23  25
ATOM     25  C   UNL     1       7.050   4.591  18.165  0.00  0.00    +0.000 C 
BRANCH  25  26
ATOM     26  C   UNL     1       7.406   6.024  18.008  0.00  0.00    +0.000 A 
ATOM     27  C   UNL     1       6.989   6.985  17.107  0.00  0.00    +0.000 A 
ATOM     28  C   UNL     1       7.593   8.201  17.506  0.00  0.00    +0.000 A 
ATOM     29  C   UNL     1       8.348   7.905  18.616  0.00  0.00    +0.000 A 
ATOM     30  O   UNL     1       8.246   6.586  18.928  0.00  0.00    +0.000 OA
ENDBRANCH  25  26
ENDBRANCH  23  25
ENDBRANCH   6  21
TORSDOF 7
ENDMDL
