MODEL 1
REMARK VINA RESULT:      -8.3      0.000      0.000
REMARK  Name = 
REMARK  9 active torsions:
REMARK  status: ('A' for Active; 'I' for Inactive)
REMARK    1  A    between atoms: C_1  and  O_2
REMARK    2  A    between atoms: O_2  and  C_3
REMARK    3  A    between atoms: C_6  and  C_7
REMARK    4  A    between atoms: C_8  and  C_9
REMARK    5  A    between atoms: N_13  and  C_14
REMARK    6  A    between atoms: C_14  and  C_15
REMARK    7  A    between atoms: C_22  and  C_23
REMARK    8  A    between atoms: C_27  and  O_28
REMARK    9  A    between atoms: O_28  and  C_29
REMARK                            x       y       z     vdW  Elec       q    Type
REMARK                         _______ _______ _______ _____ _____    ______ ____
ROOT
ATOM      1  C   UNL     1       1.626   8.688  19.615  0.00  0.00    +0.000 A 
ATOM      2  C   UNL     1       2.232   9.168  18.411  0.00  0.00    +0.000 A 
ATOM      3  C   UNL     1       2.093  10.504  17.769  0.00  0.00    +0.000 C 
ATOM      4  N   UNL     1       2.993   8.224  17.817  0.00  0.00    +0.000 NA
ATOM      5  N   UNL     1       2.853   7.159  18.643  0.00  0.00    +0.000 N 
ATOM      6  C   UNL     1       3.440   5.899  18.430  0.00  0.00    +0.000 A 
ATOM      7  N   UNL     1       4.269   5.729  17.342  0.00  0.00    +0.000 N 
ATOM      8  N   UNL     1       3.170   4.940  19.273  0.00  0.00    +0.000 NA
ATOM      9  C   UNL     1       2.335   5.218  20.337  0.00  0.00    +0.000 A 
ATOM     10  C   UNL     1       2.061   4.069  21.265  0.00  0.00    +0.000 C 
ATOM     11  N   UNL     1       1.782   6.365  20.588  0.00  0.00    +0.000 NA
ATOM     12  C   UNL     1       2.033   7.373  19.712  0.00  0.00    +0.000 A 
ATOM     13  H   UNL     1       4.337   6.526  16.712  0.00  0.00    +0.000 HD
ENDROOT
BRANCH   1  17
ATOM     14  C   UNL     1      -0.923  10.650  22.424  0.00  0.00    +0.000 A 
ATOM     15  C   UNL     1      -0.049   9.632  22.839  0.00  0.00    +0.000 A 
ATOM     16  C   UNL     1       0.775   8.974  21.928  0.00  0.00    +0.000 A 
ATOM     17  C   UNL     1       0.732   9.314  20.573  0.00  0.00    +0.000 A 
ATOM     18  C   UNL     1      -0.210  10.266  20.156  0.00  0.00    +0.000 A 
ATOM     19  C   UNL     1      -1.056  10.923  21.059  0.00  0.00    +0.000 A 
BRANCH  14  21
ATOM     20  C   UNL     1      -1.420  12.770  23.313  0.00  0.00    +0.000 C 
ATOM     21  O   UNL     1      -1.650  11.362  23.340  0.00  0.00    +0.000 OA
ENDBRANCH  14  21
BRANCH  19  22
ATOM     22  O   UNL     1      -1.896  11.798  20.424  0.00  0.00    +0.000 OA
ATOM     23  C   UNL     1      -1.373  12.668  19.436  0.00  0.00    +0.000 C 
ENDBRANCH  19  22
ENDBRANCH   1  17
BRANCH   7  24
ATOM     24  C   UNL     1       4.542   4.429  16.770  0.00  0.00    +0.000 C 
BRANCH  24  25
ATOM     25  C   UNL     1       5.506   4.471  15.612  0.00  0.00    +0.000 A 
ATOM     26  C   UNL     1       5.324   3.792  14.403  0.00  0.00    +0.000 A 
ATOM     27  C   UNL     1       6.271   3.913  13.388  0.00  0.00    +0.000 A 
ATOM     28  C   UNL     1       7.376   4.714  13.610  0.00  0.00    +0.000 A 
ATOM     29  N   UNL     1       7.592   5.387  14.759  0.00  0.00    +0.000 NA
ATOM     30  C   UNL     1       6.658   5.248  15.728  0.00  0.00    +0.000 A 
ENDBRANCH  24  25
ENDBRANCH   7  24
TORSDOF 5
ENDMDL
MODEL 2
REMARK VINA RESULT:      -8.2      4.887      9.736
REMARK  Name = 
REMARK  9 active torsions:
REMARK  status: ('A' for Active; 'I' for Inactive)
REMARK    1  A    between atoms: C_1  and  O_2
REMARK    2  A    between atoms: O_2  and  C_3
REMARK    3  A    between atoms: C_6  and  C_7
REMARK    4  A    between atoms: C_8  and  C_9
REMARK    5  A    between atoms: N_13  and  C_14
REMARK    6  A    between atoms: C_14  and  C_15
REMARK    7  A    between atoms: C_22  and  C_23
REMARK    8  A    between atoms: C_27  and  O_28
REMARK    9  A    between atoms: O_28  and  C_29
REMARK                            x       y       z     vdW  Elec       q    Type
REMARK                         _______ _______ _______ _____ _____    ______ ____
ROOT
ATOM      1  C   UNL     1      -0.021   9.997  19.243  0.00  0.00    +0.000 A 
ATOM      2  C   UNL     1      -0.299  10.752  20.427  0.00  0.00    +0.000 A 
ATOM      3  C   UNL     1       0.471  10.797  21.701  0.00  0.00    +0.000 C 
ATOM      4  N   UNL     1      -1.435  11.470  20.314  0.00  0.00    +0.000 NA
ATOM      5  N   UNL     1      -1.869  11.157  19.069  0.00  0.00    +0.000 N 
ATOM      6  C   UNL     1      -3.057  11.639  18.490  0.00  0.00    +0.000 A 
ATOM      7  N   UNL     1      -3.820  12.543  19.199  0.00  0.00    +0.000 N 
ATOM      8  N   UNL     1      -3.388  11.205  17.305  0.00  0.00    +0.000 NA
ATOM      9  C   UNL     1      -2.548  10.308  16.676  0.00  0.00    +0.000 A 
ATOM     10  C   UNL     1      -2.991   9.844  15.318  0.00  0.00    +0.000 C 
ATOM     11  N   UNL     1      -1.435   9.845  17.158  0.00  0.00    +0.000 NA
ATOM     12  C   UNL     1      -1.080  10.268  18.399  0.00  0.00    +0.000 A 
ATOM     13  H   UNL     1      -3.500  12.741  20.144  0.00  0.00    +0.000 HD
ENDROOT
BRANCH   1  17
ATOM     14  C   UNL     1       3.218   7.365  18.340  0.00  0.00    +0.000 A 
ATOM     15  C   UNL     1       2.929   8.457  17.506  0.00  0.00    +0.000 A 
ATOM     16  C   UNL     1       1.864   9.313  17.783  0.00  0.00    +0.000 A 
ATOM     17  C   UNL     1       1.053   9.084  18.898  0.00  0.00    +0.000 A 
ATOM     18  C   UNL     1       1.294   7.938  19.670  0.00  0.00    +0.000 A 
ATOM     19  C   UNL     1       2.351   7.061  19.394  0.00  0.00    +0.000 A 
BRANCH  14  21
ATOM     20  C   UNL     1       4.778   6.578  16.765  0.00  0.00    +0.000 C 
ATOM     21  O   UNL     1       4.328   6.594  18.120  0.00  0.00    +0.000 OA
ENDBRANCH  14  21
BRANCH  19  22
ATOM     22  O   UNL     1       2.382   6.011  20.271  0.00  0.00    +0.000 OA
ATOM     23  C   UNL     1       1.950   4.733  19.840  0.00  0.00    +0.000 C 
ENDBRANCH  19  22
ENDBRANCH   1  17
BRANCH   7  24
ATOM     24  C   UNL     1      -5.228  12.742  18.936  0.00  0.00    +0.000 C 
BRANCH  24  25
ATOM     25  C   UNL     1      -6.107  11.666  19.520  0.00  0.00    +0.000 A 
ATOM     26  C   UNL     1      -6.450  10.478  18.865  0.00  0.00    +0.000 A 
ATOM     27  C   UNL     1      -7.257   9.540  19.503  0.00  0.00    +0.000 A 
ATOM     28  C   UNL     1      -7.700   9.815  20.784  0.00  0.00    +0.000 A 
ATOM     29  N   UNL     1      -7.395  10.945  21.454  0.00  0.00    +0.000 NA
ATOM     30  C   UNL     1      -6.612  11.840  20.808  0.00  0.00    +0.000 A 
ENDBRANCH  24  25
ENDBRANCH   7  24
TORSDOF 5
ENDMDL
MODEL 3
REMARK VINA RESULT:      -7.9      4.294     10.041
REMARK  Name = 
REMARK  9 active torsions:
REMARK  status: ('A' for Active; 'I' for Inactive)
REMARK    1  A    between atoms: C_1  and  O_2
REMARK    2  A    between atoms: O_2  and  C_3
REMARK    3  A    between atoms: C_6  and  C_7
REMARK    4  A    between atoms: C_8  and  C_9
REMARK    5  A    between atoms: N_13  and  C_14
REMARK    6  A    between atoms: C_14  and  C_15
REMARK    7  A    between atoms: C_22  and  C_23
REMARK    8  A    between atoms: C_27  and  O_28
REMARK    9  A    between atoms: O_28  and  C_29
REMARK                            x       y       z     vdW  Elec       q    Type
REMARK                         _______ _______ _______ _____ _____    ______ ____
ROOT
ATOM      1  C   UNL     1       0.782   9.478  20.040  0.00  0.00    +0.000 A 
ATOM      2  C   UNL     1       0.723   9.935  21.395  0.00  0.00    +0.000 A 
ATOM      3  C   UNL     1       1.533   9.488  22.562  0.00  0.00    +0.000 C 
ATOM      4  N   UNL     1      -0.233  10.871  21.572  0.00  0.00    +0.000 NA
ATOM      5  N   UNL     1      -0.773  10.990  20.335  0.00  0.00    +0.000 N 
ATOM      6  C   UNL     1      -1.849  11.835  20.009  0.00  0.00    +0.000 A 
ATOM      7  N   UNL     1      -2.368  12.655  20.988  0.00  0.00    +0.000 N 
ATOM      8  N   UNL     1      -2.313  11.804  18.790  0.00  0.00    +0.000 NA
ATOM      9  C   UNL     1      -1.714  10.954  17.881  0.00  0.00    +0.000 A 
ATOM     10  C   UNL     1      -2.300  10.963  16.498  0.00  0.00    +0.000 C 
ATOM     11  N   UNL     1      -0.711  10.167  18.126  0.00  0.00    +0.000 NA
ATOM     12  C   UNL     1      -0.224  10.168  19.394  0.00  0.00    +0.000 A 
ATOM     13  H   UNL     1      -1.976  12.530  21.919  0.00  0.00    +0.000 HD
ENDROOT
BRANCH   1  17
ATOM     14  C   UNL     1       3.348   6.612  18.186  0.00  0.00    +0.000 A 
ATOM     15  C   UNL     1       2.990   7.792  17.515  0.00  0.00    +0.000 A 
ATOM     16  C   UNL     1       2.140   8.727  18.104  0.00  0.00    +0.000 A 
ATOM     17  C   UNL     1       1.617   8.491  19.379  0.00  0.00    +0.000 A 
ATOM     18  C   UNL     1       1.907   7.269  20.001  0.00  0.00    +0.000 A 
ATOM     19  C   UNL     1       2.747   6.313  19.414  0.00  0.00    +0.000 A 
BRANCH  14  21
ATOM     20  C   UNL     1       5.143   6.348  16.689  0.00  0.00    +0.000 C 
ATOM     21  O   UNL     1       4.265   5.752  17.644  0.00  0.00    +0.000 OA
ENDBRANCH  14  21
BRANCH  19  22
ATOM     22  O   UNL     1       2.874   5.198  20.196  0.00  0.00    +0.000 OA
ATOM     23  C   UNL     1       1.711   4.578  20.715  0.00  0.00    +0.000 C 
ENDBRANCH  19  22
ENDBRANCH   1  17
BRANCH   7  24
ATOM     24  C   UNL     1      -3.708  13.195  20.917  0.00  0.00    +0.000 C 
BRANCH  24  25
ATOM     25  C   UNL     1      -4.526  12.938  22.157  0.00  0.00    +0.000 A 
ATOM     26  C   UNL     1      -5.918  13.058  22.229  0.00  0.00    +0.000 A 
ATOM     27  C   UNL     1      -6.578  12.780  23.423  0.00  0.00    +0.000 A 
ATOM     28  C   UNL     1      -5.828  12.387  24.515  0.00  0.00    +0.000 A 
ATOM     29  N   UNL     1      -4.486  12.258  24.493  0.00  0.00    +0.000 NA
ATOM     30  C   UNL     1      -3.870  12.538  23.320  0.00  0.00    +0.000 A 
ENDBRANCH  24  25
ENDBRANCH   7  24
TORSDOF 5
ENDMDL
MODEL 4
REMARK VINA RESULT:      -7.8      4.254      9.985
REMARK  Name = 
REMARK  9 active torsions:
REMARK  status: ('A' for Active; 'I' for Inactive)
REMARK    1  A    between atoms: C_1  and  O_2
REMARK    2  A    between atoms: O_2  and  C_3
REMARK    3  A    between atoms: C_6  and  C_7
REMARK    4  A    between atoms: C_8  and  C_9
REMARK    5  A    between atoms: N_13  and  C_14
REMARK    6  A    between atoms: C_14  and  C_15
REMARK    7  A    between atoms: C_22  and  C_23
REMARK    8  A    between atoms: C_27  and  O_28
REMARK    9  A    between atoms: O_28  and  C_29
REMARK                            x       y       z     vdW  Elec       q    Type
REMARK                         _______ _______ _______ _____ _____    ______ ____
ROOT
ATOM      1  C   UNL     1       0.902   9.210  20.496  0.00  0.00    +0.000 A 
ATOM      2  C   UNL     1       0.974   9.799  21.798  0.00  0.00    +0.000 A 
ATOM      3  C   UNL     1       1.808   9.385  22.960  0.00  0.00    +0.000 C 
ATOM      4  N   UNL     1       0.128  10.842  21.928  0.00  0.00    +0.000 NA
ATOM      5  N   UNL     1      -0.474  10.897  20.715  0.00  0.00    +0.000 N 
ATOM      6  C   UNL     1      -1.480  11.814  20.362  0.00  0.00    +0.000 A 
ATOM      7  N   UNL     1      -1.852  12.775  21.278  0.00  0.00    +0.000 N 
ATOM      8  N   UNL     1      -2.020  11.714  19.179  0.00  0.00    +0.000 NA
ATOM      9  C   UNL     1      -1.566  10.722  18.332  0.00  0.00    +0.000 A 
ATOM     10  C   UNL     1      -2.235  10.658  16.988  0.00  0.00    +0.000 C 
ATOM     11  N   UNL     1      -0.633   9.862  18.602  0.00  0.00    +0.000 NA
ATOM     12  C   UNL     1      -0.069   9.935  19.836  0.00  0.00    +0.000 A 
ATOM     13  H   UNL     1      -1.417  12.700  22.195  0.00  0.00    +0.000 HD
ENDROOT
BRANCH   1  17
ATOM     14  C   UNL     1       3.040   5.909  18.832  0.00  0.00    +0.000 A 
ATOM     15  C   UNL     1       2.951   7.127  18.139  0.00  0.00    +0.000 A 
ATOM     16  C   UNL     1       2.242   8.205  18.665  0.00  0.00    +0.000 A 
ATOM     17  C   UNL     1       1.593   8.082  19.897  0.00  0.00    +0.000 A 
ATOM     18  C   UNL     1       1.611   6.833  20.535  0.00  0.00    +0.000 A 
ATOM     19  C   UNL     1       2.306   5.736  20.009  0.00  0.00    +0.000 A 
BRANCH  14  21
ATOM     20  C   UNL     1       5.149   4.868  18.891  0.00  0.00    +0.000 C 
ATOM     21  O   UNL     1       3.825   4.892  18.357  0.00  0.00    +0.000 OA
ENDBRANCH  14  21
BRANCH  19  22
ATOM     22  O   UNL     1       2.172   4.624  20.796  0.00  0.00    +0.000 OA
ATOM     23  C   UNL     1       1.210   3.644  20.452  0.00  0.00    +0.000 C 
ENDBRANCH  19  22
ENDBRANCH   1  17
BRANCH   7  24
ATOM     24  C   UNL     1      -3.134  13.443  21.223  0.00  0.00    +0.000 C 
BRANCH  24  25
ATOM     25  C   UNL     1      -4.058  13.065  22.352  0.00  0.00    +0.000 A 
ATOM     26  C   UNL     1      -3.652  12.862  23.675  0.00  0.00    +0.000 A 
ATOM     27  C   UNL     1      -4.593  12.531  24.647  0.00  0.00    +0.000 A 
ATOM     28  C   UNL     1      -5.917  12.411  24.269  0.00  0.00    +0.000 A 
ATOM     29  N   UNL     1      -6.354  12.597  23.007  0.00  0.00    +0.000 NA
ATOM     30  C   UNL     1      -5.418  12.915  22.083  0.00  0.00    +0.000 A 
ENDBRANCH  24  25
ENDBRANCH   7  24
TORSDOF 5
ENDMDL
MODEL 5
REMARK VINA RESULT:      -7.7      4.841     10.155
REMARK  Name = 
REMARK  9 active torsions:
REMARK  status: ('A' for Active; 'I' for Inactive)
REMARK    1  A    between atoms: C_1  and  O_2
REMARK    2  A    between atoms: O_2  and  C_3
REMARK    3  A    between atoms: C_6  and  C_7
REMARK    4  A    between atoms: C_8  and  C_9
REMARK    5  A    between atoms: N_13  and  C_14
REMARK    6  A    between atoms: C_14  and  C_15
REMARK    7  A    between atoms: C_22  and  C_23
REMARK    8  A    between atoms: C_27  and  O_28
REMARK    9  A    between atoms: O_28  and  C_29
REMARK                            x       y       z     vdW  Elec       q    Type
REMARK                         _______ _______ _______ _____ _____    ______ ____
ROOT
ATOM      1  C   UNL     1      -0.093  10.015  19.485  0.00  0.00    +0.000 A 
ATOM      2  C   UNL     1      -0.330  10.763  20.681  0.00  0.00    +0.000 A 
ATOM      3  C   UNL     1       0.458  10.768  21.945  0.00  0.00    +0.000 C 
ATOM      4  N   UNL     1      -1.444  11.520  20.592  0.00  0.00    +0.000 NA
ATOM      5  N   UNL     1      -1.904  11.237  19.350  0.00  0.00    +0.000 N 
ATOM      6  C   UNL     1      -3.083  11.764  18.793  0.00  0.00    +0.000 A 
ATOM      7  N   UNL     1      -3.806  12.683  19.523  0.00  0.00    +0.000 N 
ATOM      8  N   UNL     1      -3.443  11.356  17.608  0.00  0.00    +0.000 NA
ATOM      9  C   UNL     1      -2.641  10.440  16.957  0.00  0.00    +0.000 A 
ATOM     10  C   UNL     1      -3.117  10.009  15.599  0.00  0.00    +0.000 C 
ATOM     11  N   UNL     1      -1.538   9.936  17.417  0.00  0.00    +0.000 NA
ATOM     12  C   UNL     1      -1.153  10.331  18.659  0.00  0.00    +0.000 A 
ATOM     13  H   UNL     1      -3.468  12.860  20.466  0.00  0.00    +0.000 HD
ENDROOT
BRANCH   1  17
ATOM     14  C   UNL     1       3.052   7.301  18.496  0.00  0.00    +0.000 A 
ATOM     15  C   UNL     1       2.703   8.342  17.621  0.00  0.00    +0.000 A 
ATOM     16  C   UNL     1       1.667   9.223  17.926  0.00  0.00    +0.000 A 
ATOM     17  C   UNL     1       0.947   9.072  19.114  0.00  0.00    +0.000 A 
ATOM     18  C   UNL     1       1.243   7.975  19.936  0.00  0.00    +0.000 A 
ATOM     19  C   UNL     1       2.270   7.071  19.633  0.00  0.00    +0.000 A 
BRANCH  14  21
ATOM     20  C   UNL     1       3.837   5.309  17.523  0.00  0.00    +0.000 C 
ATOM     21  O   UNL     1       4.137   6.507  18.238  0.00  0.00    +0.000 OA
ENDBRANCH  14  21
BRANCH  19  22
ATOM     22  O   UNL     1       2.367   6.078  20.570  0.00  0.00    +0.000 OA
ATOM     23  C   UNL     1       1.535   4.937  20.458  0.00  0.00    +0.000 C 
ENDBRANCH  19  22
ENDBRANCH   1  17
BRANCH   7  24
ATOM     24  C   UNL     1      -5.211  12.932  19.282  0.00  0.00    +0.000 C 
BRANCH  24  25
ATOM     25  C   UNL     1      -6.097  12.547  20.439  0.00  0.00    +0.000 A 
ATOM     26  C   UNL     1      -6.047  13.135  21.707  0.00  0.00    +0.000 A 
ATOM     27  C   UNL     1      -6.924  12.715  22.703  0.00  0.00    +0.000 A 
ATOM     28  C   UNL     1      -7.832  11.716  22.403  0.00  0.00    +0.000 A 
ATOM     29  N   UNL     1      -7.916  11.120  21.196  0.00  0.00    +0.000 NA
ATOM     30  C   UNL     1      -7.049  11.546  20.249  0.00  0.00    +0.000 A 
ENDBRANCH  24  25
ENDBRANCH   7  24
TORSDOF 5
ENDMDL
MODEL 6
REMARK VINA RESULT:      -7.6      3.179      4.854
REMARK  Name = 
REMARK  9 active torsions:
REMARK  status: ('A' for Active; 'I' for Inactive)
REMARK    1  A    between atoms: C_1  and  O_2
REMARK    2  A    between atoms: O_2  and  C_3
REMARK    3  A    between atoms: C_6  and  C_7
REMARK    4  A    between atoms: C_8  and  C_9
REMARK    5  A    between atoms: N_13  and  C_14
REMARK    6  A    between atoms: C_14  and  C_15
REMARK    7  A    between atoms: C_22  and  C_23
REMARK    8  A    between atoms: C_27  and  O_28
REMARK    9  A    between atoms: O_28  and  C_29
REMARK                            x       y       z     vdW  Elec       q    Type
REMARK                         _______ _______ _______ _____ _____    ______ ____
ROOT
ATOM      1  C   UNL     1       0.556  10.230  20.479  0.00  0.00    +0.000 A 
ATOM      2  C   UNL     1       0.087   9.655  21.703  0.00  0.00    +0.000 A 
ATOM      3  C   UNL     1      -0.674  10.309  22.804  0.00  0.00    +0.000 C 
ATOM      4  N   UNL     1       0.442   8.359  21.822  0.00  0.00    +0.000 NA
ATOM      5  N   UNL     1       1.136   8.129  20.681  0.00  0.00    +0.000 N 
ATOM      6  C   UNL     1       1.751   6.908  20.350  0.00  0.00    +0.000 A 
ATOM      7  N   UNL     1       1.598   5.836  21.204  0.00  0.00    +0.000 N 
ATOM      8  N   UNL     1       2.444   6.844  19.247  0.00  0.00    +0.000 NA
ATOM      9  C   UNL     1       2.526   7.973  18.456  0.00  0.00    +0.000 A 
ATOM     10  C   UNL     1       3.344   7.832  17.204  0.00  0.00    +0.000 C 
ATOM     11  N   UNL     1       1.966   9.116  18.707  0.00  0.00    +0.000 NA
ATOM     12  C   UNL     1       1.255   9.212  19.861  0.00  0.00    +0.000 A 
ATOM     13  H   UNL     1       1.104   6.033  22.072  0.00  0.00    +0.000 HD
ENDROOT
BRANCH   1  17
ATOM     14  C   UNL     1       0.148  14.200  18.961  0.00  0.00    +0.000 A 
ATOM     15  C   UNL     1      -0.633  13.153  18.446  0.00  0.00    +0.000 A 
ATOM     16  C   UNL     1      -0.496  11.850  18.923  0.00  0.00    +0.000 A 
ATOM     17  C   UNL     1       0.440  11.565  19.921  0.00  0.00    +0.000 A 
ATOM     18  C   UNL     1       1.278  12.599  20.362  0.00  0.00    +0.000 A 
ATOM     19  C   UNL     1       1.162  13.910  19.880  0.00  0.00    +0.000 A 
BRANCH  14  21
ATOM     20  C   UNL     1      -0.858  16.266  19.464  0.00  0.00    +0.000 C 
ATOM     21  O   UNL     1      -0.067  15.492  18.562  0.00  0.00    +0.000 OA
ENDBRANCH  14  21
BRANCH  19  22
ATOM     22  O   UNL     1       2.090  14.743  20.443  0.00  0.00    +0.000 OA
ATOM     23  C   UNL     1       3.354  14.223  20.814  0.00  0.00    +0.000 C 
ENDBRANCH  19  22
ENDBRANCH   1  17
BRANCH   7  24
ATOM     24  C   UNL     1       2.521   4.722  21.222  0.00  0.00    +0.000 C 
BRANCH  24  25
ATOM     25  C   UNL     1       2.302   3.742  20.098  0.00  0.00    +0.000 A 
ATOM     26  C   UNL     1       1.055   3.229  19.724  0.00  0.00    +0.000 A 
ATOM     27  C   UNL     1       0.963   2.339  18.657  0.00  0.00    +0.000 A 
ATOM     28  C   UNL     1       2.121   1.987  17.990  0.00  0.00    +0.000 A 
ATOM     29  N   UNL     1       3.343   2.455  18.316  0.00  0.00    +0.000 NA
ATOM     30  C   UNL     1       3.404   3.316  19.359  0.00  0.00    +0.000 A 
ENDBRANCH  24  25
ENDBRANCH   7  24
TORSDOF 5
ENDMDL
MODEL 7
REMARK VINA RESULT:      -7.5      4.137      8.319
REMARK  Name = 
REMARK  9 active torsions:
REMARK  status: ('A' for Active; 'I' for Inactive)
REMARK    1  A    between atoms: C_1  and  O_2
REMARK    2  A    between atoms: O_2  and  C_3
REMARK    3  A    between atoms: C_6  and  C_7
REMARK    4  A    between atoms: C_8  and  C_9
REMARK    5  A    between atoms: N_13  and  C_14
REMARK    6  A    between atoms: C_14  and  C_15
REMARK    7  A    between atoms: C_22  and  C_23
REMARK    8  A    between atoms: C_27  and  O_28
REMARK    9  A    between atoms: O_28  and  C_29
REMARK                            x       y       z     vdW  Elec       q    Type
REMARK                         _______ _______ _______ _____ _____    ______ ____
ROOT
ATOM      1  C   UNL     1       2.331   7.487  19.101  0.00  0.00    +0.000 A 
ATOM      2  C   UNL     1       2.599   8.244  17.917  0.00  0.00    +0.000 A 
ATOM      3  C   UNL     1       3.375   7.840  16.711  0.00  0.00    +0.000 C 
ATOM      4  N   UNL     1       2.076   9.486  17.981  0.00  0.00    +0.000 NA
ATOM      5  N   UNL     1       1.493   9.506  19.204  0.00  0.00    +0.000 N 
ATOM      6  C   UNL     1       0.832  10.617  19.758  0.00  0.00    +0.000 A 
ATOM      7  N   UNL     1       0.702  11.759  18.996  0.00  0.00    +0.000 N 
ATOM      8  N   UNL     1       0.370  10.519  20.974  0.00  0.00    +0.000 NA
ATOM      9  C   UNL     1       0.543   9.326  21.647  0.00  0.00    +0.000 A 
ATOM     10  C   UNL     1      -0.007   9.283  23.045  0.00  0.00    +0.000 C 
ATOM     11  N   UNL     1       1.130   8.268  21.178  0.00  0.00    +0.000 NA
ATOM     12  C   UNL     1       1.636   8.354  19.920  0.00  0.00    +0.000 A 
ATOM     13  H   UNL     1       1.175  11.741  18.094  0.00  0.00    +0.000 HD
ENDROOT
BRANCH   1  17
ATOM     14  C   UNL     1       3.385   3.479  20.128  0.00  0.00    +0.000 A 
ATOM     15  C   UNL     1       2.111   3.985  20.433  0.00  0.00    +0.000 A 
ATOM     16  C   UNL     1       1.762   5.296  20.116  0.00  0.00    +0.000 A 
ATOM     17  C   UNL     1       2.691   6.138  19.498  0.00  0.00    +0.000 A 
ATOM     18  C   UNL     1       3.989   5.652  19.283  0.00  0.00    +0.000 A 
ATOM     19  C   UNL     1       4.358   4.340  19.611  0.00  0.00    +0.000 A 
BRANCH  14  21
ATOM     20  C   UNL     1       3.744   1.364  19.164  0.00  0.00    +0.000 C 
ATOM     21  O   UNL     1       3.683   2.160  20.347  0.00  0.00    +0.000 OA
ENDBRANCH  14  21
BRANCH  19  22
ATOM     22  O   UNL     1       5.673   4.095  19.323  0.00  0.00    +0.000 OA
ATOM     23  C   UNL     1       6.249   4.671  18.164  0.00  0.00    +0.000 C 
ENDBRANCH  19  22
ENDBRANCH   1  17
BRANCH   7  24
ATOM     24  C   UNL     1       0.477  13.061  19.583  0.00  0.00    +0.000 C 
BRANCH  24  25
ATOM     25  C   UNL     1       1.359  14.140  19.010  0.00  0.00    +0.000 A 
ATOM     26  C   UNL     1       2.570  13.908  18.349  0.00  0.00    +0.000 A 
ATOM     27  C   UNL     1       3.301  14.979  17.841  0.00  0.00    +0.000 A 
ATOM     28  C   UNL     1       2.800  16.256  18.007  0.00  0.00    +0.000 A 
ATOM     29  N   UNL     1       1.639  16.528  18.636  0.00  0.00    +0.000 NA
ATOM     30  C   UNL     1       0.951  15.469  19.123  0.00  0.00    +0.000 A 
ENDBRANCH  24  25
ENDBRANCH   7  24
TORSDOF 5
ENDMDL
MODEL 8
REMARK VINA RESULT:      -7.4      4.098      8.314
REMARK  Name = 
REMARK  9 active torsions:
REMARK  status: ('A' for Active; 'I' for Inactive)
REMARK    1  A    between atoms: C_1  and  O_2
REMARK    2  A    between atoms: O_2  and  C_3
REMARK    3  A    between atoms: C_6  and  C_7
REMARK    4  A    between atoms: C_8  and  C_9
REMARK    5  A    between atoms: N_13  and  C_14
REMARK    6  A    between atoms: C_14  and  C_15
REMARK    7  A    between atoms: C_22  and  C_23
REMARK    8  A    between atoms: C_27  and  O_28
REMARK    9  A    between atoms: O_28  and  C_29
REMARK                            x       y       z     vdW  Elec       q    Type
REMARK                         _______ _______ _______ _____ _____    ______ ____
ROOT
ATOM      1  C   UNL     1       2.421   7.424  18.920  0.00  0.00    +0.000 A 
ATOM      2  C   UNL     1       2.764   8.176  17.752  0.00  0.00    +0.000 A 
ATOM      3  C   UNL     1       3.656   7.787  16.625  0.00  0.00    +0.000 C 
ATOM      4  N   UNL     1       2.192   9.398  17.752  0.00  0.00    +0.000 NA
ATOM      5  N   UNL     1       1.503   9.410  18.919  0.00  0.00    +0.000 N 
ATOM      6  C   UNL     1       0.756  10.502  19.397  0.00  0.00    +0.000 A 
ATOM      7  N   UNL     1       0.652  11.629  18.610  0.00  0.00    +0.000 N 
ATOM      8  N   UNL     1       0.194  10.401  20.570  0.00  0.00    +0.000 NA
ATOM      9  C   UNL     1       0.351   9.223  21.273  0.00  0.00    +0.000 A 
ATOM     10  C   UNL     1      -0.317   9.176  22.618  0.00  0.00    +0.000 C 
ATOM     11  N   UNL     1       1.015   8.183  20.872  0.00  0.00    +0.000 NA
ATOM     12  C   UNL     1       1.625   8.273  19.662  0.00  0.00    +0.000 A 
ATOM     13  H   UNL     1       1.201  11.619  17.753  0.00  0.00    +0.000 HD
ENDROOT
BRANCH   1  17
ATOM     14  C   UNL     1       3.515   3.467  20.096  0.00  0.00    +0.000 A 
ATOM     15  C   UNL     1       2.236   3.971  20.380  0.00  0.00    +0.000 A 
ATOM     16  C   UNL     1       1.874   5.266  20.015  0.00  0.00    +0.000 A 
ATOM     17  C   UNL     1       2.794   6.094  19.367  0.00  0.00    +0.000 A 
ATOM     18  C   UNL     1       4.097   5.613  19.171  0.00  0.00    +0.000 A 
ATOM     19  C   UNL     1       4.479   4.319  19.547  0.00  0.00    +0.000 A 
BRANCH  14  21
ATOM     20  C   UNL     1       3.851   1.312  19.215  0.00  0.00    +0.000 C 
ATOM     21  O   UNL     1       3.826   2.160  20.363  0.00  0.00    +0.000 OA
ENDBRANCH  14  21
BRANCH  19  22
ATOM     22  O   UNL     1       5.797   4.076  19.269  0.00  0.00    +0.000 OA
ATOM     23  C   UNL     1       6.471   4.898  18.333  0.00  0.00    +0.000 C 
ENDBRANCH  19  22
ENDBRANCH   1  17
BRANCH   7  24
ATOM     24  C   UNL     1       0.328  12.929  19.156  0.00  0.00    +0.000 C 
BRANCH  24  25
ATOM     25  C   UNL     1       1.469  13.566  19.906  0.00  0.00    +0.000 A 
ATOM     26  C   UNL     1       2.713  13.877  19.346  0.00  0.00    +0.000 A 
ATOM     27  C   UNL     1       3.695  14.481  20.126  0.00  0.00    +0.000 A 
ATOM     28  C   UNL     1       3.406  14.762  21.449  0.00  0.00    +0.000 A 
ATOM     29  N   UNL     1       2.223  14.481  22.031  0.00  0.00    +0.000 NA
ATOM     30  C   UNL     1       1.288  13.890  21.250  0.00  0.00    +0.000 A 
ENDBRANCH  24  25
ENDBRANCH   7  24
TORSDOF 5
ENDMDL
MODEL 9
REMARK VINA RESULT:      -7.4      3.809      6.380
REMARK  Name = 
REMARK  9 active torsions:
REMARK  status: ('A' for Active; 'I' for Inactive)
REMARK    1  A    between atoms: C_1  and  O_2
REMARK    2  A    between atoms: O_2  and  C_3
REMARK    3  A    between atoms: C_6  and  C_7
REMARK    4  A    between atoms: C_8  and  C_9
REMARK    5  A    between atoms: N_13  and  C_14
REMARK    6  A    between atoms: C_14  and  C_15
REMARK    7  A    between atoms: C_22  and  C_23
REMARK    8  A    between atoms: C_27  and  O_28
REMARK    9  A    between atoms: O_28  and  C_29
REMARK                            x       y       z     vdW  Elec       q    Type
REMARK                         _______ _______ _______ _____ _____    ______ ____
ROOT
ATOM      1  C   UNL     1      -2.407  12.360  20.499  0.00  0.00    +0.000 A 
ATOM      2  C   UNL     1      -1.310  12.118  21.385  0.00  0.00    +0.000 A 
ATOM      3  C   UNL     1      -1.075  12.676  22.746  0.00  0.00    +0.000 C 
ATOM      4  N   UNL     1      -0.393  11.292  20.841  0.00  0.00    +0.000 NA
ATOM      5  N   UNL     1      -0.912  11.027  19.618  0.00  0.00    +0.000 N 
ATOM      6  C   UNL     1      -0.295  10.222  18.643  0.00  0.00    +0.000 A 
ATOM      7  N   UNL     1       0.894   9.599  18.955  0.00  0.00    +0.000 N 
ATOM      8  N   UNL     1      -0.877  10.103  17.482  0.00  0.00    +0.000 NA
ATOM      9  C   UNL     1      -2.073  10.760  17.275  0.00  0.00    +0.000 A 
ATOM     10  C   UNL     1      -2.685  10.585  15.915  0.00  0.00    +0.000 C 
ATOM     11  N   UNL     1      -2.692  11.500  18.144  0.00  0.00    +0.000 NA
ATOM     12  C   UNL     1      -2.094  11.655  19.355  0.00  0.00    +0.000 A 
ATOM     13  H   UNL     1       1.289   9.834  19.863  0.00  0.00    +0.000 HD
ENDROOT
BRANCH   1  17
ATOM     14  C   UNL     1      -5.945  14.741  20.732  0.00  0.00    +0.000 A 
ATOM     15  C   UNL     1      -4.679  15.318  20.922  0.00  0.00    +0.000 A 
ATOM     16  C   UNL     1      -3.519  14.548  20.864  0.00  0.00    +0.000 A 
ATOM     17  C   UNL     1      -3.604  13.173  20.628  0.00  0.00    +0.000 A 
ATOM     18  C   UNL     1      -4.876  12.592  20.532  0.00  0.00    +0.000 A 
ATOM     19  C   UNL     1      -6.051  13.352  20.604  0.00  0.00    +0.000 A 
BRANCH  14  21
ATOM     20  C   UNL     1      -7.372  16.046  19.393  0.00  0.00    +0.000 C 
ATOM     21  O   UNL     1      -7.068  15.522  20.685  0.00  0.00    +0.000 OA
ENDBRANCH  14  21
BRANCH  19  22
ATOM     22  O   UNL     1      -7.170  12.571  20.497  0.00  0.00    +0.000 OA
ATOM     23  C   UNL     1      -7.026  11.180  20.275  0.00  0.00    +0.000 C 
ENDBRANCH  19  22
ENDBRANCH   1  17
BRANCH   7  24
ATOM     24  C   UNL     1       1.824   9.153  17.940  0.00  0.00    +0.000 C 
BRANCH  24  25
ATOM     25  C   UNL     1       2.543   7.879  18.303  0.00  0.00    +0.000 A 
ATOM     26  C   UNL     1       3.585   7.315  17.558  0.00  0.00    +0.000 A 
ATOM     27  C   UNL     1       4.193   6.140  17.993  0.00  0.00    +0.000 A 
ATOM     28  C   UNL     1       3.744   5.560  19.164  0.00  0.00    +0.000 A 
ATOM     29  N   UNL     1       2.744   6.066  19.914  0.00  0.00    +0.000 NA
ATOM     30  C   UNL     1       2.169   7.207  19.466  0.00  0.00    +0.000 A 
ENDBRANCH  24  25
ENDBRANCH   7  24
TORSDOF 5
ENDMDL
