MODEL 1
REMARK VINA RESULT:      -7.5      0.000      0.000
REMARK  Name = 
REMARK  7 active torsions:
REMARK  status: ('A' for Active; 'I' for Inactive)
REMARK    1  A    between atoms: C_1  and  O_2
REMARK    2  A    between atoms: O_2  and  C_3
REMARK    3  A    between atoms: C_3  and  C_4
REMARK    4  A    between atoms: C_4  and  N_5
REMARK    5  A    between atoms: N_13  and  C_14
REMARK    6  A    between atoms: C_14  and  C_15
REMARK    7  A    between atoms: C_18  and  C_19
REMARK                            x       y       z     vdW  Elec       q    Type
REMARK                         _______ _______ _______ _____ _____    ______ ____
ROOT
ATOM      1  N   UNL     1       4.398   4.280  17.633  0.00  0.00    +0.000 N 
ATOM      2  C   UNL     1       5.115   3.761  18.707  0.00  0.00    +0.000 C 
ATOM      3  O   UNL     1       6.268   4.083  18.986  0.00  0.00    +0.000 OA
ATOM      4  C   UNL     1       4.306   2.817  19.579  0.00  0.00    +0.000 C 
ATOM      5  C   UNL     1       3.582   1.746  18.752  0.00  0.00    +0.000 C 
ATOM      6  C   UNL     1       3.055   2.272  17.422  0.00  0.00    +0.000 C 
ATOM      7  C   UNL     1       3.034   3.801  17.391  0.00  0.00    +0.000 C 
ATOM      8  C   UNL     1       2.023   4.373  18.418  0.00  0.00    +0.000 C 
ATOM      9  N   UNL     1       2.589   4.718  19.732  0.00  0.00    +0.000 NA
ATOM     10  C   UNL     1       3.329   3.658  20.426  0.00  0.00    +0.000 C 
ENDROOT
BRANCH   1  11
ATOM     11  C   UNL     1       4.854   5.505  16.994  0.00  0.00    +0.000 C 
BRANCH  11  12
ATOM     12  C   UNL     1       5.841   5.231  15.868  0.00  0.00    +0.000 C 
BRANCH  12  14
ATOM     13  C   UNL     1       6.891   6.864  17.188  0.00  0.00    +0.000 C 
ATOM     14  O   UNL     1       7.055   5.940  16.121  0.00  0.00    +0.000 OA
ENDBRANCH  12  14
ENDBRANCH  11  12
ENDBRANCH   1  11
BRANCH   9  15
ATOM     15  C   UNL     1       1.629   5.419  20.602  0.00  0.00    +0.000 C 
BRANCH  15  16
ATOM     16  C   UNL     1       1.613   6.897  20.425  0.00  0.00    +0.000 A 
ATOM     17  N   UNL     1       2.141   7.614  19.455  0.00  0.00    +0.000 NA
ATOM     18  N   UNL     1       1.730   8.906  19.667  0.00  0.00    +0.000 NA
ATOM     19  C   UNL     1       0.992   8.895  20.760  0.00  0.00    +0.000 A 
ATOM     20  O   UNL     1       0.871   7.643  21.303  0.00  0.00    +0.000 OA
BRANCH  19  21
ATOM     21  C   UNL     1       0.368  10.008  21.454  0.00  0.00    +0.000 A 
ATOM     22  C   UNL     1      -0.453   9.736  22.561  0.00  0.00    +0.000 A 
ATOM     23  C   UNL     1      -1.159  10.752  23.197  0.00  0.00    +0.000 A 
ATOM     24  C   UNL     1      -1.047  12.062  22.740  0.00  0.00    +0.000 A 
ATOM     25  C   UNL     1      -0.202  12.358  21.669  0.00  0.00    +0.000 A 
ATOM     26  C   UNL     1       0.506  11.337  21.031  0.00  0.00    +0.000 A 
ENDBRANCH  19  21
ENDBRANCH  15  16
ENDBRANCH   9  15
TORSDOF 6
ENDMDL
MODEL 2
REMARK VINA RESULT:      -7.5      3.041      8.447
REMARK  Name = 
REMARK  7 active torsions:
REMARK  status: ('A' for Active; 'I' for Inactive)
REMARK    1  A    between atoms: C_1  and  O_2
REMARK    2  A    between atoms: O_2  and  C_3
REMARK    3  A    between atoms: C_3  and  C_4
REMARK    4  A    between atoms: C_4  and  N_5
REMARK    5  A    between atoms: N_13  and  C_14
REMARK    6  A    between atoms: C_14  and  C_15
REMARK    7  A    between atoms: C_18  and  C_19
REMARK                            x       y       z     vdW  Elec       q    Type
REMARK                         _______ _______ _______ _____ _____    ______ ____
ROOT
ATOM      1  N   UNL     1       2.429   5.654  18.720  0.00  0.00    +0.000 N 
ATOM      2  C   UNL     1       2.061   4.453  18.121  0.00  0.00    +0.000 C 
ATOM      3  O   UNL     1       1.300   4.368  17.159  0.00  0.00    +0.000 OA
ATOM      4  C   UNL     1       2.765   3.240  18.704  0.00  0.00    +0.000 C 
ATOM      5  C   UNL     1       2.686   3.210  20.236  0.00  0.00    +0.000 C 
ATOM      6  C   UNL     1       2.794   4.592  20.870  0.00  0.00    +0.000 C 
ATOM      7  C   UNL     1       3.330   5.623  19.876  0.00  0.00    +0.000 C 
ATOM      8  C   UNL     1       4.793   5.310  19.469  0.00  0.00    +0.000 C 
ATOM      9  N   UNL     1       4.946   4.511  18.244  0.00  0.00    +0.000 NA
ATOM     10  C   UNL     1       4.221   3.236  18.197  0.00  0.00    +0.000 C 
ENDROOT
BRANCH   1  11
ATOM     11  C   UNL     1       2.215   6.904  18.007  0.00  0.00    +0.000 C 
BRANCH  11  12
ATOM     12  C   UNL     1       2.264   8.109  18.937  0.00  0.00    +0.000 C 
BRANCH  12  14
ATOM     13  C   UNL     1       1.396   8.497  21.084  0.00  0.00    +0.000 C 
ATOM     14  O   UNL     1       1.087   8.129  19.747  0.00  0.00    +0.000 OA
ENDBRANCH  12  14
ENDBRANCH  11  12
ENDBRANCH   1  11
BRANCH   9  15
ATOM     15  C   UNL     1       6.349   4.395  17.808  0.00  0.00    +0.000 C 
BRANCH  15  16
ATOM     16  C   UNL     1       6.559   4.644  16.356  0.00  0.00    +0.000 A 
ATOM     17  N   UNL     1       7.350   5.525  15.779  0.00  0.00    +0.000 NA
ATOM     18  N   UNL     1       7.298   5.262  14.433  0.00  0.00    +0.000 NA
ATOM     19  C   UNL     1       6.468   4.249  14.276  0.00  0.00    +0.000 A 
ATOM     20  O   UNL     1       5.954   3.798  15.463  0.00  0.00    +0.000 OA
BRANCH  19  21
ATOM     21  C   UNL     1       6.013   3.620  13.048  0.00  0.00    +0.000 A 
ATOM     22  C   UNL     1       4.718   3.904  12.585  0.00  0.00    +0.000 A 
ATOM     23  C   UNL     1       4.193   3.250  11.475  0.00  0.00    +0.000 A 
ATOM     24  C   UNL     1       4.963   2.305  10.802  0.00  0.00    +0.000 A 
ATOM     25  C   UNL     1       6.269   2.041  11.221  0.00  0.00    +0.000 A 
ATOM     26  C   UNL     1       6.794   2.698  12.336  0.00  0.00    +0.000 A 
ENDBRANCH  19  21
ENDBRANCH  15  16
ENDBRANCH   9  15
TORSDOF 6
ENDMDL
MODEL 3
REMARK VINA RESULT:      -7.4      2.978      8.000
REMARK  Name = 
REMARK  7 active torsions:
REMARK  status: ('A' for Active; 'I' for Inactive)
REMARK    1  A    between atoms: C_1  and  O_2
REMARK    2  A    between atoms: O_2  and  C_3
REMARK    3  A    between atoms: C_3  and  C_4
REMARK    4  A    between atoms: C_4  and  N_5
REMARK    5  A    between atoms: N_13  and  C_14
REMARK    6  A    between atoms: C_14  and  C_15
REMARK    7  A    between atoms: C_18  and  C_19
REMARK                            x       y       z     vdW  Elec       q    Type
REMARK                         _______ _______ _______ _____ _____    ______ ____
ROOT
ATOM      1  N   UNL     1       2.311   2.715  20.101  0.00  0.00    +0.000 N 
ATOM      2  C   UNL     1       1.587   2.481  18.936  0.00  0.00    +0.000 C 
ATOM      3  O   UNL     1       0.360   2.444  18.884  0.00  0.00    +0.000 OA
ATOM      4  C   UNL     1       2.453   2.370  17.693  0.00  0.00    +0.000 C 
ATOM      5  C   UNL     1       3.623   1.398  17.892  0.00  0.00    +0.000 C 
ATOM      6  C   UNL     1       4.221   1.458  19.293  0.00  0.00    +0.000 C 
ATOM      7  C   UNL     1       3.776   2.716  20.039  0.00  0.00    +0.000 C 
ATOM      8  C   UNL     1       4.331   3.999  19.367  0.00  0.00    +0.000 C 
ATOM      9  N   UNL     1       3.432   4.636  18.392  0.00  0.00    +0.000 NA
ATOM     10  C   UNL     1       2.930   3.785  17.308  0.00  0.00    +0.000 C 
ENDROOT
BRANCH   1  11
ATOM     11  C   UNL     1       1.640   3.288  21.258  0.00  0.00    +0.000 C 
BRANCH  11  12
ATOM     12  C   UNL     1       2.037   4.739  21.490  0.00  0.00    +0.000 C 
BRANCH  12  14
ATOM     13  C   UNL     1       1.701   6.897  20.628  0.00  0.00    +0.000 C 
ATOM     14  O   UNL     1       1.154   5.593  20.760  0.00  0.00    +0.000 OA
ENDBRANCH  12  14
ENDBRANCH  11  12
ENDBRANCH   1  11
BRANCH   9  15
ATOM     15  C   UNL     1       3.932   5.940  17.920  0.00  0.00    +0.000 C 
BRANCH  15  16
ATOM     16  C   UNL     1       5.147   5.853  17.064  0.00  0.00    +0.000 A 
ATOM     17  N   UNL     1       6.389   6.172  17.366  0.00  0.00    +0.000 NA
ATOM     18  N   UNL     1       7.156   5.774  16.299  0.00  0.00    +0.000 NA
ATOM     19  C   UNL     1       6.330   5.254  15.412  0.00  0.00    +0.000 A 
ATOM     20  O   UNL     1       5.026   5.268  15.831  0.00  0.00    +0.000 OA
BRANCH  19  21
ATOM     21  C   UNL     1       6.619   4.741  14.084  0.00  0.00    +0.000 A 
ATOM     22  C   UNL     1       7.597   5.388  13.310  0.00  0.00    +0.000 A 
ATOM     23  C   UNL     1       7.839   5.005  11.995  0.00  0.00    +0.000 A 
ATOM     24  C   UNL     1       7.111   3.958  11.434  0.00  0.00    +0.000 A 
ATOM     25  C   UNL     1       6.166   3.275  12.202  0.00  0.00    +0.000 A 
ATOM     26  C   UNL     1       5.924   3.661  13.522  0.00  0.00    +0.000 A 
ENDBRANCH  19  21
ENDBRANCH  15  16
ENDBRANCH   9  15
TORSDOF 6
ENDMDL
MODEL 4
REMARK VINA RESULT:      -7.3      2.855      8.024
REMARK  Name = 
REMARK  7 active torsions:
REMARK  status: ('A' for Active; 'I' for Inactive)
REMARK    1  A    between atoms: C_1  and  O_2
REMARK    2  A    between atoms: O_2  and  C_3
REMARK    3  A    between atoms: C_3  and  C_4
REMARK    4  A    between atoms: C_4  and  N_5
REMARK    5  A    between atoms: N_13  and  C_14
REMARK    6  A    between atoms: C_14  and  C_15
REMARK    7  A    between atoms: C_18  and  C_19
REMARK                            x       y       z     vdW  Elec       q    Type
REMARK                         _______ _______ _______ _____ _____    ______ ____
ROOT
ATOM      1  N   UNL     1       1.877   5.439  18.775  0.00  0.00    +0.000 N 
ATOM      2  C   UNL     1       1.628   4.164  18.274  0.00  0.00    +0.000 C 
ATOM      3  O   UNL     1       1.077   3.942  17.199  0.00  0.00    +0.000 OA
ATOM      4  C   UNL     1       2.191   3.050  19.140  0.00  0.00    +0.000 C 
ATOM      5  C   UNL     1       1.804   3.214  20.615  0.00  0.00    +0.000 C 
ATOM      6  C   UNL     1       1.792   4.668  21.073  0.00  0.00    +0.000 C 
ATOM      7  C   UNL     1       2.525   5.574  20.083  0.00  0.00    +0.000 C 
ATOM      8  C   UNL     1       4.038   5.239  20.022  0.00  0.00    +0.000 C 
ATOM      9  N   UNL     1       4.430   4.292  18.967  0.00  0.00    +0.000 NA
ATOM     10  C   UNL     1       3.720   3.008  18.940  0.00  0.00    +0.000 C 
ENDROOT
BRANCH   1  11
ATOM     11  C   UNL     1       1.820   6.583  17.878  0.00  0.00    +0.000 C 
BRANCH  11  12
ATOM     12  C   UNL     1       2.216   7.877  18.575  0.00  0.00    +0.000 C 
BRANCH  12  14
ATOM     13  C   UNL     1       0.913   9.756  18.041  0.00  0.00    +0.000 C 
ATOM     14  O   UNL     1       2.040   8.972  17.674  0.00  0.00    +0.000 OA
ENDBRANCH  12  14
ENDBRANCH  11  12
ENDBRANCH   1  11
BRANCH   9  15
ATOM     15  C   UNL     1       5.891   4.149  18.841  0.00  0.00    +0.000 C 
BRANCH  15  16
ATOM     16  C   UNL     1       6.458   4.747  17.601  0.00  0.00    +0.000 A 
ATOM     17  N   UNL     1       7.278   5.770  17.484  0.00  0.00    +0.000 NA
ATOM     18  N   UNL     1       7.620   5.836  16.156  0.00  0.00    +0.000 NA
ATOM     19  C   UNL     1       6.973   4.859  15.549  0.00  0.00    +0.000 A 
ATOM     20  O   UNL     1       6.209   4.117  16.410  0.00  0.00    +0.000 OA
BRANCH  19  21
ATOM     21  C   UNL     1       6.936   4.526  14.135  0.00  0.00    +0.000 A 
ATOM     22  C   UNL     1       7.796   5.209  13.260  0.00  0.00    +0.000 A 
ATOM     23  C   UNL     1       7.729   5.006  11.885  0.00  0.00    +0.000 A 
ATOM     24  C   UNL     1       6.803   4.106  11.364  0.00  0.00    +0.000 A 
ATOM     25  C   UNL     1       5.970   3.386  12.222  0.00  0.00    +0.000 A 
ATOM     26  C   UNL     1       6.038   3.591  13.602  0.00  0.00    +0.000 A 
ENDBRANCH  19  21
ENDBRANCH  15  16
ENDBRANCH   9  15
TORSDOF 6
ENDMDL
MODEL 5
REMARK VINA RESULT:      -7.3      3.961      7.920
REMARK  Name = 
REMARK  7 active torsions:
REMARK  status: ('A' for Active; 'I' for Inactive)
REMARK    1  A    between atoms: C_1  and  O_2
REMARK    2  A    between atoms: O_2  and  C_3
REMARK    3  A    between atoms: C_3  and  C_4
REMARK    4  A    between atoms: C_4  and  N_5
REMARK    5  A    between atoms: N_13  and  C_14
REMARK    6  A    between atoms: C_14  and  C_15
REMARK    7  A    between atoms: C_18  and  C_19
REMARK                            x       y       z     vdW  Elec       q    Type
REMARK                         _______ _______ _______ _____ _____    ______ ____
ROOT
ATOM      1  N   UNL     1       3.144   2.318  20.429  0.00  0.00    +0.000 N 
ATOM      2  C   UNL     1       2.315   3.165  21.158  0.00  0.00    +0.000 C 
ATOM      3  O   UNL     1       2.319   3.245  22.384  0.00  0.00    +0.000 OA
ATOM      4  C   UNL     1       1.454   4.069  20.292  0.00  0.00    +0.000 C 
ATOM      5  C   UNL     1       0.719   3.287  19.196  0.00  0.00    +0.000 C 
ATOM      6  C   UNL     1       1.550   2.153  18.607  0.00  0.00    +0.000 C 
ATOM      7  C   UNL     1       3.030   2.298  18.967  0.00  0.00    +0.000 C 
ATOM      8  C   UNL     1       3.650   3.561  18.316  0.00  0.00    +0.000 C 
ATOM      9  N   UNL     1       3.648   4.767  19.158  0.00  0.00    +0.000 NA
ATOM     10  C   UNL     1       2.353   5.180  19.711  0.00  0.00    +0.000 C 
ENDROOT
BRANCH   1  11
ATOM     11  C   UNL     1       4.318   1.742  21.067  0.00  0.00    +0.000 C 
BRANCH  11  12
ATOM     12  C   UNL     1       5.174   0.954  20.085  0.00  0.00    +0.000 C 
BRANCH  12  14
ATOM     13  C   UNL     1       6.119   0.321  22.140  0.00  0.00    +0.000 C 
ATOM     14  O   UNL     1       5.886  -0.064  20.792  0.00  0.00    +0.000 OA
ENDBRANCH  12  14
ENDBRANCH  11  12
ENDBRANCH   1  11
BRANCH   9  15
ATOM     15  C   UNL     1       4.404   5.883  18.561  0.00  0.00    +0.000 C 
BRANCH  15  16
ATOM     16  C   UNL     1       5.557   5.457  17.722  0.00  0.00    +0.000 A 
ATOM     17  N   UNL     1       6.757   5.076  18.107  0.00  0.00    +0.000 NA
ATOM     18  N   UNL     1       7.404   4.647  16.975  0.00  0.00    +0.000 NA
ATOM     19  C   UNL     1       6.562   4.809  15.972  0.00  0.00    +0.000 A 
ATOM     20  O   UNL     1       5.357   5.324  16.373  0.00  0.00    +0.000 OA
BRANCH  19  21
ATOM     21  C   UNL     1       6.770   4.570  14.555  0.00  0.00    +0.000 A 
ATOM     22  C   UNL     1       7.696   5.370  13.866  0.00  0.00    +0.000 A 
ATOM     23  C   UNL     1       7.858   5.255  12.489  0.00  0.00    +0.000 A 
ATOM     24  C   UNL     1       7.100   4.328  11.778  0.00  0.00    +0.000 A 
ATOM     25  C   UNL     1       6.205   3.495  12.452  0.00  0.00    +0.000 A 
ATOM     26  C   UNL     1       6.044   3.611  13.835  0.00  0.00    +0.000 A 
ENDBRANCH  19  21
ENDBRANCH  15  16
ENDBRANCH   9  15
TORSDOF 6
ENDMDL
MODEL 6
REMARK VINA RESULT:      -7.3      2.849      8.000
REMARK  Name = 
REMARK  7 active torsions:
REMARK  status: ('A' for Active; 'I' for Inactive)
REMARK    1  A    between atoms: C_1  and  O_2
REMARK    2  A    between atoms: O_2  and  C_3
REMARK    3  A    between atoms: C_3  and  C_4
REMARK    4  A    between atoms: C_4  and  N_5
REMARK    5  A    between atoms: N_13  and  C_14
REMARK    6  A    between atoms: C_14  and  C_15
REMARK    7  A    between atoms: C_18  and  C_19
REMARK                            x       y       z     vdW  Elec       q    Type
REMARK                         _______ _______ _______ _____ _____    ______ ____
ROOT
ATOM      1  N   UNL     1       2.206   2.795  19.992  0.00  0.00    +0.000 N 
ATOM      2  C   UNL     1       1.654   2.521  18.744  0.00  0.00    +0.000 C 
ATOM      3  O   UNL     1       0.446   2.478  18.520  0.00  0.00    +0.000 OA
ATOM      4  C   UNL     1       2.687   2.370  17.641  0.00  0.00    +0.000 C 
ATOM      5  C   UNL     1       3.816   1.409  18.036  0.00  0.00    +0.000 C 
ATOM      6  C   UNL     1       4.209   1.517  19.504  0.00  0.00    +0.000 C 
ATOM      7  C   UNL     1       3.664   2.798  20.138  0.00  0.00    +0.000 C 
ATOM      8  C   UNL     1       4.311   4.059  19.509  0.00  0.00    +0.000 C 
ATOM      9  N   UNL     1       3.561   4.661  18.396  0.00  0.00    +0.000 NA
ATOM     10  C   UNL     1       3.217   3.773  17.281  0.00  0.00    +0.000 C 
ENDROOT
BRANCH   1  11
ATOM     11  C   UNL     1       1.378   3.404  21.022  0.00  0.00    +0.000 C 
BRANCH  11  12
ATOM     12  C   UNL     1       0.894   4.791  20.623  0.00  0.00    +0.000 C 
BRANCH  12  14
ATOM     13  C   UNL     1       1.385   7.078  20.825  0.00  0.00    +0.000 C 
ATOM     14  O   UNL     1       1.885   5.757  20.978  0.00  0.00    +0.000 OA
ENDBRANCH  12  14
ENDBRANCH  11  12
ENDBRANCH   1  11
BRANCH   9  15
ATOM     15  C   UNL     1       4.126   5.950  17.957  0.00  0.00    +0.000 C 
BRANCH  15  16
ATOM     16  C   UNL     1       5.285   5.824  17.032  0.00  0.00    +0.000 A 
ATOM     17  N   UNL     1       6.557   6.067  17.272  0.00  0.00    +0.000 NA
ATOM     18  N   UNL     1       7.241   5.661  16.153  0.00  0.00    +0.000 NA
ATOM     19  C   UNL     1       6.341   5.213  15.300  0.00  0.00    +0.000 A 
ATOM     20  O   UNL     1       5.064   5.284  15.792  0.00  0.00    +0.000 OA
BRANCH  19  21
ATOM     21  C   UNL     1       6.528   4.725  13.944  0.00  0.00    +0.000 A 
ATOM     22  C   UNL     1       5.669   3.722  13.465  0.00  0.00    +0.000 A 
ATOM     23  C   UNL     1       5.868   3.145  12.215  0.00  0.00    +0.000 A 
ATOM     24  C   UNL     1       6.926   3.571  11.417  0.00  0.00    +0.000 A 
ATOM     25  C   UNL     1       7.763   4.598  11.858  0.00  0.00    +0.000 A 
ATOM     26  C   UNL     1       7.563   5.176  13.114  0.00  0.00    +0.000 A 
ENDBRANCH  19  21
ENDBRANCH  15  16
ENDBRANCH   9  15
TORSDOF 6
ENDMDL
MODEL 7
REMARK VINA RESULT:      -7.3      3.524      7.598
REMARK  Name = 
REMARK  7 active torsions:
REMARK  status: ('A' for Active; 'I' for Inactive)
REMARK    1  A    between atoms: C_1  and  O_2
REMARK    2  A    between atoms: O_2  and  C_3
REMARK    3  A    between atoms: C_3  and  C_4
REMARK    4  A    between atoms: C_4  and  N_5
REMARK    5  A    between atoms: N_13  and  C_14
REMARK    6  A    between atoms: C_14  and  C_15
REMARK    7  A    between atoms: C_18  and  C_19
REMARK                            x       y       z     vdW  Elec       q    Type
REMARK                         _______ _______ _______ _____ _____    ______ ____
ROOT
ATOM      1  N   UNL     1       1.959   4.157  18.738  0.00  0.00    +0.000 N 
ATOM      2  C   UNL     1       2.341   2.832  18.553  0.00  0.00    +0.000 C 
ATOM      3  O   UNL     1       2.087   2.176  17.545  0.00  0.00    +0.000 OA
ATOM      4  C   UNL     1       3.196   2.281  19.681  0.00  0.00    +0.000 C 
ATOM      5  C   UNL     1       2.577   2.554  21.058  0.00  0.00    +0.000 C 
ATOM      6  C   UNL     1       1.892   3.912  21.150  0.00  0.00    +0.000 C 
ATOM      7  C   UNL     1       2.305   4.827  19.995  0.00  0.00    +0.000 C 
ATOM      8  C   UNL     1       3.811   5.188  20.070  0.00  0.00    +0.000 C 
ATOM      9  N   UNL     1       4.705   4.319  19.290  0.00  0.00    +0.000 NA
ATOM     10  C   UNL     1       4.612   2.878  19.550  0.00  0.00    +0.000 C 
ENDROOT
BRANCH   1  11
ATOM     11  C   UNL     1       1.550   4.951  17.589  0.00  0.00    +0.000 C 
BRANCH  11  12
ATOM     12  C   UNL     1       1.478   6.436  17.916  0.00  0.00    +0.000 C 
BRANCH  12  14
ATOM     13  C   UNL     1       2.655   8.460  17.743  0.00  0.00    +0.000 C 
ATOM     14  O   UNL     1       2.732   7.048  17.609  0.00  0.00    +0.000 OA
ENDBRANCH  12  14
ENDBRANCH  11  12
ENDBRANCH   1  11
BRANCH   9  15
ATOM     15  C   UNL     1       6.093   4.812  19.253  0.00  0.00    +0.000 C 
BRANCH  15  16
ATOM     16  C   UNL     1       6.515   5.348  17.930  0.00  0.00    +0.000 A 
ATOM     17  N   UNL     1       7.221   6.428  17.668  0.00  0.00    +0.000 NA
ATOM     18  N   UNL     1       7.466   6.407  16.317  0.00  0.00    +0.000 NA
ATOM     19  C   UNL     1       6.879   5.325  15.842  0.00  0.00    +0.000 A 
ATOM     20  O   UNL     1       6.250   4.595  16.816  0.00  0.00    +0.000 OA
BRANCH  19  21
ATOM     21  C   UNL     1       6.781   4.866  14.468  0.00  0.00    +0.000 A 
ATOM     22  C   UNL     1       5.766   3.954  14.134  0.00  0.00    +0.000 A 
ATOM     23  C   UNL     1       5.690   3.402  12.859  0.00  0.00    +0.000 A 
ATOM     24  C   UNL     1       6.625   3.762  11.893  0.00  0.00    +0.000 A 
ATOM     25  C   UNL     1       7.615   4.700  12.194  0.00  0.00    +0.000 A 
ATOM     26  C   UNL     1       7.690   5.253  13.474  0.00  0.00    +0.000 A 
ENDBRANCH  19  21
ENDBRANCH  15  16
ENDBRANCH   9  15
TORSDOF 6
ENDMDL
MODEL 8
REMARK VINA RESULT:      -7.3      3.726      6.967
REMARK  Name = 
REMARK  7 active torsions:
REMARK  status: ('A' for Active; 'I' for Inactive)
REMARK    1  A    between atoms: C_1  and  O_2
REMARK    2  A    between atoms: O_2  and  C_3
REMARK    3  A    between atoms: C_3  and  C_4
REMARK    4  A    between atoms: C_4  and  N_5
REMARK    5  A    between atoms: N_13  and  C_14
REMARK    6  A    between atoms: C_14  and  C_15
REMARK    7  A    between atoms: C_18  and  C_19
REMARK                            x       y       z     vdW  Elec       q    Type
REMARK                         _______ _______ _______ _____ _____    ______ ____
ROOT
ATOM      1  N   UNL     1       3.415   4.879  19.116  0.00  0.00    +0.000 N 
ATOM      2  C   UNL     1       3.246   5.440  17.854  0.00  0.00    +0.000 C 
ATOM      3  O   UNL     1       2.510   6.395  17.618  0.00  0.00    +0.000 OA
ATOM      4  C   UNL     1       4.138   4.824  16.790  0.00  0.00    +0.000 C 
ATOM      5  C   UNL     1       4.064   3.291  16.793  0.00  0.00    +0.000 C 
ATOM      6  C   UNL     1       3.947   2.700  18.193  0.00  0.00    +0.000 C 
ATOM      7  C   UNL     1       4.308   3.726  19.267  0.00  0.00    +0.000 C 
ATOM      8  C   UNL     1       5.803   4.131  19.183  0.00  0.00    +0.000 C 
ATOM      9  N   UNL     1       6.084   5.333  18.382  0.00  0.00    +0.000 NA
ATOM     10  C   UNL     1       5.575   5.338  17.006  0.00  0.00    +0.000 C 
ENDROOT
BRANCH   1  11
ATOM     11  C   UNL     1       3.001   5.627  20.293  0.00  0.00    +0.000 C 
BRANCH  11  12
ATOM     12  C   UNL     1       1.602   5.241  20.755  0.00  0.00    +0.000 C 
BRANCH  12  14
ATOM     13  C   UNL     1       1.263   2.976  21.275  0.00  0.00    +0.000 C 
ATOM     14  O   UNL     1       1.275   3.949  20.239  0.00  0.00    +0.000 OA
ENDBRANCH  12  14
ENDBRANCH  11  12
ENDBRANCH   1  11
BRANCH   9  15
ATOM     15  C   UNL     1       7.487   5.771  18.483  0.00  0.00    +0.000 C 
BRANCH  15  16
ATOM     16  C   UNL     1       7.709   7.195  18.108  0.00  0.00    +0.000 A 
ATOM     17  N   UNL     1       7.061   7.921  17.221  0.00  0.00    +0.000 NA
ATOM     18  N   UNL     1       7.540   9.201  17.351  0.00  0.00    +0.000 NA
ATOM     19  C   UNL     1       8.459   9.167  18.297  0.00  0.00    +0.000 A 
ATOM     20  O   UNL     1       8.623   7.916  18.830  0.00  0.00    +0.000 OA
BRANCH  19  21
ATOM     21  C   UNL     1       9.315  10.238  18.780  0.00  0.00    +0.000 A 
ATOM     22  C   UNL     1       9.296  10.548  20.150  0.00  0.00    +0.000 A 
ATOM     23  C   UNL     1      10.013  11.630  20.649  0.00  0.00    +0.000 A 
ATOM     24  C   UNL     1      10.772  12.415  19.785  0.00  0.00    +0.000 A 
ATOM     25  C   UNL     1      10.838  12.095  18.427  0.00  0.00    +0.000 A 
ATOM     26  C   UNL     1      10.116  11.009  17.927  0.00  0.00    +0.000 A 
ENDBRANCH  19  21
ENDBRANCH  15  16
ENDBRANCH   9  15
TORSDOF 6
ENDMDL
MODEL 9
REMARK VINA RESULT:      -7.2      1.949      2.215
REMARK  Name = 
REMARK  7 active torsions:
REMARK  status: ('A' for Active; 'I' for Inactive)
REMARK    1  A    between atoms: C_1  and  O_2
REMARK    2  A    between atoms: O_2  and  C_3
REMARK    3  A    between atoms: C_3  and  C_4
REMARK    4  A    between atoms: C_4  and  N_5
REMARK    5  A    between atoms: N_13  and  C_14
REMARK    6  A    between atoms: C_14  and  C_15
REMARK    7  A    between atoms: C_18  and  C_19
REMARK                            x       y       z     vdW  Elec       q    Type
REMARK                         _______ _______ _______ _____ _____    ______ ____
ROOT
ATOM      1  N   UNL     1       4.533   4.183  17.244  0.00  0.00    +0.000 N 
ATOM      2  C   UNL     1       5.272   3.954  18.400  0.00  0.00    +0.000 C 
ATOM      3  O   UNL     1       6.470   4.205  18.513  0.00  0.00    +0.000 OA
ATOM      4  C   UNL     1       4.439   3.449  19.565  0.00  0.00    +0.000 C 
ATOM      5  C   UNL     1       3.546   2.267  19.165  0.00  0.00    +0.000 C 
ATOM      6  C   UNL     1       2.976   2.395  17.758  0.00  0.00    +0.000 C 
ATOM      7  C   UNL     1       3.112   3.823  17.226  0.00  0.00    +0.000 C 
ATOM      8  C   UNL     1       2.248   4.816  18.045  0.00  0.00    +0.000 C 
ATOM      9  N   UNL     1       2.945   5.494  19.148  0.00  0.00    +0.000 NA
ATOM     10  C   UNL     1       3.622   4.632  20.124  0.00  0.00    +0.000 C 
ENDROOT
BRANCH   1  11
ATOM     11  C   UNL     1       5.063   5.070  16.219  0.00  0.00    +0.000 C 
BRANCH  11  12
ATOM     12  C   UNL     1       5.385   6.453  16.770  0.00  0.00    +0.000 C 
BRANCH  12  14
ATOM     13  C   UNL     1       7.365   7.472  17.514  0.00  0.00    +0.000 C 
ATOM     14  O   UNL     1       6.733   6.791  16.439  0.00  0.00    +0.000 OA
ENDBRANCH  12  14
ENDBRANCH  11  12
ENDBRANCH   1  11
BRANCH   9  15
ATOM     15  C   UNL     1       2.132   6.551  19.775  0.00  0.00    +0.000 C 
BRANCH  15  16
ATOM     16  C   UNL     1       2.099   7.828  19.011  0.00  0.00    +0.000 A 
ATOM     17  N   UNL     1       2.647   8.102  17.846  0.00  0.00    +0.000 NA
ATOM     18  N   UNL     1       2.210   9.357  17.503  0.00  0.00    +0.000 NA
ATOM     19  C   UNL     1       1.438   9.772  18.488  0.00  0.00    +0.000 A 
ATOM     20  O   UNL     1       1.319   8.846  19.491  0.00  0.00    +0.000 OA
BRANCH  19  21
ATOM     21  C   UNL     1       0.775  11.054  18.654  0.00  0.00    +0.000 A 
ATOM     22  C   UNL     1       1.555  12.222  18.644  0.00  0.00    +0.000 A 
ATOM     23  C   UNL     1       0.987  13.465  18.903  0.00  0.00    +0.000 A 
ATOM     24  C   UNL     1      -0.377  13.561  19.167  0.00  0.00    +0.000 A 
ATOM     25  C   UNL     1      -1.176  12.416  19.137  0.00  0.00    +0.000 A 
ATOM     26  C   UNL     1      -0.604  11.169  18.878  0.00  0.00    +0.000 A 
ENDBRANCH  19  21
ENDBRANCH  15  16
ENDBRANCH   9  15
TORSDOF 6
ENDMDL
