MODEL 1
REMARK VINA RESULT:      -6.7      0.000      0.000
REMARK  Name = 
REMARK  1 active torsions:
REMARK  status: ('A' for Active; 'I' for Inactive)
REMARK    1  A    between atoms: N_6  and  C_7
REMARK                            x       y       z     vdW  Elec       q    Type
REMARK                         _______ _______ _______ _____ _____    ______ ____
ROOT
ATOM      1  O   UNL     1       7.861   5.367  14.662  0.00  0.00    +0.000 OA
ATOM      2  C   UNL     1       7.041   4.997  15.493  0.00  0.00    +0.000 A 
ATOM      3  N   UNL     1       7.280   5.057  16.840  0.00  0.00    +0.000 N 
ATOM      4  C   UNL     1       6.438   4.630  17.838  0.00  0.00    +0.000 A 
ATOM      5  O   UNL     1       6.774   4.733  19.016  0.00  0.00    +0.000 OA
ATOM      6  N   UNL     1       5.223   4.093  17.418  0.00  0.00    +0.000 N 
ATOM      7  C   UNL     1       4.887   4.039  16.075  0.00  0.00    +0.000 A 
ATOM      8  C   UNL     1       5.719   4.459  15.125  0.00  0.00    +0.000 A 
ATOM      9  F   UNL     1       5.407   4.402  13.816  0.00  0.00    +0.000 F 
ATOM     10  H   UNL     1       8.174   5.422  17.127  0.00  0.00    +0.000 HD
ENDROOT
BRANCH   6  11
ATOM     11  C   UNL     1       4.315   3.600  18.457  0.00  0.00    +0.000 C 
ATOM     12  C   UNL     1       3.150   4.542  18.741  0.00  0.00    +0.000 C 
ATOM     13  C   UNL     1       2.054   3.991  17.864  0.00  0.00    +0.000 C 
ATOM     14  C   UNL     1       2.324   2.504  17.920  0.00  0.00    +0.000 C 
ATOM     15  O   UNL     1       3.741   2.343  18.056  0.00  0.00    +0.000 OA
ENDBRANCH   6  11
TORSDOF 1
ENDMDL
MODEL 2
REMARK VINA RESULT:      -6.6      0.939      1.111
REMARK  Name = 
REMARK  1 active torsions:
REMARK  status: ('A' for Active; 'I' for Inactive)
REMARK    1  A    between atoms: N_6  and  C_7
REMARK                            x       y       z     vdW  Elec       q    Type
REMARK                         _______ _______ _______ _____ _____    ______ ____
ROOT
ATOM      1  O   UNL     1       7.739   5.203  14.570  0.00  0.00    +0.000 OA
ATOM      2  C   UNL     1       7.021   5.015  15.544  0.00  0.00    +0.000 A 
ATOM      3  N   UNL     1       7.478   5.133  16.830  0.00  0.00    +0.000 N 
ATOM      4  C   UNL     1       6.757   4.904  17.976  0.00  0.00    +0.000 A 
ATOM      5  O   UNL     1       7.287   5.040  19.077  0.00  0.00    +0.000 OA
ATOM      6  N   UNL     1       5.430   4.520  17.791  0.00  0.00    +0.000 N 
ATOM      7  C   UNL     1       4.880   4.422  16.524  0.00  0.00    +0.000 A 
ATOM      8  C   UNL     1       5.598   4.649  15.427  0.00  0.00    +0.000 A 
ATOM      9  F   UNL     1       5.076   4.546  14.189  0.00  0.00    +0.000 F 
ATOM     10  H   UNL     1       8.446   5.384  16.946  0.00  0.00    +0.000 HD
ENDROOT
BRANCH   6  11
ATOM     11  C   UNL     1       4.643   4.238  18.994  0.00  0.00    +0.000 C 
ATOM     12  C   UNL     1       3.158   4.034  18.713  0.00  0.00    +0.000 C 
ATOM     13  C   UNL     1       3.045   2.535  18.583  0.00  0.00    +0.000 C 
ATOM     14  C   UNL     1       4.065   2.055  19.591  0.00  0.00    +0.000 C 
ATOM     15  O   UNL     1       5.114   3.031  19.621  0.00  0.00    +0.000 OA
ENDBRANCH   6  11
TORSDOF 1
ENDMDL
MODEL 3
REMARK VINA RESULT:      -6.4      1.374      1.463
REMARK  Name = 
REMARK  1 active torsions:
REMARK  status: ('A' for Active; 'I' for Inactive)
REMARK    1  A    between atoms: N_6  and  C_7
REMARK                            x       y       z     vdW  Elec       q    Type
REMARK                         _______ _______ _______ _____ _____    ______ ____
ROOT
ATOM      1  O   UNL     1       7.555   5.174  14.171  0.00  0.00    +0.000 OA
ATOM      2  C   UNL     1       7.053   5.134  15.286  0.00  0.00    +0.000 A 
ATOM      3  N   UNL     1       7.776   4.823  16.408  0.00  0.00    +0.000 N 
ATOM      4  C   UNL     1       7.291   4.716  17.688  0.00  0.00    +0.000 A 
ATOM      5  O   UNL     1       8.046   4.424  18.613  0.00  0.00    +0.000 OA
ATOM      6  N   UNL     1       5.927   4.957  17.842  0.00  0.00    +0.000 N 
ATOM      7  C   UNL     1       5.135   5.320  16.764  0.00  0.00    +0.000 A 
ATOM      8  C   UNL     1       5.628   5.418  15.532  0.00  0.00    +0.000 A 
ATOM      9  F   UNL     1       4.865   5.760  14.476  0.00  0.00    +0.000 F 
ATOM     10  H   UNL     1       8.755   4.625  16.277  0.00  0.00    +0.000 HD
ENDROOT
BRANCH   6  11
ATOM     11  C   UNL     1       5.372   4.820  19.190  0.00  0.00    +0.000 C 
ATOM     12  C   UNL     1       3.996   5.459  19.348  0.00  0.00    +0.000 C 
ATOM     13  C   UNL     1       3.061   4.301  19.109  0.00  0.00    +0.000 C 
ATOM     14  C   UNL     1       3.829   3.146  19.713  0.00  0.00    +0.000 C 
ATOM     15  O   UNL     1       5.221   3.428  19.524  0.00  0.00    +0.000 OA
ENDBRANCH   6  11
TORSDOF 1
ENDMDL
MODEL 4
REMARK VINA RESULT:      -6.4      3.415      5.574
REMARK  Name = 
REMARK  1 active torsions:
REMARK  status: ('A' for Active; 'I' for Inactive)
REMARK    1  A    between atoms: N_6  and  C_7
REMARK                            x       y       z     vdW  Elec       q    Type
REMARK                         _______ _______ _______ _____ _____    ______ ____
ROOT
ATOM      1  O   UNL     1       1.186   2.617  22.373  0.00  0.00    +0.000 OA
ATOM      2  C   UNL     1       1.951   2.849  21.446  0.00  0.00    +0.000 A 
ATOM      3  N   UNL     1       3.171   2.237  21.328  0.00  0.00    +0.000 N 
ATOM      4  C   UNL     1       4.107   2.462  20.348  0.00  0.00    +0.000 A 
ATOM      5  O   UNL     1       5.172   1.849  20.357  0.00  0.00    +0.000 OA
ATOM      6  N   UNL     1       3.759   3.406  19.384  0.00  0.00    +0.000 N 
ATOM      7  C   UNL     1       2.525   4.036  19.407  0.00  0.00    +0.000 A 
ATOM      8  C   UNL     1       1.634   3.802  20.367  0.00  0.00    +0.000 A 
ATOM      9  F   UNL     1       0.436   4.416  20.405  0.00  0.00    +0.000 F 
ATOM     10  H   UNL     1       3.420   1.577  22.048  0.00  0.00    +0.000 HD
ENDROOT
BRANCH   6  11
ATOM     11  C   UNL     1       4.748   3.693  18.343  0.00  0.00    +0.000 C 
ATOM     12  C   UNL     1       4.221   4.606  17.241  0.00  0.00    +0.000 C 
ATOM     13  C   UNL     1       4.666   5.973  17.698  0.00  0.00    +0.000 C 
ATOM     14  C   UNL     1       5.995   5.668  18.353  0.00  0.00    +0.000 C 
ATOM     15  O   UNL     1       5.891   4.354  18.915  0.00  0.00    +0.000 OA
ENDBRANCH   6  11
TORSDOF 1
ENDMDL
MODEL 5
REMARK VINA RESULT:      -6.3      1.024      1.139
REMARK  Name = 
REMARK  1 active torsions:
REMARK  status: ('A' for Active; 'I' for Inactive)
REMARK    1  A    between atoms: N_6  and  C_7
REMARK                            x       y       z     vdW  Elec       q    Type
REMARK                         _______ _______ _______ _____ _____    ______ ____
ROOT
ATOM      1  O   UNL     1       7.510   5.255  13.565  0.00  0.00    +0.000 OA
ATOM      2  C   UNL     1       6.969   5.045  14.643  0.00  0.00    +0.000 A 
ATOM      3  N   UNL     1       7.542   5.401  15.836  0.00  0.00    +0.000 N 
ATOM      4  C   UNL     1       7.029   5.170  17.089  0.00  0.00    +0.000 A 
ATOM      5  O   UNL     1       7.647   5.536  18.087  0.00  0.00    +0.000 OA
ATOM      6  N   UNL     1       5.800   4.514  17.129  0.00  0.00    +0.000 N 
ATOM      7  C   UNL     1       5.135   4.161  15.966  0.00  0.00    +0.000 A 
ATOM      8  C   UNL     1       5.652   4.395  14.763  0.00  0.00    +0.000 A 
ATOM      9  F   UNL     1       5.019   4.047  13.626  0.00  0.00    +0.000 F 
ATOM     10  H   UNL     1       8.443   5.849  15.791  0.00  0.00    +0.000 HD
ENDROOT
BRANCH   6  11
ATOM     11  C   UNL     1       5.241   4.226  18.452  0.00  0.00    +0.000 C 
ATOM     12  C   UNL     1       4.492   5.405  19.064  0.00  0.00    +0.000 C 
ATOM     13  C   UNL     1       3.062   5.135  18.669  0.00  0.00    +0.000 C 
ATOM     14  C   UNL     1       3.000   3.625  18.726  0.00  0.00    +0.000 C 
ATOM     15  O   UNL     1       4.299   3.141  18.364  0.00  0.00    +0.000 OA
ENDBRANCH   6  11
TORSDOF 1
ENDMDL
MODEL 6
REMARK VINA RESULT:      -6.2      1.438      1.530
REMARK  Name = 
REMARK  1 active torsions:
REMARK  status: ('A' for Active; 'I' for Inactive)
REMARK    1  A    between atoms: N_6  and  C_7
REMARK                            x       y       z     vdW  Elec       q    Type
REMARK                         _______ _______ _______ _____ _____    ______ ____
ROOT
ATOM      1  O   UNL     1       7.870   4.557  16.128  0.00  0.00    +0.000 OA
ATOM      2  C   UNL     1       6.815   4.641  16.744  0.00  0.00    +0.000 A 
ATOM      3  N   UNL     1       6.662   4.145  18.012  0.00  0.00    +0.000 N 
ATOM      4  C   UNL     1       5.510   4.159  18.760  0.00  0.00    +0.000 A 
ATOM      5  O   UNL     1       5.500   3.674  19.889  0.00  0.00    +0.000 OA
ATOM      6  N   UNL     1       4.400   4.745  18.153  0.00  0.00    +0.000 N 
ATOM      7  C   UNL     1       4.485   5.308  16.891  0.00  0.00    +0.000 A 
ATOM      8  C   UNL     1       5.612   5.284  16.184  0.00  0.00    +0.000 A 
ATOM      9  F   UNL     1       5.704   5.819  14.952  0.00  0.00    +0.000 F 
ATOM     10  H   UNL     1       7.465   3.700  18.426  0.00  0.00    +0.000 HD
ENDROOT
BRANCH   6  11
ATOM     11  C   UNL     1       3.148   4.747  18.913  0.00  0.00    +0.000 C 
ATOM     12  C   UNL     1       1.986   5.391  18.164  0.00  0.00    +0.000 C 
ATOM     13  C   UNL     1       1.308   4.209  17.517  0.00  0.00    +0.000 C 
ATOM     14  C   UNL     1       1.501   3.128  18.558  0.00  0.00    +0.000 C 
ATOM     15  O   UNL     1       2.748   3.396  19.211  0.00  0.00    +0.000 OA
ENDBRANCH   6  11
TORSDOF 1
ENDMDL
MODEL 7
REMARK VINA RESULT:      -6.2      2.213      2.502
REMARK  Name = 
REMARK  1 active torsions:
REMARK  status: ('A' for Active; 'I' for Inactive)
REMARK    1  A    between atoms: N_6  and  C_7
REMARK                            x       y       z     vdW  Elec       q    Type
REMARK                         _______ _______ _______ _____ _____    ______ ____
ROOT
ATOM      1  O   UNL     1       7.721   6.863  16.613  0.00  0.00    +0.000 OA
ATOM      2  C   UNL     1       6.731   6.302  17.065  0.00  0.00    +0.000 A 
ATOM      3  N   UNL     1       5.515   6.925  17.170  0.00  0.00    +0.000 N 
ATOM      4  C   UNL     1       4.366   6.388  17.697  0.00  0.00    +0.000 A 
ATOM      5  O   UNL     1       3.335   7.056  17.740  0.00  0.00    +0.000 OA
ATOM      6  N   UNL     1       4.466   5.077  18.160  0.00  0.00    +0.000 N 
ATOM      7  C   UNL     1       5.648   4.364  18.048  0.00  0.00    +0.000 A 
ATOM      8  C   UNL     1       6.749   4.905  17.533  0.00  0.00    +0.000 A 
ATOM      9  F   UNL     1       7.907   4.224  17.429  0.00  0.00    +0.000 F 
ATOM     10  H   UNL     1       5.466   7.881  16.857  0.00  0.00    +0.000 HD
ENDROOT
BRANCH   6  11
ATOM     11  C   UNL     1       3.266   4.487  18.757  0.00  0.00    +0.000 C 
ATOM     12  C   UNL     1       2.239   4.027  17.727  0.00  0.00    +0.000 C 
ATOM     13  C   UNL     1       2.574   2.567  17.550  0.00  0.00    +0.000 C 
ATOM     14  C   UNL     1       3.007   2.173  18.945  0.00  0.00    +0.000 C 
ATOM     15  O   UNL     1       3.619   3.327  19.533  0.00  0.00    +0.000 OA
ENDBRANCH   6  11
TORSDOF 1
ENDMDL
MODEL 8
REMARK VINA RESULT:      -6.2      1.544      1.564
REMARK  Name = 
REMARK  1 active torsions:
REMARK  status: ('A' for Active; 'I' for Inactive)
REMARK    1  A    between atoms: N_6  and  C_7
REMARK                            x       y       z     vdW  Elec       q    Type
REMARK                         _______ _______ _______ _____ _____    ______ ____
ROOT
ATOM      1  O   UNL     1       7.646   6.255  15.913  0.00  0.00    +0.000 OA
ATOM      2  C   UNL     1       6.722   5.968  16.663  0.00  0.00    +0.000 A 
ATOM      3  N   UNL     1       6.924   5.520  17.942  0.00  0.00    +0.000 N 
ATOM      4  C   UNL     1       5.954   5.139  18.836  0.00  0.00    +0.000 A 
ATOM      5  O   UNL     1       6.266   4.748  19.958  0.00  0.00    +0.000 OA
ATOM      6  N   UNL     1       4.640   5.230  18.380  0.00  0.00    +0.000 N 
ATOM      7  C   UNL     1       4.350   5.716  17.115  0.00  0.00    +0.000 A 
ATOM      8  C   UNL     1       5.307   6.080  16.266  0.00  0.00    +0.000 A 
ATOM      9  F   UNL     1       5.037   6.543  15.030  0.00  0.00    +0.000 F 
ATOM     10  H   UNL     1       7.880   5.434  18.247  0.00  0.00    +0.000 HD
ENDROOT
BRANCH   6  11
ATOM     11  C   UNL     1       3.583   4.801  19.298  0.00  0.00    +0.000 C 
ATOM     12  C   UNL     1       2.190   5.257  18.876  0.00  0.00    +0.000 C 
ATOM     13  C   UNL     1       1.668   4.069  18.107  0.00  0.00    +0.000 C 
ATOM     14  C   UNL     1       2.279   2.911  18.864  0.00  0.00    +0.000 C 
ATOM     15  O   UNL     1       3.542   3.364  19.368  0.00  0.00    +0.000 OA
ENDBRANCH   6  11
TORSDOF 1
ENDMDL
MODEL 9
REMARK VINA RESULT:      -6.2      2.183      2.727
REMARK  Name = 
REMARK  1 active torsions:
REMARK  status: ('A' for Active; 'I' for Inactive)
REMARK    1  A    between atoms: N_6  and  C_7
REMARK                            x       y       z     vdW  Elec       q    Type
REMARK                         _______ _______ _______ _____ _____    ______ ____
ROOT
ATOM      1  O   UNL     1       6.731   5.678  17.829  0.00  0.00    +0.000 OA
ATOM      2  C   UNL     1       5.788   4.948  18.106  0.00  0.00    +0.000 A 
ATOM      3  N   UNL     1       5.876   3.957  19.048  0.00  0.00    +0.000 N 
ATOM      4  C   UNL     1       4.886   3.069  19.394  0.00  0.00    +0.000 A 
ATOM      5  O   UNL     1       5.094   2.217  20.255  0.00  0.00    +0.000 OA
ATOM      6  N   UNL     1       3.679   3.212  18.713  0.00  0.00    +0.000 N 
ATOM      7  C   UNL     1       3.495   4.218  17.779  0.00  0.00    +0.000 A 
ATOM      8  C   UNL     1       4.469   5.067  17.459  0.00  0.00    +0.000 A 
ATOM      9  F   UNL     1       4.304   6.042  16.545  0.00  0.00    +0.000 F 
ATOM     10  H   UNL     1       6.764   3.848  19.512  0.00  0.00    +0.000 HD
ENDROOT
BRANCH   6  11
ATOM     11  C   UNL     1       2.613   2.261  19.037  0.00  0.00    +0.000 C 
ATOM     12  C   UNL     1       1.994   2.489  20.412  0.00  0.00    +0.000 C 
ATOM     13  C   UNL     1       0.796   3.351  20.101  0.00  0.00    +0.000 C 
ATOM     14  C   UNL     1       0.359   2.809  18.758  0.00  0.00    +0.000 C 
ATOM     15  O   UNL     1       1.544   2.372  18.080  0.00  0.00    +0.000 OA
ENDBRANCH   6  11
TORSDOF 1
ENDMDL
