MODEL 1
REMARK VINA RESULT:      -7.4      0.000      0.000
REMARK  Name = 
REMARK  0 active torsions:
REMARK  status: ('A' for Active; 'I' for Inactive)
REMARK                            x       y       z     vdW  Elec       q    Type
REMARK                         _______ _______ _______ _____ _____    ______ ____
ROOT
ATOM      1 CL   UNL     1       7.587   5.113  13.365  0.00  0.00    +0.000 Cl
ATOM      2  C   UNL     1       6.802   4.786  14.864  0.00  0.00    +0.000 A 
ATOM      3  C   UNL     1       7.538   4.857  16.062  0.00  0.00    +0.000 A 
ATOM      4  C   UNL     1       6.931   4.597  17.300  0.00  0.00    +0.000 A 
ATOM      5  C   UNL     1       5.591   4.272  17.291  0.00  0.00    +0.000 A 
ATOM      6  C   UNL     1       4.843   4.198  16.082  0.00  0.00    +0.000 A 
ATOM      7  C   UNL     1       5.447   4.456  14.862  0.00  0.00    +0.000 A 
ATOM      8  C   UNL     1       3.373   3.819  16.295  0.00  0.00    +0.000 C 
ATOM      9  C   UNL     1       3.423   3.698  17.779  0.00  0.00    +0.000 A 
ATOM     10  C   UNL     1       4.657   3.950  18.319  0.00  0.00    +0.000 A 
ATOM     11  N   UNL     1       4.599   3.815  19.663  0.00  0.00    +0.000 N 
ATOM     12  C   UNL     1       3.294   3.468  20.009  0.00  0.00    +0.000 A 
ATOM     13  C   UNL     1       2.718   3.215  21.261  0.00  0.00    +0.000 A 
ATOM     14  C   UNL     1       1.358   2.882  21.298  0.00  0.00    +0.000 A 
ATOM     15  C   UNL     1       0.598   2.801  20.132  0.00  0.00    +0.000 A 
ATOM     16  C   UNL     1       1.178   3.054  18.890  0.00  0.00    +0.000 A 
ATOM     17  C   UNL     1       2.540   3.389  18.825  0.00  0.00    +0.000 A 
ATOM     18  H   UNL     1       5.358   3.943  20.317  0.00  0.00    +0.000 HD
ENDROOT
TORSDOF 0
ENDMDL
MODEL 2
REMARK VINA RESULT:      -7.3      5.278      6.786
REMARK  Name = 
REMARK  0 active torsions:
REMARK  status: ('A' for Active; 'I' for Inactive)
REMARK                            x       y       z     vdW  Elec       q    Type
REMARK                         _______ _______ _______ _____ _____    ______ ____
ROOT
ATOM      1 CL   UNL     1      -1.185  11.553  20.326  0.00  0.00    +0.000 Cl
ATOM      2  C   UNL     1      -0.106  10.218  20.184  0.00  0.00    +0.000 A 
ATOM      3  C   UNL     1       0.044   9.329  21.267  0.00  0.00    +0.000 A 
ATOM      4  C   UNL     1       0.914   8.232  21.187  0.00  0.00    +0.000 A 
ATOM      5  C   UNL     1       1.610   8.062  20.008  0.00  0.00    +0.000 A 
ATOM      6  C   UNL     1       1.462   8.958  18.912  0.00  0.00    +0.000 A 
ATOM      7  C   UNL     1       0.602  10.040  18.996  0.00  0.00    +0.000 A 
ATOM      8  C   UNL     1       2.327   8.589  17.701  0.00  0.00    +0.000 C 
ATOM      9  C   UNL     1       2.963   7.375  18.286  0.00  0.00    +0.000 A 
ATOM     10  C   UNL     1       2.558   7.094  19.564  0.00  0.00    +0.000 A 
ATOM     11  N   UNL     1       3.188   5.981  20.004  0.00  0.00    +0.000 N 
ATOM     12  C   UNL     1       4.023   5.523  18.986  0.00  0.00    +0.000 A 
ATOM     13  C   UNL     1       4.882   4.418  18.938  0.00  0.00    +0.000 A 
ATOM     14  C   UNL     1       5.608   4.207  17.758  0.00  0.00    +0.000 A 
ATOM     15  C   UNL     1       5.486   5.066  16.667  0.00  0.00    +0.000 A 
ATOM     16  C   UNL     1       4.629   6.164  16.722  0.00  0.00    +0.000 A 
ATOM     17  C   UNL     1       3.890   6.399  17.893  0.00  0.00    +0.000 A 
ATOM     18  H   UNL     1       3.082   5.543  20.908  0.00  0.00    +0.000 HD
ENDROOT
TORSDOF 0
ENDMDL
MODEL 3
REMARK VINA RESULT:      -7.2      1.374      2.212
REMARK  Name = 
REMARK  0 active torsions:
REMARK  status: ('A' for Active; 'I' for Inactive)
REMARK                            x       y       z     vdW  Elec       q    Type
REMARK                         _______ _______ _______ _____ _____    ______ ____
ROOT
ATOM      1 CL   UNL     1       8.479   5.546  13.324  0.00  0.00    +0.000 Cl
ATOM      2  C   UNL     1       7.145   5.035  14.288  0.00  0.00    +0.000 A 
ATOM      3  C   UNL     1       6.303   4.009  13.819  0.00  0.00    +0.000 A 
ATOM      4  C   UNL     1       5.208   3.569  14.577  0.00  0.00    +0.000 A 
ATOM      5  C   UNL     1       4.996   4.180  15.794  0.00  0.00    +0.000 A 
ATOM      6  C   UNL     1       5.844   5.218  16.272  0.00  0.00    +0.000 A 
ATOM      7  C   UNL     1       6.924   5.649  15.520  0.00  0.00    +0.000 A 
ATOM      8  C   UNL     1       5.431   5.761  17.645  0.00  0.00    +0.000 C 
ATOM      9  C   UNL     1       4.246   4.880  17.848  0.00  0.00    +0.000 A 
ATOM     10  C   UNL     1       4.015   4.010  16.816  0.00  0.00    +0.000 A 
ATOM     11  N   UNL     1       2.925   3.258  17.092  0.00  0.00    +0.000 N 
ATOM     12  C   UNL     1       2.434   3.648  18.338  0.00  0.00    +0.000 A 
ATOM     13  C   UNL     1       1.333   3.185  19.070  0.00  0.00    +0.000 A 
ATOM     14  C   UNL     1       1.082   3.778  20.314  0.00  0.00    +0.000 A 
ATOM     15  C   UNL     1       1.894   4.796  20.811  0.00  0.00    +0.000 A 
ATOM     16  C   UNL     1       2.987   5.252  20.076  0.00  0.00    +0.000 A 
ATOM     17  C   UNL     1       3.261   4.675  18.825  0.00  0.00    +0.000 A 
ATOM     18  H   UNL     1       2.525   2.535  16.511  0.00  0.00    +0.000 HD
ENDROOT
TORSDOF 0
ENDMDL
MODEL 4
REMARK VINA RESULT:      -7.2      4.643      4.926
REMARK  Name = 
REMARK  0 active torsions:
REMARK  status: ('A' for Active; 'I' for Inactive)
REMARK                            x       y       z     vdW  Elec       q    Type
REMARK                         _______ _______ _______ _____ _____    ______ ____
ROOT
ATOM      1 CL   UNL     1       6.213   4.209  16.048  0.00  0.00    +0.000 Cl
ATOM      2  C   UNL     1       5.137   4.952  17.171  0.00  0.00    +0.000 A 
ATOM      3  C   UNL     1       4.891   4.331  18.410  0.00  0.00    +0.000 A 
ATOM      4  C   UNL     1       4.021   4.907  19.348  0.00  0.00    +0.000 A 
ATOM      5  C   UNL     1       3.424   6.102  19.004  0.00  0.00    +0.000 A 
ATOM      6  C   UNL     1       3.670   6.733  17.753  0.00  0.00    +0.000 A 
ATOM      7  C   UNL     1       4.529   6.159  16.830  0.00  0.00    +0.000 A 
ATOM      8  C   UNL     1       2.905   8.049  17.572  0.00  0.00    +0.000 C 
ATOM      9  C   UNL     1       2.213   8.048  18.891  0.00  0.00    +0.000 A 
ATOM     10  C   UNL     1       2.507   6.964  19.675  0.00  0.00    +0.000 A 
ATOM     11  N   UNL     1       1.834   7.054  20.845  0.00  0.00    +0.000 N 
ATOM     12  C   UNL     1       1.083   8.229  20.823  0.00  0.00    +0.000 A 
ATOM     13  C   UNL     1       0.221   8.778  21.781  0.00  0.00    +0.000 A 
ATOM     14  C   UNL     1      -0.406   9.992  21.474  0.00  0.00    +0.000 A 
ATOM     15  C   UNL     1      -0.187  10.636  20.257  0.00  0.00    +0.000 A 
ATOM     16  C   UNL     1       0.672  10.083  19.308  0.00  0.00    +0.000 A 
ATOM     17  C   UNL     1       1.313   8.866  19.591  0.00  0.00    +0.000 A 
ATOM     18  H   UNL     1       1.862   6.397  21.611  0.00  0.00    +0.000 HD
ENDROOT
TORSDOF 0
ENDMDL
MODEL 5
REMARK VINA RESULT:      -7.2      2.464      2.782
REMARK  Name = 
REMARK  0 active torsions:
REMARK  status: ('A' for Active; 'I' for Inactive)
REMARK                            x       y       z     vdW  Elec       q    Type
REMARK                         _______ _______ _______ _____ _____    ______ ____
ROOT
ATOM      1 CL   UNL     1       8.566   9.249  17.427  0.00  0.00    +0.000 Cl
ATOM      2  C   UNL     1       7.642   7.860  17.857  0.00  0.00    +0.000 A 
ATOM      3  C   UNL     1       8.239   6.838  18.619  0.00  0.00    +0.000 A 
ATOM      4  C   UNL     1       7.517   5.693  18.986  0.00  0.00    +0.000 A 
ATOM      5  C   UNL     1       6.204   5.614  18.571  0.00  0.00    +0.000 A 
ATOM      6  C   UNL     1       5.596   6.644  17.799  0.00  0.00    +0.000 A 
ATOM      7  C   UNL     1       6.314   7.772  17.439  0.00  0.00    +0.000 A 
ATOM      8  C   UNL     1       4.134   6.356  17.442  0.00  0.00    +0.000 C 
ATOM      9  C   UNL     1       4.029   5.035  18.122  0.00  0.00    +0.000 A 
ATOM     10  C   UNL     1       5.182   4.634  18.743  0.00  0.00    +0.000 A 
ATOM     11  N   UNL     1       4.987   3.430  19.328  0.00  0.00    +0.000 N 
ATOM     12  C   UNL     1       3.672   3.037  19.083  0.00  0.00    +0.000 A 
ATOM     13  C   UNL     1       2.978   1.882  19.467  0.00  0.00    +0.000 A 
ATOM     14  C   UNL     1       1.641   1.761  19.067  0.00  0.00    +0.000 A 
ATOM     15  C   UNL     1       1.017   2.752  18.310  0.00  0.00    +0.000 A 
ATOM     16  C   UNL     1       1.713   3.899  17.932  0.00  0.00    +0.000 A 
ATOM     17  C   UNL     1       3.056   4.045  18.319  0.00  0.00    +0.000 A 
ATOM     18  H   UNL     1       5.663   2.897  19.855  0.00  0.00    +0.000 HD
ENDROOT
TORSDOF 0
ENDMDL
MODEL 6
REMARK VINA RESULT:      -7.1      4.820      6.622
REMARK  Name = 
REMARK  0 active torsions:
REMARK  status: ('A' for Active; 'I' for Inactive)
REMARK                            x       y       z     vdW  Elec       q    Type
REMARK                         _______ _______ _______ _____ _____    ______ ____
ROOT
ATOM      1 CL   UNL     1      -0.654  10.632  21.027  0.00  0.00    +0.000 Cl
ATOM      2  C   UNL     1       0.421   9.391  20.507  0.00  0.00    +0.000 A 
ATOM      3  C   UNL     1       0.622   8.260  21.322  0.00  0.00    +0.000 A 
ATOM      4  C   UNL     1       1.490   7.231  20.931  0.00  0.00    +0.000 A 
ATOM      5  C   UNL     1       2.133   7.374  19.719  0.00  0.00    +0.000 A 
ATOM      6  C   UNL     1       1.934   8.515  18.892  0.00  0.00    +0.000 A 
ATOM      7  C   UNL     1       1.075   9.528  19.284  0.00  0.00    +0.000 A 
ATOM      8  C   UNL     1       2.745   8.475  17.592  0.00  0.00    +0.000 C 
ATOM      9  C   UNL     1       3.409   7.162  17.823  0.00  0.00    +0.000 A 
ATOM     10  C   UNL     1       3.063   6.562  19.005  0.00  0.00    +0.000 A 
ATOM     11  N   UNL     1       3.715   5.383  19.122  0.00  0.00    +0.000 N 
ATOM     12  C   UNL     1       4.505   5.209  17.986  0.00  0.00    +0.000 A 
ATOM     13  C   UNL     1       5.364   4.163  17.624  0.00  0.00    +0.000 A 
ATOM     14  C   UNL     1       6.037   4.267  16.400  0.00  0.00    +0.000 A 
ATOM     15  C   UNL     1       5.864   5.371  15.567  0.00  0.00    +0.000 A 
ATOM     16  C   UNL     1       5.007   6.408  15.934  0.00  0.00    +0.000 A 
ATOM     17  C   UNL     1       4.321   6.330  17.157  0.00  0.00    +0.000 A 
ATOM     18  H   UNL     1       3.650   4.729  19.889  0.00  0.00    +0.000 HD
ENDROOT
TORSDOF 0
ENDMDL
MODEL 7
REMARK VINA RESULT:      -7.0      5.038      5.996
REMARK  Name = 
REMARK  0 active torsions:
REMARK  status: ('A' for Active; 'I' for Inactive)
REMARK                            x       y       z     vdW  Elec       q    Type
REMARK                         _______ _______ _______ _____ _____    ______ ____
ROOT
ATOM      1 CL   UNL     1       0.545  12.405  18.950  0.00  0.00    +0.000 Cl
ATOM      2  C   UNL     1       0.996  10.776  19.282  0.00  0.00    +0.000 A 
ATOM      3  C   UNL     1       0.765  10.239  20.564  0.00  0.00    +0.000 A 
ATOM      4  C   UNL     1       1.120   8.917  20.869  0.00  0.00    +0.000 A 
ATOM      5  C   UNL     1       1.699   8.170  19.864  0.00  0.00    +0.000 A 
ATOM      6  C   UNL     1       1.935   8.708  18.568  0.00  0.00    +0.000 A 
ATOM      7  C   UNL     1       1.583  10.015  18.272  0.00  0.00    +0.000 A 
ATOM      8  C   UNL     1       2.589   7.712  17.604  0.00  0.00    +0.000 C 
ATOM      9  C   UNL     1       2.676   6.564  18.548  0.00  0.00    +0.000 A 
ATOM     10  C   UNL     1       2.181   6.830  19.798  0.00  0.00    +0.000 A 
ATOM     11  N   UNL     1       2.304   5.732  20.577  0.00  0.00    +0.000 N 
ATOM     12  C   UNL     1       2.893   4.723  19.816  0.00  0.00    +0.000 A 
ATOM     13  C   UNL     1       3.235   3.407  20.153  0.00  0.00    +0.000 A 
ATOM     14  C   UNL     1       3.825   2.612  19.162  0.00  0.00    +0.000 A 
ATOM     15  C   UNL     1       4.069   3.109  17.882  0.00  0.00    +0.000 A 
ATOM     16  C   UNL     1       3.727   4.420  17.554  0.00  0.00    +0.000 A 
ATOM     17  C   UNL     1       3.135   5.238  18.530  0.00  0.00    +0.000 A 
ATOM     18  H   UNL     1       2.022   5.640  21.543  0.00  0.00    +0.000 HD
ENDROOT
TORSDOF 0
ENDMDL
MODEL 8
REMARK VINA RESULT:      -7.0      4.904      5.901
REMARK  Name = 
REMARK  0 active torsions:
REMARK  status: ('A' for Active; 'I' for Inactive)
REMARK                            x       y       z     vdW  Elec       q    Type
REMARK                         _______ _______ _______ _____ _____    ______ ____
ROOT
ATOM      1 CL   UNL     1       3.700   1.358  18.580  0.00  0.00    +0.000 Cl
ATOM      2  C   UNL     1       3.161   2.901  19.127  0.00  0.00    +0.000 A 
ATOM      3  C   UNL     1       2.747   3.057  20.463  0.00  0.00    +0.000 A 
ATOM      4  C   UNL     1       2.302   4.299  20.942  0.00  0.00    +0.000 A 
ATOM      5  C   UNL     1       2.289   5.351  20.051  0.00  0.00    +0.000 A 
ATOM      6  C   UNL     1       2.706   5.197  18.699  0.00  0.00    +0.000 A 
ATOM      7  C   UNL     1       3.145   3.970  18.232  0.00  0.00    +0.000 A 
ATOM      8  C   UNL     1       2.611   6.490  17.880  0.00  0.00    +0.000 C 
ATOM      9  C   UNL     1       2.088   7.364  18.967  0.00  0.00    +0.000 A 
ATOM     10  C   UNL     1       1.913   6.722  20.165  0.00  0.00    +0.000 A 
ATOM     11  N   UNL     1       1.438   7.595  21.082  0.00  0.00    +0.000 N 
ATOM     12  C   UNL     1       1.302   8.839  20.466  0.00  0.00    +0.000 A 
ATOM     13  C   UNL     1       0.853  10.065  20.976  0.00  0.00    +0.000 A 
ATOM     14  C   UNL     1       0.825  11.161  20.105  0.00  0.00    +0.000 A 
ATOM     15  C   UNL     1       1.226  11.044  18.776  0.00  0.00    +0.000 A 
ATOM     16  C   UNL     1       1.672   9.821  18.276  0.00  0.00    +0.000 A 
ATOM     17  C   UNL     1       1.709   8.705  19.127  0.00  0.00    +0.000 A 
ATOM     18  H   UNL     1       1.218   7.399  22.048  0.00  0.00    +0.000 HD
ENDROOT
TORSDOF 0
ENDMDL
MODEL 9
REMARK VINA RESULT:      -6.9      5.023      5.945
REMARK  Name = 
REMARK  0 active torsions:
REMARK  status: ('A' for Active; 'I' for Inactive)
REMARK                            x       y       z     vdW  Elec       q    Type
REMARK                         _______ _______ _______ _____ _____    ______ ____
ROOT
ATOM      1 CL   UNL     1       0.488  12.331  19.425  0.00  0.00    +0.000 Cl
ATOM      2  C   UNL     1       1.085  10.726  19.238  0.00  0.00    +0.000 A 
ATOM      3  C   UNL     1       1.771  10.374  18.059  0.00  0.00    +0.000 A 
ATOM      4  C   UNL     1       2.270   9.076  17.873  0.00  0.00    +0.000 A 
ATOM      5  C   UNL     1       2.062   8.168  18.889  0.00  0.00    +0.000 A 
ATOM      6  C   UNL     1       1.369   8.518  20.081  0.00  0.00    +0.000 A 
ATOM      7  C   UNL     1       0.878   9.801  20.260  0.00  0.00    +0.000 A 
ATOM      8  C   UNL     1       1.246   7.361  21.079  0.00  0.00    +0.000 C 
ATOM      9  C   UNL     1       1.964   6.337  20.270  0.00  0.00    +0.000 A 
ATOM     10  C   UNL     1       2.410   6.795  19.058  0.00  0.00    +0.000 A 
ATOM     11  N   UNL     1       3.045   5.797  18.402  0.00  0.00    +0.000 N 
ATOM     12  C   UNL     1       3.013   4.660  19.208  0.00  0.00    +0.000 A 
ATOM     13  C   UNL     1       3.525   3.373  18.991  0.00  0.00    +0.000 A 
ATOM     14  C   UNL     1       3.337   2.419  19.998  0.00  0.00    +0.000 A 
ATOM     15  C   UNL     1       2.662   2.730  21.178  0.00  0.00    +0.000 A 
ATOM     16  C   UNL     1       2.156   4.012  21.387  0.00  0.00    +0.000 A 
ATOM     17  C   UNL     1       2.330   4.988  20.392  0.00  0.00    +0.000 A 
ATOM     18  H   UNL     1       3.475   5.850  17.490  0.00  0.00    +0.000 HD
ENDROOT
TORSDOF 0
ENDMDL
