MODEL 1
REMARK VINA RESULT:      -7.8      0.000      0.000
REMARK  Name = 
REMARK  4 active torsions:
REMARK  status: ('A' for Active; 'I' for Inactive)
REMARK    1  A    between atoms: C_7  and  C_8
REMARK    2  A    between atoms: N_10  and  C_11
REMARK    3  A    between atoms: C_11  and  C_12
REMARK    4  A    between atoms: C_17  and  N_18
REMARK                            x       y       z     vdW  Elec       q    Type
REMARK                         _______ _______ _______ _____ _____    ______ ____
ROOT
ATOM      1  C   UNL     1       2.066   8.299  18.616  0.00  0.00    +0.000 C 
ATOM      2  O   UNL     1       1.931   8.748  17.482  0.00  0.00    +0.000 OA
ATOM      3  N   UNL     1       2.751   7.132  18.892  0.00  0.00    +0.000 N 
ATOM      4  H   UNL     1       2.632   6.694  19.797  0.00  0.00    +0.000 HD
ENDROOT
BRANCH   1  11
ATOM      5  N   UNL     1      -1.760  12.797  23.260  0.00  0.00    +0.000 N 
ATOM      6  C   UNL     1      -1.012  11.963  22.521  0.00  0.00    +0.000 A 
ATOM      7  N   UNL     1      -0.496  10.857  22.994  0.00  0.00    +0.000 NA
ATOM      8  C   UNL     1       0.181  10.182  21.996  0.00  0.00    +0.000 A 
ATOM      9  C   UNL     1       0.819   8.932  22.126  0.00  0.00    +0.000 A 
ATOM     10  C   UNL     1       1.435   8.348  21.012  0.00  0.00    +0.000 A 
ATOM     11  C   UNL     1       1.445   8.999  19.775  0.00  0.00    +0.000 A 
ATOM     12  C   UNL     1       0.830  10.252  19.626  0.00  0.00    +0.000 A 
ATOM     13  C   UNL     1       0.198  10.816  20.751  0.00  0.00    +0.000 A 
ATOM     14  S   UNL     1      -0.665  12.300  20.877  0.00  0.00    +0.000 S 
ATOM     15  H   UNL     1      -1.729  12.668  24.265  0.00  0.00    +0.000 HD
ATOM     16  H   UNL     1      -1.889  13.751  22.950  0.00  0.00    +0.000 HD
ENDBRANCH   1  11
BRANCH   3  17
ATOM     17  C   UNL     1       3.331   6.336  17.829  0.00  0.00    +0.000 C 
BRANCH  17  18
ATOM     18  C   UNL     1       3.008   4.867  17.957  0.00  0.00    +0.000 A 
ATOM     19  C   UNL     1       1.665   4.466  18.067  0.00  0.00    +0.000 A 
ATOM     20  C   UNL     1       1.322   3.115  18.201  0.00  0.00    +0.000 A 
ATOM     21  C   UNL     1       2.309   2.131  18.216  0.00  0.00    +0.000 A 
ATOM     22  C   UNL     1       3.647   2.494  18.098  0.00  0.00    +0.000 A 
ATOM     23  C   UNL     1       3.981   3.852  17.976  0.00  0.00    +0.000 A 
BRANCH  23  24
ATOM     24  N   UNL     1       5.392   4.182  17.871  0.00  0.00    +0.000 N 
ATOM     25  O   UNL     1       5.872   4.274  16.734  0.00  0.00    +0.000 OA
ATOM     26  O   UNL     1       6.015   4.351  18.927  0.00  0.00    +0.000 OA
ENDBRANCH  23  24
ENDBRANCH  17  18
ENDBRANCH   3  17
TORSDOF 4
ENDMDL
MODEL 2
REMARK VINA RESULT:      -7.8      1.449      1.518
REMARK  Name = 
REMARK  4 active torsions:
REMARK  status: ('A' for Active; 'I' for Inactive)
REMARK    1  A    between atoms: C_7  and  C_8
REMARK    2  A    between atoms: N_10  and  C_11
REMARK    3  A    between atoms: C_11  and  C_12
REMARK    4  A    between atoms: C_17  and  N_18
REMARK                            x       y       z     vdW  Elec       q    Type
REMARK                         _______ _______ _______ _____ _____    ______ ____
ROOT
ATOM      1  C   UNL     1       1.664   8.424  19.844  0.00  0.00    +0.000 C 
ATOM      2  O   UNL     1       1.835   8.781  18.683  0.00  0.00    +0.000 OA
ATOM      3  N   UNL     1       2.182   7.253  20.360  0.00  0.00    +0.000 N 
ATOM      4  H   UNL     1       1.821   6.900  21.238  0.00  0.00    +0.000 HD
ENDROOT
BRANCH   1  11
ATOM      5  N   UNL     1      -3.207  13.161  23.049  0.00  0.00    +0.000 N 
ATOM      6  C   UNL     1      -2.279  12.314  22.577  0.00  0.00    +0.000 A 
ATOM      7  N   UNL     1      -1.672  11.429  23.325  0.00  0.00    +0.000 NA
ATOM      8  C   UNL     1      -0.808  10.670  22.559  0.00  0.00    +0.000 A 
ATOM      9  C   UNL     1      -0.025   9.591  23.016  0.00  0.00    +0.000 A 
ATOM     10  C   UNL     1       0.780   8.885  22.113  0.00  0.00    +0.000 A 
ATOM     11  C   UNL     1       0.834   9.251  20.765  0.00  0.00    +0.000 A 
ATOM     12  C   UNL     1       0.076  10.332  20.290  0.00  0.00    +0.000 A 
ATOM     13  C   UNL     1      -0.743  11.018  21.207  0.00  0.00    +0.000 A 
ATOM     14  S   UNL     1      -1.807  12.343  20.929  0.00  0.00    +0.000 S 
ATOM     15  H   UNL     1      -3.267  13.255  24.057  0.00  0.00    +0.000 HD
ATOM     16  H   UNL     1      -3.430  13.995  22.522  0.00  0.00    +0.000 HD
ENDBRANCH   1  11
BRANCH   3  17
ATOM     17  C   UNL     1       2.942   6.341  19.530  0.00  0.00    +0.000 C 
BRANCH  17  18
ATOM     18  C   UNL     1       2.566   4.897  19.753  0.00  0.00    +0.000 A 
ATOM     19  C   UNL     1       1.373   4.595  20.431  0.00  0.00    +0.000 A 
ATOM     20  C   UNL     1       0.992   3.269  20.671  0.00  0.00    +0.000 A 
ATOM     21  C   UNL     1       1.785   2.212  20.227  0.00  0.00    +0.000 A 
ATOM     22  C   UNL     1       2.967   2.477  19.542  0.00  0.00    +0.000 A 
ATOM     23  C   UNL     1       3.346   3.810  19.317  0.00  0.00    +0.000 A 
BRANCH  23  24
ATOM     24  N   UNL     1       4.595   4.036  18.612  0.00  0.00    +0.000 N 
ATOM     25  O   UNL     1       4.536   4.188  17.385  0.00  0.00    +0.000 OA
ATOM     26  O   UNL     1       5.632   4.063  19.288  0.00  0.00    +0.000 OA
ENDBRANCH  23  24
ENDBRANCH  17  18
ENDBRANCH   3  17
TORSDOF 4
ENDMDL
MODEL 3
REMARK VINA RESULT:      -7.7      2.441      3.346
REMARK  Name = 
REMARK  4 active torsions:
REMARK  status: ('A' for Active; 'I' for Inactive)
REMARK    1  A    between atoms: C_7  and  C_8
REMARK    2  A    between atoms: N_10  and  C_11
REMARK    3  A    between atoms: C_11  and  C_12
REMARK    4  A    between atoms: C_17  and  N_18
REMARK                            x       y       z     vdW  Elec       q    Type
REMARK                         _______ _______ _______ _____ _____    ______ ____
ROOT
ATOM      1  C   UNL     1       2.773   6.076  18.484  0.00  0.00    +0.000 C 
ATOM      2  O   UNL     1       2.105   5.193  17.954  0.00  0.00    +0.000 OA
ATOM      3  N   UNL     1       4.105   5.923  18.814  0.00  0.00    +0.000 N 
ATOM      4  H   UNL     1       4.534   6.585  19.449  0.00  0.00    +0.000 HD
ENDROOT
BRANCH   1  11
ATOM      5  N   UNL     1      -0.132  12.135  21.844  0.00  0.00    +0.000 N 
ATOM      6  C   UNL     1       0.331  11.085  21.148  0.00  0.00    +0.000 A 
ATOM      7  N   UNL     1       0.579  11.132  19.864  0.00  0.00    +0.000 NA
ATOM      8  C   UNL     1       1.088   9.921  19.434  0.00  0.00    +0.000 A 
ATOM      9  C   UNL     1       1.515   9.621  18.124  0.00  0.00    +0.000 A 
ATOM     10  C   UNL     1       2.049   8.357  17.840  0.00  0.00    +0.000 A 
ATOM     11  C   UNL     1       2.143   7.380  18.835  0.00  0.00    +0.000 A 
ATOM     12  C   UNL     1       1.709   7.651  20.142  0.00  0.00    +0.000 A 
ATOM     13  C   UNL     1       1.193   8.933  20.415  0.00  0.00    +0.000 A 
ATOM     14  S   UNL     1       0.624   9.576  21.907  0.00  0.00    +0.000 S 
ATOM     15  H   UNL     1      -0.504  12.910  21.307  0.00  0.00    +0.000 HD
ATOM     16  H   UNL     1      -0.572  11.979  22.741  0.00  0.00    +0.000 HD
ENDBRANCH   1  11
BRANCH   3  17
ATOM     17  C   UNL     1       4.794   4.670  18.582  0.00  0.00    +0.000 C 
BRANCH  17  18
ATOM     18  C   UNL     1       5.511   4.637  17.254  0.00  0.00    +0.000 A 
ATOM     19  C   UNL     1       4.839   4.145  16.122  0.00  0.00    +0.000 A 
ATOM     20  C   UNL     1       5.471   4.084  14.874  0.00  0.00    +0.000 A 
ATOM     21  C   UNL     1       6.785   4.525  14.723  0.00  0.00    +0.000 A 
ATOM     22  C   UNL     1       7.474   5.029  15.822  0.00  0.00    +0.000 A 
ATOM     23  C   UNL     1       6.836   5.075  17.071  0.00  0.00    +0.000 A 
BRANCH  23  24
ATOM     24  N   UNL     1       7.601   5.593  18.190  0.00  0.00    +0.000 N 
ATOM     25  O   UNL     1       7.719   6.823  18.278  0.00  0.00    +0.000 OA
ATOM     26  O   UNL     1       8.082   4.770  18.980  0.00  0.00    +0.000 OA
ENDBRANCH  23  24
ENDBRANCH  17  18
ENDBRANCH   3  17
TORSDOF 4
ENDMDL
MODEL 4
REMARK VINA RESULT:      -7.7      2.678      3.820
REMARK  Name = 
REMARK  4 active torsions:
REMARK  status: ('A' for Active; 'I' for Inactive)
REMARK    1  A    between atoms: C_7  and  C_8
REMARK    2  A    between atoms: N_10  and  C_11
REMARK    3  A    between atoms: C_11  and  C_12
REMARK    4  A    between atoms: C_17  and  N_18
REMARK                            x       y       z     vdW  Elec       q    Type
REMARK                         _______ _______ _______ _____ _____    ______ ____
ROOT
ATOM      1  C   UNL     1       3.712   5.814  18.738  0.00  0.00    +0.000 C 
ATOM      2  O   UNL     1       4.469   5.508  19.654  0.00  0.00    +0.000 OA
ATOM      3  N   UNL     1       3.659   5.131  17.539  0.00  0.00    +0.000 N 
ATOM      4  H   UNL     1       3.195   5.560  16.748  0.00  0.00    +0.000 HD
ENDROOT
BRANCH   1  11
ATOM      5  N   UNL     1      -0.756  11.386  21.068  0.00  0.00    +0.000 N 
ATOM      6  C   UNL     1       0.000  10.408  20.545  0.00  0.00    +0.000 A 
ATOM      7  N   UNL     1       0.470  10.443  19.325  0.00  0.00    +0.000 NA
ATOM      8  C   UNL     1       1.250   9.327  19.083  0.00  0.00    +0.000 A 
ATOM      9  C   UNL     1       1.957   9.052  17.896  0.00  0.00    +0.000 A 
ATOM     10  C   UNL     1       2.741   7.895  17.806  0.00  0.00    +0.000 A 
ATOM     11  C   UNL     1       2.814   6.996  18.873  0.00  0.00    +0.000 A 
ATOM     12  C   UNL     1       2.106   7.240  20.060  0.00  0.00    +0.000 A 
ATOM     13  C   UNL     1       1.338   8.418  20.140  0.00  0.00    +0.000 A 
ATOM     14  S   UNL     1       0.401   9.012  21.456  0.00  0.00    +0.000 S 
ATOM     15  H   UNL     1      -1.148  12.056  20.417  0.00  0.00    +0.000 HD
ATOM     16  H   UNL     1      -1.322  11.192  21.884  0.00  0.00    +0.000 HD
ENDBRANCH   1  11
BRANCH   3  17
ATOM     17  C   UNL     1       4.540   4.011  17.277  0.00  0.00    +0.000 C 
BRANCH  17  18
ATOM     18  C   UNL     1       5.461   4.255  16.106  0.00  0.00    +0.000 A 
ATOM     19  C   UNL     1       5.048   3.880  14.817  0.00  0.00    +0.000 A 
ATOM     20  C   UNL     1       5.876   4.077  13.705  0.00  0.00    +0.000 A 
ATOM     21  C   UNL     1       7.132   4.665  13.852  0.00  0.00    +0.000 A 
ATOM     22  C   UNL     1       7.566   5.059  15.114  0.00  0.00    +0.000 A 
ATOM     23  C   UNL     1       6.733   4.846  16.223  0.00  0.00    +0.000 A 
BRANCH  23  24
ATOM     24  N   UNL     1       7.237   5.259  17.521  0.00  0.00    +0.000 N 
ATOM     25  O   UNL     1       7.811   4.404  18.208  0.00  0.00    +0.000 OA
ATOM     26  O   UNL     1       7.059   6.440  17.850  0.00  0.00    +0.000 OA
ENDBRANCH  23  24
ENDBRANCH  17  18
ENDBRANCH   3  17
TORSDOF 4
ENDMDL
MODEL 5
REMARK VINA RESULT:      -7.7      2.208      3.226
REMARK  Name = 
REMARK  4 active torsions:
REMARK  status: ('A' for Active; 'I' for Inactive)
REMARK    1  A    between atoms: C_7  and  C_8
REMARK    2  A    between atoms: N_10  and  C_11
REMARK    3  A    between atoms: C_11  and  C_12
REMARK    4  A    between atoms: C_17  and  N_18
REMARK                            x       y       z     vdW  Elec       q    Type
REMARK                         _______ _______ _______ _____ _____    ______ ____
ROOT
ATOM      1  C   UNL     1       2.635   6.122  19.081  0.00  0.00    +0.000 C 
ATOM      2  O   UNL     1       2.985   5.510  20.085  0.00  0.00    +0.000 OA
ATOM      3  N   UNL     1       2.781   5.626  17.801  0.00  0.00    +0.000 N 
ATOM      4  H   UNL     1       2.693   6.259  17.015  0.00  0.00    +0.000 HD
ENDROOT
BRANCH   1  11
ATOM      5  N   UNL     1      -0.204  12.691  21.371  0.00  0.00    +0.000 N 
ATOM      6  C   UNL     1       0.257  11.539  20.858  0.00  0.00    +0.000 A 
ATOM      7  N   UNL     1       0.613  11.406  19.606  0.00  0.00    +0.000 NA
ATOM      8  C   UNL     1       1.090  10.129  19.380  0.00  0.00    +0.000 A 
ATOM      9  C   UNL     1       1.607   9.641  18.163  0.00  0.00    +0.000 A 
ATOM     10  C   UNL     1       2.093   8.329  18.091  0.00  0.00    +0.000 A 
ATOM     11  C   UNL     1       2.050   7.487  19.206  0.00  0.00    +0.000 A 
ATOM     12  C   UNL     1       1.524   7.946  20.424  0.00  0.00    +0.000 A 
ATOM     13  C   UNL     1       1.058   9.274  20.484  0.00  0.00    +0.000 A 
ATOM     14  S   UNL     1       0.403  10.131  21.825  0.00  0.00    +0.000 S 
ATOM     15  H   UNL     1      -0.487  13.403  20.708  0.00  0.00    +0.000 HD
ATOM     16  H   UNL     1      -0.726  12.672  22.237  0.00  0.00    +0.000 HD
ENDBRANCH   1  11
BRANCH   3  17
ATOM     17  C   UNL     1       3.404   4.340  17.564  0.00  0.00    +0.000 C 
BRANCH  17  18
ATOM     18  C   UNL     1       4.761   4.460  16.915  0.00  0.00    +0.000 A 
ATOM     19  C   UNL     1       4.848   4.547  15.515  0.00  0.00    +0.000 A 
ATOM     20  C   UNL     1       6.087   4.646  14.870  0.00  0.00    +0.000 A 
ATOM     21  C   UNL     1       7.269   4.675  15.609  0.00  0.00    +0.000 A 
ATOM     22  C   UNL     1       7.217   4.604  16.998  0.00  0.00    +0.000 A 
ATOM     23  C   UNL     1       5.971   4.492  17.633  0.00  0.00    +0.000 A 
BRANCH  23  24
ATOM     24  N   UNL     1       5.969   4.404  19.082  0.00  0.00    +0.000 N 
ATOM     25  O   UNL     1       6.461   5.351  19.710  0.00  0.00    +0.000 OA
ATOM     26  O   UNL     1       5.475   3.389  19.589  0.00  0.00    +0.000 OA
ENDBRANCH  23  24
ENDBRANCH  17  18
ENDBRANCH   3  17
TORSDOF 4
ENDMDL
MODEL 6
REMARK VINA RESULT:      -7.6      1.032      1.496
REMARK  Name = 
REMARK  4 active torsions:
REMARK  status: ('A' for Active; 'I' for Inactive)
REMARK    1  A    between atoms: C_7  and  C_8
REMARK    2  A    between atoms: N_10  and  C_11
REMARK    3  A    between atoms: C_11  and  C_12
REMARK    4  A    between atoms: C_17  and  N_18
REMARK                            x       y       z     vdW  Elec       q    Type
REMARK                         _______ _______ _______ _____ _____    ______ ____
ROOT
ATOM      1  C   UNL     1       2.226   8.460  18.239  0.00  0.00    +0.000 C 
ATOM      2  O   UNL     1       2.586   8.858  17.136  0.00  0.00    +0.000 OA
ATOM      3  N   UNL     1       2.687   7.291  18.810  0.00  0.00    +0.000 N 
ATOM      4  H   UNL     1       2.190   6.899  19.601  0.00  0.00    +0.000 HD
ENDROOT
BRANCH   1  11
ATOM      5  N   UNL     1      -1.996  11.768  23.500  0.00  0.00    +0.000 N 
ATOM      6  C   UNL     1      -1.330  11.194  22.486  0.00  0.00    +0.000 A 
ATOM      7  N   UNL     1      -1.468  11.565  21.239  0.00  0.00    +0.000 NA
ATOM      8  C   UNL     1      -0.623  10.831  20.428  0.00  0.00    +0.000 A 
ATOM      9  C   UNL     1      -0.464  10.991  19.037  0.00  0.00    +0.000 A 
ATOM     10  C   UNL     1       0.462  10.197  18.347  0.00  0.00    +0.000 A 
ATOM     11  C   UNL     1       1.217   9.231  19.019  0.00  0.00    +0.000 A 
ATOM     12  C   UNL     1       1.064   9.043  20.401  0.00  0.00    +0.000 A 
ATOM     13  C   UNL     1       0.143   9.863  21.082  0.00  0.00    +0.000 A 
ATOM     14  S   UNL     1      -0.237   9.902  22.760  0.00  0.00    +0.000 S 
ATOM     15  H   UNL     1      -2.788  12.351  23.252  0.00  0.00    +0.000 HD
ATOM     16  H   UNL     1      -2.080  11.275  24.379  0.00  0.00    +0.000 HD
ENDBRANCH   1  11
BRANCH   3  17
ATOM     17  C   UNL     1       3.616   6.430  18.106  0.00  0.00    +0.000 C 
BRANCH  17  18
ATOM     18  C   UNL     1       3.166   4.990  18.072  0.00  0.00    +0.000 A 
ATOM     19  C   UNL     1       1.795   4.696  18.171  0.00  0.00    +0.000 A 
ATOM     20  C   UNL     1       1.335   3.374  18.157  0.00  0.00    +0.000 A 
ATOM     21  C   UNL     1       2.231   2.313  18.031  0.00  0.00    +0.000 A 
ATOM     22  C   UNL     1       3.594   2.571  17.920  0.00  0.00    +0.000 A 
ATOM     23  C   UNL     1       4.045   3.899  17.946  0.00  0.00    +0.000 A 
BRANCH  23  24
ATOM     24  N   UNL     1       5.477   4.116  17.843  0.00  0.00    +0.000 N 
ATOM     25  O   UNL     1       5.961   4.194  16.705  0.00  0.00    +0.000 OA
ATOM     26  O   UNL     1       6.115   4.211  18.899  0.00  0.00    +0.000 OA
ENDBRANCH  23  24
ENDBRANCH  17  18
ENDBRANCH   3  17
TORSDOF 4
ENDMDL
MODEL 7
REMARK VINA RESULT:      -7.6      3.229      8.308
REMARK  Name = 
REMARK  4 active torsions:
REMARK  status: ('A' for Active; 'I' for Inactive)
REMARK    1  A    between atoms: C_7  and  C_8
REMARK    2  A    between atoms: N_10  and  C_11
REMARK    3  A    between atoms: C_11  and  C_12
REMARK    4  A    between atoms: C_17  and  N_18
REMARK                            x       y       z     vdW  Elec       q    Type
REMARK                         _______ _______ _______ _____ _____    ______ ____
ROOT
ATOM      1  C   UNL     1       2.030   8.490  18.260  0.00  0.00    +0.000 C 
ATOM      2  O   UNL     1       1.997   9.067  17.178  0.00  0.00    +0.000 OA
ATOM      3  N   UNL     1       1.339   8.925  19.373  0.00  0.00    +0.000 N 
ATOM      4  H   UNL     1       1.584   8.552  20.282  0.00  0.00    +0.000 HD
ENDROOT
BRANCH   1  11
ATOM      5  N   UNL     1       4.911   1.744  19.884  0.00  0.00    +0.000 N 
ATOM      6  C   UNL     1       4.505   2.986  19.579  0.00  0.00    +0.000 A 
ATOM      7  N   UNL     1       5.142   3.759  18.737  0.00  0.00    +0.000 NA
ATOM      8  C   UNL     1       4.466   4.956  18.586  0.00  0.00    +0.000 A 
ATOM      9  C   UNL     1       4.830   6.009  17.723  0.00  0.00    +0.000 A 
ATOM     10  C   UNL     1       4.025   7.153  17.646  0.00  0.00    +0.000 A 
ATOM     11  C   UNL     1       2.875   7.274  18.431  0.00  0.00    +0.000 A 
ATOM     12  C   UNL     1       2.502   6.245  19.310  0.00  0.00    +0.000 A 
ATOM     13  C   UNL     1       3.312   5.093  19.361  0.00  0.00    +0.000 A 
ATOM     14  S   UNL     1       3.102   3.663  20.295  0.00  0.00    +0.000 S 
ATOM     15  H   UNL     1       5.857   1.496  19.618  0.00  0.00    +0.000 HD
ATOM     16  H   UNL     1       4.570   1.305  20.729  0.00  0.00    +0.000 HD
ENDBRANCH   1  11
BRANCH   3  17
ATOM     17  C   UNL     1       0.545  10.136  19.334  0.00  0.00    +0.000 C 
BRANCH  17  18
ATOM     18  C   UNL     1      -0.110  10.447  20.658  0.00  0.00    +0.000 A 
ATOM     19  C   UNL     1       0.136   9.610  21.759  0.00  0.00    +0.000 A 
ATOM     20  C   UNL     1      -0.462   9.853  23.002  0.00  0.00    +0.000 A 
ATOM     21  C   UNL     1      -1.310  10.946  23.178  0.00  0.00    +0.000 A 
ATOM     22  C   UNL     1      -1.565  11.801  22.110  0.00  0.00    +0.000 A 
ATOM     23  C   UNL     1      -0.970  11.541  20.866  0.00  0.00    +0.000 A 
BRANCH  23  24
ATOM     24  N   UNL     1      -1.279  12.452  19.778  0.00  0.00    +0.000 N 
ATOM     25  O   UNL     1      -0.541  13.435  19.632  0.00  0.00    +0.000 OA
ATOM     26  O   UNL     1      -2.259  12.180  19.071  0.00  0.00    +0.000 OA
ENDBRANCH  23  24
ENDBRANCH  17  18
ENDBRANCH   3  17
TORSDOF 4
ENDMDL
MODEL 8
REMARK VINA RESULT:      -7.6      2.101      2.348
REMARK  Name = 
REMARK  4 active torsions:
REMARK  status: ('A' for Active; 'I' for Inactive)
REMARK    1  A    between atoms: C_7  and  C_8
REMARK    2  A    between atoms: N_10  and  C_11
REMARK    3  A    between atoms: C_11  and  C_12
REMARK    4  A    between atoms: C_17  and  N_18
REMARK                            x       y       z     vdW  Elec       q    Type
REMARK                         _______ _______ _______ _____ _____    ______ ____
ROOT
ATOM      1  C   UNL     1       2.009   8.570  18.461  0.00  0.00    +0.000 C 
ATOM      2  O   UNL     1       2.595   8.768  17.401  0.00  0.00    +0.000 OA
ATOM      3  N   UNL     1       2.238   7.467  19.259  0.00  0.00    +0.000 N 
ATOM      4  H   UNL     1       1.572   7.240  19.988  0.00  0.00    +0.000 HD
ENDROOT
BRANCH   1  11
ATOM      5  N   UNL     1      -4.068  12.883  19.423  0.00  0.00    +0.000 N 
ATOM      6  C   UNL     1      -2.927  12.182  19.325  0.00  0.00    +0.000 A 
ATOM      7  N   UNL     1      -2.087  12.043  20.319  0.00  0.00    +0.000 NA
ATOM      8  C   UNL     1      -1.032  11.233  19.940  0.00  0.00    +0.000 A 
ATOM      9  C   UNL     1       0.036  10.824  20.764  0.00  0.00    +0.000 A 
ATOM     10  C   UNL     1       1.018   9.967  20.253  0.00  0.00    +0.000 A 
ATOM     11  C   UNL     1       0.966   9.528  18.927  0.00  0.00    +0.000 A 
ATOM     12  C   UNL     1      -0.079   9.935  18.083  0.00  0.00    +0.000 A 
ATOM     13  C   UNL     1      -1.069  10.781  18.619  0.00  0.00    +0.000 A 
ATOM     14  S   UNL     1      -2.479  11.414  17.860  0.00  0.00    +0.000 S 
ATOM     15  H   UNL     1      -4.157  13.498  20.223  0.00  0.00    +0.000 HD
ATOM     16  H   UNL     1      -4.527  13.199  18.579  0.00  0.00    +0.000 HD
ENDBRANCH   1  11
BRANCH   3  17
ATOM     17  C   UNL     1       3.178   6.440  18.862  0.00  0.00    +0.000 C 
BRANCH  17  18
ATOM     18  C   UNL     1       2.902   5.110  19.521  0.00  0.00    +0.000 A 
ATOM     19  C   UNL     1       1.738   4.955  20.294  0.00  0.00    +0.000 A 
ATOM     20  C   UNL     1       1.449   3.743  20.933  0.00  0.00    +0.000 A 
ATOM     21  C   UNL     1       2.308   2.652  20.804  0.00  0.00    +0.000 A 
ATOM     22  C   UNL     1       3.462   2.769  20.036  0.00  0.00    +0.000 A 
ATOM     23  C   UNL     1       3.748   3.992  19.410  0.00  0.00    +0.000 A 
BRANCH  23  24
ATOM     24  N   UNL     1       4.972   4.070  18.632  0.00  0.00    +0.000 N 
ATOM     25  O   UNL     1       6.018   4.336  19.241  0.00  0.00    +0.000 OA
ATOM     26  O   UNL     1       4.886   3.862  17.415  0.00  0.00    +0.000 OA
ENDBRANCH  23  24
ENDBRANCH  17  18
ENDBRANCH   3  17
TORSDOF 4
ENDMDL
MODEL 9
REMARK VINA RESULT:      -7.5      2.071      2.303
REMARK  Name = 
REMARK  4 active torsions:
REMARK  status: ('A' for Active; 'I' for Inactive)
REMARK    1  A    between atoms: C_7  and  C_8
REMARK    2  A    between atoms: N_10  and  C_11
REMARK    3  A    between atoms: C_11  and  C_12
REMARK    4  A    between atoms: C_17  and  N_18
REMARK                            x       y       z     vdW  Elec       q    Type
REMARK                         _______ _______ _______ _____ _____    ______ ____
ROOT
ATOM      1  C   UNL     1       1.506   8.494  19.900  0.00  0.00    +0.000 C 
ATOM      2  O   UNL     1       1.666   8.823  18.729  0.00  0.00    +0.000 OA
ATOM      3  N   UNL     1       1.931   7.284  20.412  0.00  0.00    +0.000 N 
ATOM      4  H   UNL     1       1.571   6.975  21.306  0.00  0.00    +0.000 HD
ENDROOT
BRANCH   1  11
ATOM      5  N   UNL     1      -2.487  13.923  23.220  0.00  0.00    +0.000 N 
ATOM      6  C   UNL     1      -1.728  12.930  22.731  0.00  0.00    +0.000 A 
ATOM      7  N   UNL     1      -1.419  11.861  23.420  0.00  0.00    +0.000 NA
ATOM      8  C   UNL     1      -0.672  10.995  22.644  0.00  0.00    +0.000 A 
ATOM      9  C   UNL     1      -0.205   9.724  23.036  0.00  0.00    +0.000 A 
ATOM     10  C   UNL     1       0.512   8.936  22.127  0.00  0.00    +0.000 A 
ATOM     11  C   UNL     1       0.790   9.403  20.839  0.00  0.00    +0.000 A 
ATOM     12  C   UNL     1       0.349  10.671  20.431  0.00  0.00    +0.000 A 
ATOM     13  C   UNL     1      -0.387  11.443  21.352  0.00  0.00    +0.000 A 
ATOM     14  S   UNL     1      -1.090  13.000  21.142  0.00  0.00    +0.000 S 
ATOM     15  H   UNL     1      -2.631  13.934  24.224  0.00  0.00    +0.000 HD
ATOM     16  H   UNL     1      -2.459  14.831  22.776  0.00  0.00    +0.000 HD
ENDBRANCH   1  11
BRANCH   3  17
ATOM     17  C   UNL     1       2.573   6.299  19.567  0.00  0.00    +0.000 C 
BRANCH  17  18
ATOM     18  C   UNL     1       2.260   4.882  19.983  0.00  0.00    +0.000 A 
ATOM     19  C   UNL     1       2.215   4.561  21.350  0.00  0.00    +0.000 A 
ATOM     20  C   UNL     1       1.942   3.257  21.780  0.00  0.00    +0.000 A 
ATOM     21  C   UNL     1       1.695   2.244  20.855  0.00  0.00    +0.000 A 
ATOM     22  C   UNL     1       1.721   2.530  19.494  0.00  0.00    +0.000 A 
ATOM     23  C   UNL     1       2.007   3.838  19.074  0.00  0.00    +0.000 A 
BRANCH  23  24
ATOM     24  N   UNL     1       2.039   4.085  17.643  0.00  0.00    +0.000 N 
ATOM     25  O   UNL     1       3.148   4.100  17.092  0.00  0.00    +0.000 OA
ATOM     26  O   UNL     1       0.954   4.260  17.073  0.00  0.00    +0.000 OA
ENDBRANCH  23  24
ENDBRANCH  17  18
ENDBRANCH   3  17
TORSDOF 4
ENDMDL
