MODEL 1
REMARK VINA RESULT:      -8.2      0.000      0.000
REMARK  Name = 
REMARK  6 active torsions:
REMARK  status: ('A' for Active; 'I' for Inactive)
REMARK    1  A    between atoms: C_1  and  N_2
REMARK    2  A    between atoms: C_5  and  O_6
REMARK    3  A    between atoms: C_5  and  C_7
REMARK    4  A    between atoms: C_8  and  C_9
REMARK    5  A    between atoms: C_18  and  O_19
REMARK    6  A    between atoms: C_22  and  C_23
REMARK                            x       y       z     vdW  Elec       q    Type
REMARK                         _______ _______ _______ _____ _____    ______ ____
ROOT
ATOM      1  C   UNL     1       1.725   8.153  19.541  0.00  0.00    +0.000 A 
ATOM      2  C   UNL     1       2.602   7.456  18.690  0.00  0.00    +0.000 A 
ATOM      3  C   UNL     1       2.943   6.098  18.926  0.00  0.00    +0.000 A 
ATOM      4  C   UNL     1       2.393   5.457  20.056  0.00  0.00    +0.000 A 
ATOM      5  C   UNL     1       1.550   6.179  20.915  0.00  0.00    +0.000 A 
ATOM      6  C   UNL     1       1.212   7.498  20.654  0.00  0.00    +0.000 A 
ATOM      7  F   UNL     1       0.369   8.123  21.490  0.00  0.00    +0.000 F 
ATOM      8  O   UNL     1       2.559   4.184  20.513  0.00  0.00    +0.000 OA
ATOM      9  C   UNL     1       2.941   3.075  19.704  0.00  0.00    +0.000 C 
ATOM     10  C   UNL     1       2.641   3.166  18.209  0.00  0.00    +0.000 C 
ATOM     11  C   UNL     1       3.629   4.103  17.601  0.00  0.00    +0.000 A 
ATOM     12  S   UNL     1       4.777   3.639  16.425  0.00  0.00    +0.000 S 
ATOM     13  C   UNL     1       5.433   5.220  16.451  0.00  0.00    +0.000 A 
ATOM     14  N   UNL     1       4.835   6.079  17.265  0.00  0.00    +0.000 NA
ATOM     15  C   UNL     1       3.807   5.429  17.948  0.00  0.00    +0.000 A 
ENDROOT
BRANCH  13  16
ATOM     16  C   UNL     1       6.590   5.534  15.610  0.00  0.00    +0.000 C 
ATOM     17  N   UNL     1       7.521   6.349  16.175  0.00  0.00    +0.000 N 
ATOM     18  O   UNL     1       6.782   5.108  14.472  0.00  0.00    +0.000 OA
ATOM     19  H   UNL     1       7.405   6.699  17.115  0.00  0.00    +0.000 HD
ATOM     20  H   UNL     1       8.350   6.580  15.638  0.00  0.00    +0.000 HD
ENDBRANCH  13  16
BRANCH   1  22
ATOM     21  C   UNL     1       1.029  10.649  19.031  0.00  0.00    +0.000 C 
ATOM     22  C   UNL     1       1.316   9.503  19.259  0.00  0.00    +0.000 C 
BRANCH  21  27
ATOM     23  C   UNL     1       1.228  14.698  21.575  0.00  0.00    +0.000 C 
ATOM     24  N   UNL     1       1.323  13.689  20.544  0.00  0.00    +0.000 N 
ATOM     25  C   UNL     1       2.494  13.491  19.738  0.00  0.00    +0.000 C 
ATOM     26  C   UNL     1       1.940  12.900  18.457  0.00  0.00    +0.000 C 
ATOM     27  C   UNL     1       0.715  12.085  18.900  0.00  0.00    +0.000 C 
ATOM     28  C   UNL     1       0.312  12.788  20.224  0.00  0.00    +0.000 C 
ATOM     29  O   UNL     1      -0.756  12.686  20.808  0.00  0.00    +0.000 OA
BRANCH  27  30
ATOM     30  O   UNL     1      -0.296  12.222  17.905  0.00  0.00    +0.000 OA
ATOM     31  H   UNL     1       0.155  12.504  17.089  0.00  0.00    +0.000 HD
ENDBRANCH  27  30
ENDBRANCH  21  27
ENDBRANCH   1  22
BRANCH  10  32
ATOM     32  O   UNL     1       2.758   1.875  17.609  0.00  0.00    +0.000 OA
ATOM     33  H   UNL     1       3.597   1.851  17.116  0.00  0.00    +0.000 HD
ENDBRANCH  10  32
TORSDOF 5
ENDMDL
MODEL 2
REMARK VINA RESULT:      -8.2      1.160      1.456
REMARK  Name = 
REMARK  6 active torsions:
REMARK  status: ('A' for Active; 'I' for Inactive)
REMARK    1  A    between atoms: C_1  and  N_2
REMARK    2  A    between atoms: C_5  and  O_6
REMARK    3  A    between atoms: C_5  and  C_7
REMARK    4  A    between atoms: C_8  and  C_9
REMARK    5  A    between atoms: C_18  and  O_19
REMARK    6  A    between atoms: C_22  and  C_23
REMARK                            x       y       z     vdW  Elec       q    Type
REMARK                         _______ _______ _______ _____ _____    ______ ____
ROOT
ATOM      1  C   UNL     1       1.766   8.147  19.561  0.00  0.00    +0.000 A 
ATOM      2  C   UNL     1       2.649   7.452  18.714  0.00  0.00    +0.000 A 
ATOM      3  C   UNL     1       2.977   6.090  18.938  0.00  0.00    +0.000 A 
ATOM      4  C   UNL     1       2.410   5.440  20.054  0.00  0.00    +0.000 A 
ATOM      5  C   UNL     1       1.561   6.158  20.911  0.00  0.00    +0.000 A 
ATOM      6  C   UNL     1       1.235   7.483  20.661  0.00  0.00    +0.000 A 
ATOM      7  F   UNL     1       0.387   8.104  21.494  0.00  0.00    +0.000 F 
ATOM      8  O   UNL     1       2.561   4.161  20.500  0.00  0.00    +0.000 OA
ATOM      9  C   UNL     1       2.945   3.059  19.683  0.00  0.00    +0.000 C 
ATOM     10  C   UNL     1       2.663   3.168  18.186  0.00  0.00    +0.000 C 
ATOM     11  C   UNL     1       3.665   4.105  17.600  0.00  0.00    +0.000 A 
ATOM     12  S   UNL     1       4.824   3.646  16.433  0.00  0.00    +0.000 S 
ATOM     13  C   UNL     1       5.491   5.221  16.483  0.00  0.00    +0.000 A 
ATOM     14  N   UNL     1       4.889   6.075  17.300  0.00  0.00    +0.000 NA
ATOM     15  C   UNL     1       3.848   5.426  17.964  0.00  0.00    +0.000 A 
ENDROOT
BRANCH  13  16
ATOM     16  C   UNL     1       6.660   5.536  15.660  0.00  0.00    +0.000 C 
ATOM     17  N   UNL     1       6.672   4.977  14.420  0.00  0.00    +0.000 N 
ATOM     18  O   UNL     1       7.593   6.265  15.995  0.00  0.00    +0.000 OA
ATOM     19  H   UNL     1       5.911   4.392  14.107  0.00  0.00    +0.000 HD
ATOM     20  H   UNL     1       7.452   5.181  13.806  0.00  0.00    +0.000 HD
ENDBRANCH  13  16
BRANCH   1  22
ATOM     21  C   UNL     1       1.069  10.653  19.107  0.00  0.00    +0.000 C 
ATOM     22  C   UNL     1       1.370   9.502  19.289  0.00  0.00    +0.000 C 
BRANCH  21  27
ATOM     23  C   UNL     1      -2.535  13.458  20.536  0.00  0.00    +0.000 C 
ATOM     24  N   UNL     1      -1.239  12.894  20.233  0.00  0.00    +0.000 N 
ATOM     25  C   UNL     1      -0.136  12.910  21.151  0.00  0.00    +0.000 C 
ATOM     26  C   UNL     1       1.076  12.876  20.240  0.00  0.00    +0.000 C 
ATOM     27  C   UNL     1       0.626  12.057  19.020  0.00  0.00    +0.000 C 
ATOM     28  C   UNL     1      -0.914  12.256  19.039  0.00  0.00    +0.000 C 
ATOM     29  O   UNL     1      -1.690  12.035  18.122  0.00  0.00    +0.000 OA
BRANCH  27  30
ATOM     30  O   UNL     1       1.214  12.631  17.856  0.00  0.00    +0.000 OA
ATOM     31  H   UNL     1       2.012  12.107  17.662  0.00  0.00    +0.000 HD
ENDBRANCH  27  30
ENDBRANCH  21  27
ENDBRANCH   1  22
BRANCH  10  32
ATOM     32  O   UNL     1       2.779   1.883  17.573  0.00  0.00    +0.000 OA
ATOM     33  H   UNL     1       3.549   1.905  16.977  0.00  0.00    +0.000 HD
ENDBRANCH  10  32
TORSDOF 5
ENDMDL
MODEL 3
REMARK VINA RESULT:      -7.8      1.256      1.442
REMARK  Name = 
REMARK  6 active torsions:
REMARK  status: ('A' for Active; 'I' for Inactive)
REMARK    1  A    between atoms: C_1  and  N_2
REMARK    2  A    between atoms: C_5  and  O_6
REMARK    3  A    between atoms: C_5  and  C_7
REMARK    4  A    between atoms: C_8  and  C_9
REMARK    5  A    between atoms: C_18  and  O_19
REMARK    6  A    between atoms: C_22  and  C_23
REMARK                            x       y       z     vdW  Elec       q    Type
REMARK                         _______ _______ _______ _____ _____    ______ ____
ROOT
ATOM      1  C   UNL     1       1.710   8.575  19.590  0.00  0.00    +0.000 A 
ATOM      2  C   UNL     1       2.350   7.617  18.783  0.00  0.00    +0.000 A 
ATOM      3  C   UNL     1       2.403   6.248  19.153  0.00  0.00    +0.000 A 
ATOM      4  C   UNL     1       1.809   5.862  20.373  0.00  0.00    +0.000 A 
ATOM      5  C   UNL     1       1.207   6.836  21.185  0.00  0.00    +0.000 A 
ATOM      6  C   UNL     1       1.147   8.166  20.793  0.00  0.00    +0.000 A 
ATOM      7  F   UNL     1       0.522   9.043  21.593  0.00  0.00    +0.000 F 
ATOM      8  O   UNL     1       1.726   4.636  20.963  0.00  0.00    +0.000 OA
ATOM      9  C   UNL     1       1.798   3.396  20.267  0.00  0.00    +0.000 C 
ATOM     10  C   UNL     1       1.419   3.402  18.787  0.00  0.00    +0.000 C 
ATOM     11  C   UNL     1       2.542   4.029  18.031  0.00  0.00    +0.000 A 
ATOM     12  S   UNL     1       3.474   3.204  16.862  0.00  0.00    +0.000 S 
ATOM     13  C   UNL     1       4.459   4.592  16.677  0.00  0.00    +0.000 A 
ATOM     14  N   UNL     1       4.122   5.640  17.417  0.00  0.00    +0.000 NA
ATOM     15  C   UNL     1       3.028   5.309  18.217  0.00  0.00    +0.000 A 
ENDROOT
BRANCH  13  16
ATOM     16  C   UNL     1       5.593   4.553  15.752  0.00  0.00    +0.000 C 
ATOM     17  N   UNL     1       5.923   5.742  15.179  0.00  0.00    +0.000 N 
ATOM     18  O   UNL     1       6.260   3.555  15.482  0.00  0.00    +0.000 OA
ATOM     19  H   UNL     1       5.410   6.584  15.396  0.00  0.00    +0.000 HD
ATOM     20  H   UNL     1       6.714   5.769  14.545  0.00  0.00    +0.000 HD
ENDBRANCH  13  16
BRANCH   1  22
ATOM     21  C   UNL     1       1.536  11.103  18.849  0.00  0.00    +0.000 C 
ATOM     22  C   UNL     1       1.586   9.947  19.177  0.00  0.00    +0.000 C 
BRANCH  21  27
ATOM     23  C   UNL     1      -0.998  14.970  20.089  0.00  0.00    +0.000 C 
ATOM     24  N   UNL     1       0.056  14.026  19.791  0.00  0.00    +0.000 N 
ATOM     25  C   UNL     1       1.203  13.830  20.632  0.00  0.00    +0.000 C 
ATOM     26  C   UNL     1       2.265  13.345  19.665  0.00  0.00    +0.000 C 
ATOM     27  C   UNL     1       1.493  12.556  18.597  0.00  0.00    +0.000 C 
ATOM     28  C   UNL     1       0.077  13.190  18.678  0.00  0.00    +0.000 C 
ATOM     29  O   UNL     1      -0.813  13.097  17.847  0.00  0.00    +0.000 OA
BRANCH  27  30
ATOM     30  O   UNL     1       2.104  12.800  17.333  0.00  0.00    +0.000 OA
ATOM     31  H   UNL     1       1.450  13.285  16.798  0.00  0.00    +0.000 HD
ENDBRANCH  27  30
ENDBRANCH  21  27
ENDBRANCH   1  22
BRANCH  10  32
ATOM     32  O   UNL     1       1.209   2.064  18.332  0.00  0.00    +0.000 OA
ATOM     33  H   UNL     1       1.609   1.462  18.984  0.00  0.00    +0.000 HD
ENDBRANCH  10  32
TORSDOF 5
ENDMDL
MODEL 4
REMARK VINA RESULT:      -7.3      2.909      4.458
REMARK  Name = 
REMARK  6 active torsions:
REMARK  status: ('A' for Active; 'I' for Inactive)
REMARK    1  A    between atoms: C_1  and  N_2
REMARK    2  A    between atoms: C_5  and  O_6
REMARK    3  A    between atoms: C_5  and  C_7
REMARK    4  A    between atoms: C_8  and  C_9
REMARK    5  A    between atoms: C_18  and  O_19
REMARK    6  A    between atoms: C_22  and  C_23
REMARK                            x       y       z     vdW  Elec       q    Type
REMARK                         _______ _______ _______ _____ _____    ______ ____
ROOT
ATOM      1  C   UNL     1       1.306   9.453  19.542  0.00  0.00    +0.000 A 
ATOM      2  C   UNL     1       1.667   8.139  19.892  0.00  0.00    +0.000 A 
ATOM      3  C   UNL     1       2.468   7.336  19.039  0.00  0.00    +0.000 A 
ATOM      4  C   UNL     1       2.887   7.881  17.807  0.00  0.00    +0.000 A 
ATOM      5  C   UNL     1       2.487   9.180  17.457  0.00  0.00    +0.000 A 
ATOM      6  C   UNL     1       1.722   9.955  18.315  0.00  0.00    +0.000 A 
ATOM      7  F   UNL     1       1.405  11.204  17.941  0.00  0.00    +0.000 F 
ATOM      8  O   UNL     1       3.642   7.333  16.813  0.00  0.00    +0.000 OA
ATOM      9  C   UNL     1       4.573   6.269  16.995  0.00  0.00    +0.000 C 
ATOM     10  C   UNL     1       5.155   6.083  18.394  0.00  0.00    +0.000 C 
ATOM     11  C   UNL     1       4.100   5.465  19.250  0.00  0.00    +0.000 A 
ATOM     12  S   UNL     1       4.242   3.921  19.964  0.00  0.00    +0.000 S 
ATOM     13  C   UNL     1       2.651   4.066  20.580  0.00  0.00    +0.000 A 
ATOM     14  N   UNL     1       2.029   5.204  20.305  0.00  0.00    +0.000 NA
ATOM     15  C   UNL     1       2.856   6.005  19.516  0.00  0.00    +0.000 A 
ENDROOT
BRANCH  13  16
ATOM     16  C   UNL     1       2.070   2.960  21.344  0.00  0.00    +0.000 C 
ATOM     17  N   UNL     1       0.750   2.725  21.122  0.00  0.00    +0.000 N 
ATOM     18  O   UNL     1       2.681   2.241  22.133  0.00  0.00    +0.000 OA
ATOM     19  H   UNL     1       0.225   3.284  20.465  0.00  0.00    +0.000 HD
ATOM     20  H   UNL     1       0.307   1.957  21.615  0.00  0.00    +0.000 HD
ENDBRANCH  13  16
BRANCH   1  22
ATOM     21  C   UNL     1      -0.069  11.035  21.148  0.00  0.00    +0.000 C 
ATOM     22  C   UNL     1       0.563  10.295  20.440  0.00  0.00    +0.000 C 
BRANCH  21  27
ATOM     23  C   UNL     1      -1.176  15.691  21.104  0.00  0.00    +0.000 C 
ATOM     24  N   UNL     1      -1.197  14.250  21.227  0.00  0.00    +0.000 N 
ATOM     25  C   UNL     1      -2.262  13.430  20.727  0.00  0.00    +0.000 C 
ATOM     26  C   UNL     1      -2.216  12.211  21.628  0.00  0.00    +0.000 C 
ATOM     27  C   UNL     1      -0.732  12.048  21.991  0.00  0.00    +0.000 C 
ATOM     28  C   UNL     1      -0.190  13.493  21.820  0.00  0.00    +0.000 C 
ATOM     29  O   UNL     1       0.863  13.934  22.254  0.00  0.00    +0.000 OA
BRANCH  27  30
ATOM     30  O   UNL     1      -0.649  11.614  23.346  0.00  0.00    +0.000 OA
ATOM     31  H   UNL     1      -0.750  10.646  23.333  0.00  0.00    +0.000 HD
ENDBRANCH  27  30
ENDBRANCH  21  27
ENDBRANCH   1  22
BRANCH  10  32
ATOM     32  O   UNL     1       6.299   5.229  18.337  0.00  0.00    +0.000 OA
ATOM     33  H   UNL     1       6.814   5.366  19.152  0.00  0.00    +0.000 HD
ENDBRANCH  10  32
TORSDOF 5
ENDMDL
MODEL 5
REMARK VINA RESULT:      -7.3      7.157     10.707
REMARK  Name = 
REMARK  6 active torsions:
REMARK  status: ('A' for Active; 'I' for Inactive)
REMARK    1  A    between atoms: C_1  and  N_2
REMARK    2  A    between atoms: C_5  and  O_6
REMARK    3  A    between atoms: C_5  and  C_7
REMARK    4  A    between atoms: C_8  and  C_9
REMARK    5  A    between atoms: C_18  and  O_19
REMARK    6  A    between atoms: C_22  and  C_23
REMARK                            x       y       z     vdW  Elec       q    Type
REMARK                         _______ _______ _______ _____ _____    ______ ____
ROOT
ATOM      1  C   UNL     1       9.067  10.339  18.911  0.00  0.00    +0.000 A 
ATOM      2  C   UNL     1       8.687  10.843  20.168  0.00  0.00    +0.000 A 
ATOM      3  C   UNL     1       9.313  11.986  20.731  0.00  0.00    +0.000 A 
ATOM      4  C   UNL     1      10.352  12.605  20.004  0.00  0.00    +0.000 A 
ATOM      5  C   UNL     1      10.744  12.067  18.769  0.00  0.00    +0.000 A 
ATOM      6  C   UNL     1      10.103  10.963  18.227  0.00  0.00    +0.000 A 
ATOM      7  F   UNL     1      10.496  10.519  17.023  0.00  0.00    +0.000 F 
ATOM      8  O   UNL     1      11.115  13.692  20.312  0.00  0.00    +0.000 OA
ATOM      9  C   UNL     1      10.724  14.729  21.207  0.00  0.00    +0.000 C 
ATOM     10  C   UNL     1       9.227  14.938  21.422  0.00  0.00    +0.000 C 
ATOM     11  C   UNL     1       8.733  13.835  22.296  0.00  0.00    +0.000 A 
ATOM     12  S   UNL     1       8.075  14.080  23.853  0.00  0.00    +0.000 S 
ATOM     13  C   UNL     1       7.929  12.386  24.051  0.00  0.00    +0.000 A 
ATOM     14  N   UNL     1       8.318  11.650  23.019  0.00  0.00    +0.000 NA
ATOM     15  C   UNL     1       8.805  12.484  22.013  0.00  0.00    +0.000 A 
ENDROOT
BRANCH  13  16
ATOM     16  C   UNL     1       7.409  11.850  25.310  0.00  0.00    +0.000 C 
ATOM     17  N   UNL     1       7.989  12.337  26.439  0.00  0.00    +0.000 N 
ATOM     18  O   UNL     1       6.498  11.029  25.414  0.00  0.00    +0.000 OA
ATOM     19  H   UNL     1       8.725  13.028  26.389  0.00  0.00    +0.000 HD
ATOM     20  H   UNL     1       7.650  12.010  27.337  0.00  0.00    +0.000 HD
ENDBRANCH  13  16
BRANCH   1  22
ATOM     21  C   UNL     1       7.798   8.281  17.849  0.00  0.00    +0.000 C 
ATOM     22  C   UNL     1       8.379   9.231  18.304  0.00  0.00    +0.000 C 
BRANCH  21  27
ATOM     23  C   UNL     1       5.184   4.575  19.377  0.00  0.00    +0.000 C 
ATOM     24  N   UNL     1       5.727   5.690  18.634  0.00  0.00    +0.000 N 
ATOM     25  C   UNL     1       4.919   6.736  18.076  0.00  0.00    +0.000 C 
ATOM     26  C   UNL     1       5.746   7.225  16.902  0.00  0.00    +0.000 C 
ATOM     27  C   UNL     1       7.205   7.029  17.341  0.00  0.00    +0.000 C 
ATOM     28  C   UNL     1       7.083   5.893  18.392  0.00  0.00    +0.000 C 
ATOM     29  O   UNL     1       7.990   5.197  18.823  0.00  0.00    +0.000 OA
BRANCH  27  30
ATOM     30  O   UNL     1       7.961   6.615  16.207  0.00  0.00    +0.000 OA
ATOM     31  H   UNL     1       7.337   6.168  15.607  0.00  0.00    +0.000 HD
ENDBRANCH  27  30
ENDBRANCH  21  27
ENDBRANCH   1  22
BRANCH  10  32
ATOM     32  O   UNL     1       8.996  16.200  22.051  0.00  0.00    +0.000 OA
ATOM     33  H   UNL     1       9.132  16.085  23.008  0.00  0.00    +0.000 HD
ENDBRANCH  10  32
TORSDOF 5
ENDMDL
MODEL 6
REMARK VINA RESULT:      -7.1      3.540      8.698
REMARK  Name = 
REMARK  6 active torsions:
REMARK  status: ('A' for Active; 'I' for Inactive)
REMARK    1  A    between atoms: C_1  and  N_2
REMARK    2  A    between atoms: C_5  and  O_6
REMARK    3  A    between atoms: C_5  and  C_7
REMARK    4  A    between atoms: C_8  and  C_9
REMARK    5  A    between atoms: C_18  and  O_19
REMARK    6  A    between atoms: C_22  and  C_23
REMARK                            x       y       z     vdW  Elec       q    Type
REMARK                         _______ _______ _______ _____ _____    ______ ____
ROOT
ATOM      1  C   UNL     1       0.964   9.284  20.493  0.00  0.00    +0.000 A 
ATOM      2  C   UNL     1       1.527  10.521  20.127  0.00  0.00    +0.000 A 
ATOM      3  C   UNL     1       0.884  11.749  20.434  0.00  0.00    +0.000 A 
ATOM      4  C   UNL     1      -0.356  11.706  21.105  0.00  0.00    +0.000 A 
ATOM      5  C   UNL     1      -0.921  10.463  21.429  0.00  0.00    +0.000 A 
ATOM      6  C   UNL     1      -0.265   9.275  21.140  0.00  0.00    +0.000 A 
ATOM      7  F   UNL     1      -0.838   8.119  21.511  0.00  0.00    +0.000 F 
ATOM      8  O   UNL     1      -1.176  12.718  21.505  0.00  0.00    +0.000 OA
ATOM      9  C   UNL     1      -0.750  14.053  21.762  0.00  0.00    +0.000 C 
ATOM     10  C   UNL     1       0.718  14.259  22.130  0.00  0.00    +0.000 C 
ATOM     11  C   UNL     1       1.526  14.114  20.884  0.00  0.00    +0.000 A 
ATOM     12  S   UNL     1       2.454  15.375  20.203  0.00  0.00    +0.000 S 
ATOM     13  C   UNL     1       2.864  14.357  18.890  0.00  0.00    +0.000 A 
ATOM     14  N   UNL     1       2.370  13.127  18.939  0.00  0.00    +0.000 NA
ATOM     15  C   UNL     1       1.577  12.991  20.079  0.00  0.00    +0.000 A 
ENDROOT
BRANCH  13  16
ATOM     16  C   UNL     1       3.701  14.877  17.808  0.00  0.00    +0.000 C 
ATOM     17  N   UNL     1       4.944  14.334  17.715  0.00  0.00    +0.000 N 
ATOM     18  O   UNL     1       3.361  15.731  16.991  0.00  0.00    +0.000 OA
ATOM     19  H   UNL     1       5.247  13.615  18.357  0.00  0.00    +0.000 HD
ATOM     20  H   UNL     1       5.555  14.649  16.970  0.00  0.00    +0.000 HD
ENDBRANCH  13  16
BRANCH   1  22
ATOM     21  C   UNL     1       2.231   7.020  19.999  0.00  0.00    +0.000 C 
ATOM     22  C   UNL     1       1.652   8.044  20.255  0.00  0.00    +0.000 C 
BRANCH  21  27
ATOM     23  C   UNL     1       0.894   2.532  19.017  0.00  0.00    +0.000 C 
ATOM     24  N   UNL     1       1.494   3.846  18.998  0.00  0.00    +0.000 N 
ATOM     25  C   UNL     1       1.568   4.665  17.822  0.00  0.00    +0.000 C 
ATOM     26  C   UNL     1       2.787   5.531  18.076  0.00  0.00    +0.000 C 
ATOM     27  C   UNL     1       2.817   5.727  19.600  0.00  0.00    +0.000 C 
ATOM     28  C   UNL     1       2.048   4.478  20.109  0.00  0.00    +0.000 C 
ATOM     29  O   UNL     1       2.044   4.037  21.248  0.00  0.00    +0.000 OA
BRANCH  27  30
ATOM     30  O   UNL     1       4.178   5.713  20.025  0.00  0.00    +0.000 OA
ATOM     31  H   UNL     1       4.669   5.193  19.363  0.00  0.00    +0.000 HD
ENDBRANCH  27  30
ENDBRANCH  21  27
ENDBRANCH   1  22
BRANCH  10  32
ATOM     32  O   UNL     1       0.904  15.562  22.684  0.00  0.00    +0.000 OA
ATOM     33  H   UNL     1       1.624  15.995  22.192  0.00  0.00    +0.000 HD
ENDBRANCH  10  32
TORSDOF 5
ENDMDL
MODEL 7
REMARK VINA RESULT:      -7.0      3.591      8.449
REMARK  Name = 
REMARK  6 active torsions:
REMARK  status: ('A' for Active; 'I' for Inactive)
REMARK    1  A    between atoms: C_1  and  N_2
REMARK    2  A    between atoms: C_5  and  O_6
REMARK    3  A    between atoms: C_5  and  C_7
REMARK    4  A    between atoms: C_8  and  C_9
REMARK    5  A    between atoms: C_18  and  O_19
REMARK    6  A    between atoms: C_22  and  C_23
REMARK                            x       y       z     vdW  Elec       q    Type
REMARK                         _______ _______ _______ _____ _____    ______ ____
ROOT
ATOM      1  C   UNL     1       2.159   7.862  18.809  0.00  0.00    +0.000 A 
ATOM      2  C   UNL     1       1.130   8.740  18.423  0.00  0.00    +0.000 A 
ATOM      3  C   UNL     1       0.246   9.313  19.374  0.00  0.00    +0.000 A 
ATOM      4  C   UNL     1       0.408   8.967  20.732  0.00  0.00    +0.000 A 
ATOM      5  C   UNL     1       1.416   8.060  21.095  0.00  0.00    +0.000 A 
ATOM      6  C   UNL     1       2.284   7.529  20.152  0.00  0.00    +0.000 A 
ATOM      7  F   UNL     1       3.253   6.699  20.567  0.00  0.00    +0.000 F 
ATOM      8  O   UNL     1      -0.297   9.358  21.831  0.00  0.00    +0.000 OA
ATOM      9  C   UNL     1      -1.047  10.565  21.924  0.00  0.00    +0.000 C 
ATOM     10  C   UNL     1      -0.640  11.714  21.003  0.00  0.00    +0.000 C 
ATOM     11  C   UNL     1      -1.113  11.385  19.627  0.00  0.00    +0.000 A 
ATOM     12  S   UNL     1      -2.271  12.308  18.777  0.00  0.00    +0.000 S 
ATOM     13  C   UNL     1      -2.218  11.179  17.491  0.00  0.00    +0.000 A 
ATOM     14  N   UNL     1      -1.374  10.169  17.647  0.00  0.00    +0.000 NA
ATOM     15  C   UNL     1      -0.751  10.273  18.890  0.00  0.00    +0.000 A 
ENDROOT
BRANCH  13  16
ATOM     16  C   UNL     1      -3.086  11.370  16.327  0.00  0.00    +0.000 C 
ATOM     17  N   UNL     1      -4.258  12.016  16.570  0.00  0.00    +0.000 N 
ATOM     18  O   UNL     1      -2.827  11.016  15.178  0.00  0.00    +0.000 OA
ATOM     19  H   UNL     1      -4.492  12.339  17.498  0.00  0.00    +0.000 HD
ATOM     20  H   UNL     1      -4.884  12.189  15.791  0.00  0.00    +0.000 HD
ENDBRANCH  13  16
BRANCH   1  22
ATOM     21  C   UNL     1       3.903   6.865  17.095  0.00  0.00    +0.000 C 
ATOM     22  C   UNL     1       3.105   7.345  17.857  0.00  0.00    +0.000 C 
BRANCH  21  27
ATOM     23  C   UNL     1       8.006   4.454  17.597  0.00  0.00    +0.000 C 
ATOM     24  N   UNL     1       6.702   4.923  17.184  0.00  0.00    +0.000 N 
ATOM     25  C   UNL     1       5.579   4.054  16.976  0.00  0.00    +0.000 C 
ATOM     26  C   UNL     1       4.740   4.807  15.961  0.00  0.00    +0.000 C 
ATOM     27  C   UNL     1       4.985   6.291  16.273  0.00  0.00    +0.000 C 
ATOM     28  C   UNL     1       6.377   6.258  16.961  0.00  0.00    +0.000 C 
ATOM     29  O   UNL     1       7.124   7.207  17.143  0.00  0.00    +0.000 OA
BRANCH  27  30
ATOM     30  O   UNL     1       5.026   7.005  15.041  0.00  0.00    +0.000 OA
ATOM     31  H   UNL     1       4.392   6.568  14.446  0.00  0.00    +0.000 HD
ENDBRANCH  27  30
ENDBRANCH  21  27
ENDBRANCH   1  22
BRANCH  10  32
ATOM     32  O   UNL     1      -1.240  12.932  21.448  0.00  0.00    +0.000 OA
ATOM     33  H   UNL     1      -1.574  12.786  22.351  0.00  0.00    +0.000 HD
ENDBRANCH  10  32
TORSDOF 5
ENDMDL
MODEL 8
REMARK VINA RESULT:      -6.8      2.972      4.691
REMARK  Name = 
REMARK  6 active torsions:
REMARK  status: ('A' for Active; 'I' for Inactive)
REMARK    1  A    between atoms: C_1  and  N_2
REMARK    2  A    between atoms: C_5  and  O_6
REMARK    3  A    between atoms: C_5  and  C_7
REMARK    4  A    between atoms: C_8  and  C_9
REMARK    5  A    between atoms: C_18  and  O_19
REMARK    6  A    between atoms: C_22  and  C_23
REMARK                            x       y       z     vdW  Elec       q    Type
REMARK                         _______ _______ _______ _____ _____    ______ ____
ROOT
ATOM      1  C   UNL     1       1.417   9.651  19.446  0.00  0.00    +0.000 A 
ATOM      2  C   UNL     1       1.642   8.309  19.804  0.00  0.00    +0.000 A 
ATOM      3  C   UNL     1       2.415   7.443  18.989  0.00  0.00    +0.000 A 
ATOM      4  C   UNL     1       2.946   7.953  17.786  0.00  0.00    +0.000 A 
ATOM      5  C   UNL     1       2.681   9.283  17.425  0.00  0.00    +0.000 A 
ATOM      6  C   UNL     1       1.941  10.120  18.248  0.00  0.00    +0.000 A 
ATOM      7  F   UNL     1       1.755  11.393  17.868  0.00  0.00    +0.000 F 
ATOM      8  O   UNL     1       3.704   7.345  16.829  0.00  0.00    +0.000 OA
ATOM      9  C   UNL     1       4.527   6.204  17.052  0.00  0.00    +0.000 C 
ATOM     10  C   UNL     1       5.013   5.962  18.479  0.00  0.00    +0.000 C 
ATOM     11  C   UNL     1       3.864   5.436  19.271  0.00  0.00    +0.000 A 
ATOM     12  S   UNL     1       3.832   3.882  19.979  0.00  0.00    +0.000 S 
ATOM     13  C   UNL     1       2.229   4.163  20.509  0.00  0.00    +0.000 A 
ATOM     14  N   UNL     1       1.724   5.353  20.211  0.00  0.00    +0.000 NA
ATOM     15  C   UNL     1       2.659   6.081  19.475  0.00  0.00    +0.000 A 
ENDROOT
BRANCH  13  16
ATOM     16  C   UNL     1       1.513   3.110  21.232  0.00  0.00    +0.000 C 
ATOM     17  N   UNL     1       0.442   2.579  20.585  0.00  0.00    +0.000 N 
ATOM     18  O   UNL     1       1.818   2.673  22.341  0.00  0.00    +0.000 OA
ATOM     19  H   UNL     1       0.178   2.901  19.664  0.00  0.00    +0.000 HD
ATOM     20  H   UNL     1      -0.075   1.833  21.037  0.00  0.00    +0.000 HD
ENDBRANCH  13  16
BRANCH   1  22
ATOM     21  C   UNL     1       0.094  11.338  20.988  0.00  0.00    +0.000 C 
ATOM     22  C   UNL     1       0.701  10.551  20.310  0.00  0.00    +0.000 C 
BRANCH  21  27
ATOM     23  C   UNL     1      -4.241  13.134  21.931  0.00  0.00    +0.000 C 
ATOM     24  N   UNL     1      -2.896  12.610  22.017  0.00  0.00    +0.000 N 
ATOM     25  C   UNL     1      -2.493  11.621  22.976  0.00  0.00    +0.000 C 
ATOM     26  C   UNL     1      -1.012  11.893  23.155  0.00  0.00    +0.000 C 
ATOM     27  C   UNL     1      -0.540  12.406  21.785  0.00  0.00    +0.000 C 
ATOM     28  C   UNL     1      -1.849  12.982  21.180  0.00  0.00    +0.000 C 
ATOM     29  O   UNL     1      -1.939  13.744  20.230  0.00  0.00    +0.000 OA
BRANCH  27  30
ATOM     30  O   UNL     1       0.431  13.426  22.001  0.00  0.00    +0.000 OA
ATOM     31  H   UNL     1       0.519  13.525  22.966  0.00  0.00    +0.000 HD
ENDBRANCH  27  30
ENDBRANCH  21  27
ENDBRANCH   1  22
BRANCH  10  32
ATOM     32  O   UNL     1       6.080   5.012  18.476  0.00  0.00    +0.000 OA
ATOM     33  H   UNL     1       6.905   5.489  18.677  0.00  0.00    +0.000 HD
ENDBRANCH  10  32
TORSDOF 5
ENDMDL
MODEL 9
REMARK VINA RESULT:      -6.7      9.205     11.712
REMARK  Name = 
REMARK  6 active torsions:
REMARK  status: ('A' for Active; 'I' for Inactive)
REMARK    1  A    between atoms: C_1  and  N_2
REMARK    2  A    between atoms: C_5  and  O_6
REMARK    3  A    between atoms: C_5  and  C_7
REMARK    4  A    between atoms: C_8  and  C_9
REMARK    5  A    between atoms: C_18  and  O_19
REMARK    6  A    between atoms: C_22  and  C_23
REMARK                            x       y       z     vdW  Elec       q    Type
REMARK                         _______ _______ _______ _____ _____    ______ ____
ROOT
ATOM      1  C   UNL     1       8.651  13.316  23.417  0.00  0.00    +0.000 A 
ATOM      2  C   UNL     1       7.771  12.685  24.315  0.00  0.00    +0.000 A 
ATOM      3  C   UNL     1       7.265  13.359  25.457  0.00  0.00    +0.000 A 
ATOM      4  C   UNL     1       7.681  14.687  25.688  0.00  0.00    +0.000 A 
ATOM      5  C   UNL     1       8.589  15.289  24.803  0.00  0.00    +0.000 A 
ATOM      6  C   UNL     1       9.054  14.619  23.680  0.00  0.00    +0.000 A 
ATOM      7  F   UNL     1       9.888  15.262  22.849  0.00  0.00    +0.000 F 
ATOM      8  O   UNL     1       7.362  15.548  26.696  0.00  0.00    +0.000 OA
ATOM      9  C   UNL     1       6.174  15.472  27.480  0.00  0.00    +0.000 C 
ATOM     10  C   UNL     1       4.971  14.766  26.858  0.00  0.00    +0.000 C 
ATOM     11  C   UNL     1       5.233  13.298  26.896  0.00  0.00    +0.000 A 
ATOM     12  S   UNL     1       4.286  12.188  27.784  0.00  0.00    +0.000 S 
ATOM     13  C   UNL     1       5.343  10.924  27.321  0.00  0.00    +0.000 A 
ATOM     14  N   UNL     1       6.346  11.274  26.527  0.00  0.00    +0.000 NA
ATOM     15  C   UNL     1       6.298  12.649  26.299  0.00  0.00    +0.000 A 
ENDROOT
BRANCH  13  16
ATOM     16  C   UNL     1       5.104   9.567  27.816  0.00  0.00    +0.000 C 
ATOM     17  N   UNL     1       6.199   8.915  28.292  0.00  0.00    +0.000 N 
ATOM     18  O   UNL     1       4.012   9.001  27.847  0.00  0.00    +0.000 OA
ATOM     19  H   UNL     1       7.106   9.360  28.300  0.00  0.00    +0.000 HD
ATOM     20  H   UNL     1       6.080   7.979  28.663  0.00  0.00    +0.000 HD
ENDBRANCH  13  16
BRANCH   1  22
ATOM     21  C   UNL     1       9.516  12.154  21.209  0.00  0.00    +0.000 C 
ATOM     22  C   UNL     1       9.100  12.661  22.218  0.00  0.00    +0.000 C 
BRANCH  21  27
ATOM     23  C   UNL     1      11.061  13.824  16.998  0.00  0.00    +0.000 C 
ATOM     24  N   UNL     1      10.891  13.095  18.235  0.00  0.00    +0.000 N 
ATOM     25  C   UNL     1      11.968  12.812  19.140  0.00  0.00    +0.000 C 
ATOM     26  C   UNL     1      11.512  11.547  19.840  0.00  0.00    +0.000 C 
ATOM     27  C   UNL     1       9.981  11.662  19.898  0.00  0.00    +0.000 C 
ATOM     28  C   UNL     1       9.675  12.604  18.702  0.00  0.00    +0.000 C 
ATOM     29  O   UNL     1       8.590  12.776  18.167  0.00  0.00    +0.000 OA
BRANCH  27  30
ATOM     30  O   UNL     1       9.428  10.364  19.697  0.00  0.00    +0.000 OA
ATOM     31  H   UNL     1       8.657  10.478  19.112  0.00  0.00    +0.000 HD
ENDBRANCH  27  30
ENDBRANCH  21  27
ENDBRANCH   1  22
BRANCH  10  32
ATOM     32  O   UNL     1       3.789  15.071  27.600  0.00  0.00    +0.000 OA
ATOM     33  H   UNL     1       3.027  14.965  27.004  0.00  0.00    +0.000 HD
ENDBRANCH  10  32
TORSDOF 5
ENDMDL
