MODEL 1
REMARK VINA RESULT:      -7.2      0.000      0.000
REMARK  Name = 
REMARK  3 active torsions:
REMARK  status: ('A' for Active; 'I' for Inactive)
REMARK    1  A    between atoms: C_1  and  C_2
REMARK    2  A    between atoms: N_11  and  S_12
REMARK    3  A    between atoms: S_12  and  C_15
REMARK                            x       y       z     vdW  Elec       q    Type
REMARK                         _______ _______ _______ _____ _____    ______ ____
ROOT
ATOM      1  C   UNL     1      -2.057  12.546  21.758  0.00  0.00    +0.000 C 
ATOM      2  C   UNL     1      -1.152  11.352  21.840  0.00  0.00    +0.000 A 
ATOM      3  C   UNL     1      -0.936  10.709  23.068  0.00  0.00    +0.000 A 
ATOM      4  C   UNL     1      -0.102   9.593  23.176  0.00  0.00    +0.000 A 
ATOM      5  C   UNL     1       0.495   9.151  21.998  0.00  0.00    +0.000 A 
ATOM      6  N   UNL     1       1.349   8.117  21.736  0.00  0.00    +0.000 N 
ATOM      7  C   UNL     1       1.608   8.083  20.391  0.00  0.00    +0.000 A 
ATOM      8  N   UNL     1       2.379   7.113  19.852  0.00  0.00    +0.000 N 
ATOM      9  C   UNL     1       2.644   5.832  20.510  0.00  0.00    +0.000 C 
ATOM     10  C   UNL     1       2.373   4.651  19.557  0.00  0.00    +0.000 C 
ATOM     11  N   UNL     1       3.064   4.797  18.244  0.00  0.00    +0.000 NA
ATOM     12  C   UNL     1       2.652   6.100  17.607  0.00  0.00    +0.000 C 
ATOM     13  C   UNL     1       2.959   7.307  18.513  0.00  0.00    +0.000 C 
ATOM     14  N   UNL     1       1.023   9.092  19.786  0.00  0.00    +0.000 NA
ATOM     15  C   UNL     1       0.312   9.753  20.763  0.00  0.00    +0.000 A 
ATOM     16  C   UNL     1      -0.524  10.876  20.673  0.00  0.00    +0.000 A 
ATOM     17  H   UNL     1       1.736   7.493  22.421  0.00  0.00    +0.000 HD
ENDROOT
BRANCH  11  18
ATOM     18  S   UNL     1       4.745   4.513  18.229  0.00  0.00    +0.000 S 
ATOM     19  O   UNL     1       5.389   5.794  18.431  0.00  0.00    +0.000 OA
ATOM     20  O   UNL     1       5.030   3.401  19.106  0.00  0.00    +0.000 OA
BRANCH  18  21
ATOM     21  C   UNL     1       5.181   3.918  16.570  0.00  0.00    +0.000 C 
ATOM     22  C   UNL     1       5.444   4.985  15.546  0.00  0.00    +0.000 C 
ATOM     23  C   UNL     1       6.597   4.225  16.147  0.00  0.00    +0.000 C 
ENDBRANCH  18  21
ENDBRANCH  11  18
TORSDOF 2
ENDMDL
MODEL 2
REMARK VINA RESULT:      -7.0      3.571      8.161
REMARK  Name = 
REMARK  3 active torsions:
REMARK  status: ('A' for Active; 'I' for Inactive)
REMARK    1  A    between atoms: C_1  and  C_2
REMARK    2  A    between atoms: N_11  and  S_12
REMARK    3  A    between atoms: S_12  and  C_15
REMARK                            x       y       z     vdW  Elec       q    Type
REMARK                         _______ _______ _______ _____ _____    ______ ____
ROOT
ATOM      1  C   UNL     1       3.723   1.477  18.538  0.00  0.00    +0.000 C 
ATOM      2  C   UNL     1       3.543   2.966  18.489  0.00  0.00    +0.000 A 
ATOM      3  C   UNL     1       4.122   3.716  17.454  0.00  0.00    +0.000 A 
ATOM      4  C   UNL     1       3.969   5.103  17.379  0.00  0.00    +0.000 A 
ATOM      5  C   UNL     1       3.207   5.697  18.382  0.00  0.00    +0.000 A 
ATOM      6  N   UNL     1       2.860   6.996  18.620  0.00  0.00    +0.000 N 
ATOM      7  C   UNL     1       2.050   7.046  19.724  0.00  0.00    +0.000 A 
ATOM      8  N   UNL     1       1.510   8.212  20.143  0.00  0.00    +0.000 N 
ATOM      9  C   UNL     1       1.368   9.391  19.287  0.00  0.00    +0.000 C 
ATOM     10  C   UNL     1      -0.067   9.950  19.343  0.00  0.00    +0.000 C 
ATOM     11  N   UNL     1      -0.549  10.168  20.738  0.00  0.00    +0.000 NA
ATOM     12  C   UNL     1      -0.451   8.875  21.506  0.00  0.00    +0.000 C 
ATOM     13  C   UNL     1       0.984   8.316  21.515  0.00  0.00    +0.000 C 
ATOM     14  N   UNL     1       1.923   5.850  20.254  0.00  0.00    +0.000 NA
ATOM     15  C   UNL     1       2.617   4.998  19.423  0.00  0.00    +0.000 A 
ATOM     16  C   UNL     1       2.783   3.606  19.487  0.00  0.00    +0.000 A 
ATOM     17  H   UNL     1       3.161   7.788  18.081  0.00  0.00    +0.000 HD
ENDROOT
BRANCH  11  18
ATOM     18  S   UNL     1       0.084  11.520  21.562  0.00  0.00    +0.000 S 
ATOM     19  O   UNL     1      -0.097  11.271  22.977  0.00  0.00    +0.000 OA
ATOM     20  O   UNL     1       1.394  11.810  21.029  0.00  0.00    +0.000 OA
BRANCH  18  21
ATOM     21  C   UNL     1      -0.929  12.957  21.108  0.00  0.00    +0.000 C 
ATOM     22  C   UNL     1      -2.203  12.647  20.374  0.00  0.00    +0.000 C 
ATOM     23  C   UNL     1      -2.253  13.042  21.827  0.00  0.00    +0.000 C 
ENDBRANCH  18  21
ENDBRANCH  11  18
TORSDOF 2
ENDMDL
MODEL 3
REMARK VINA RESULT:      -7.0      1.987      2.986
REMARK  Name = 
REMARK  3 active torsions:
REMARK  status: ('A' for Active; 'I' for Inactive)
REMARK    1  A    between atoms: C_1  and  C_2
REMARK    2  A    between atoms: N_11  and  S_12
REMARK    3  A    between atoms: S_12  and  C_15
REMARK                            x       y       z     vdW  Elec       q    Type
REMARK                         _______ _______ _______ _____ _____    ______ ____
ROOT
ATOM      1  C   UNL     1      -0.860  10.076  22.751  0.00  0.00    +0.000 C 
ATOM      2  C   UNL     1      -0.120   9.656  21.515  0.00  0.00    +0.000 A 
ATOM      3  C   UNL     1      -0.367  10.296  20.290  0.00  0.00    +0.000 A 
ATOM      4  C   UNL     1       0.308   9.930  19.123  0.00  0.00    +0.000 A 
ATOM      5  C   UNL     1       1.242   8.904  19.244  0.00  0.00    +0.000 A 
ATOM      6  N   UNL     1       2.064   8.302  18.334  0.00  0.00    +0.000 N 
ATOM      7  C   UNL     1       2.832   7.367  18.976  0.00  0.00    +0.000 A 
ATOM      8  N   UNL     1       3.780   6.666  18.316  0.00  0.00    +0.000 N 
ATOM      9  C   UNL     1       4.364   7.097  17.044  0.00  0.00    +0.000 C 
ATOM     10  C   UNL     1       5.904   7.060  17.099  0.00  0.00    +0.000 C 
ATOM     11  N   UNL     1       6.435   5.753  17.582  0.00  0.00    +0.000 NA
ATOM     12  C   UNL     1       5.847   5.448  18.936  0.00  0.00    +0.000 C 
ATOM     13  C   UNL     1       4.307   5.424  18.905  0.00  0.00    +0.000 C 
ATOM     14  N   UNL     1       2.488   7.284  20.243  0.00  0.00    +0.000 NA
ATOM     15  C   UNL     1       1.519   8.244  20.430  0.00  0.00    +0.000 A 
ATOM     16  C   UNL     1       0.829   8.619  21.593  0.00  0.00    +0.000 A 
ATOM     17  H   UNL     1       2.090   8.503  17.350  0.00  0.00    +0.000 HD
ENDROOT
BRANCH  11  18
ATOM     18  S   UNL     1       6.373   4.450  16.484  0.00  0.00    +0.000 S 
ATOM     19  O   UNL     1       7.704   3.882  16.433  0.00  0.00    +0.000 OA
ATOM     20  O   UNL     1       5.235   3.625  16.815  0.00  0.00    +0.000 OA
BRANCH  18  21
ATOM     21  C   UNL     1       5.988   5.136  14.848  0.00  0.00    +0.000 C 
ATOM     22  C   UNL     1       7.022   4.896  13.784  0.00  0.00    +0.000 C 
ATOM     23  C   UNL     1       5.743   4.101  13.777  0.00  0.00    +0.000 C 
ENDBRANCH  18  21
ENDBRANCH  11  18
TORSDOF 2
ENDMDL
MODEL 4
REMARK VINA RESULT:      -6.9      1.162      1.385
REMARK  Name = 
REMARK  3 active torsions:
REMARK  status: ('A' for Active; 'I' for Inactive)
REMARK    1  A    between atoms: C_1  and  C_2
REMARK    2  A    between atoms: N_11  and  S_12
REMARK    3  A    between atoms: S_12  and  C_15
REMARK                            x       y       z     vdW  Elec       q    Type
REMARK                         _______ _______ _______ _____ _____    ______ ____
ROOT
ATOM      1  C   UNL     1      -1.676  12.511  21.335  0.00  0.00    +0.000 C 
ATOM      2  C   UNL     1      -0.830  11.282  21.493  0.00  0.00    +0.000 A 
ATOM      3  C   UNL     1      -0.652  10.702  22.759  0.00  0.00    +0.000 A 
ATOM      4  C   UNL     1       0.127   9.556  22.937  0.00  0.00    +0.000 A 
ATOM      5  C   UNL     1       0.709   9.018  21.792  0.00  0.00    +0.000 A 
ATOM      6  N   UNL     1       1.514   7.932  21.598  0.00  0.00    +0.000 N 
ATOM      7  C   UNL     1       1.778   7.807  20.259  0.00  0.00    +0.000 A 
ATOM      8  N   UNL     1       2.505   6.772  19.784  0.00  0.00    +0.000 N 
ATOM      9  C   UNL     1       2.705   5.520  20.516  0.00  0.00    +0.000 C 
ATOM     10  C   UNL     1       2.383   4.300  19.631  0.00  0.00    +0.000 C 
ATOM     11  N   UNL     1       3.087   4.336  18.317  0.00  0.00    +0.000 NA
ATOM     12  C   UNL     1       2.741   5.618  17.603  0.00  0.00    +0.000 C 
ATOM     13  C   UNL     1       3.101   6.860  18.440  0.00  0.00    +0.000 C 
ATOM     14  N   UNL     1       1.246   8.806  19.591  0.00  0.00    +0.000 NA
ATOM     15  C   UNL     1       0.562   9.556  20.523  0.00  0.00    +0.000 A 
ATOM     16  C   UNL     1      -0.220  10.710  20.361  0.00  0.00    +0.000 A 
ATOM     17  H   UNL     1       1.867   7.331  22.321  0.00  0.00    +0.000 HD
ENDROOT
BRANCH  11  18
ATOM     18  S   UNL     1       4.753   3.973  18.332  0.00  0.00    +0.000 S 
ATOM     19  O   UNL     1       5.009   3.232  19.549  0.00  0.00    +0.000 OA
ATOM     20  O   UNL     1       5.113   3.421  17.047  0.00  0.00    +0.000 OA
BRANCH  18  21
ATOM     21  C   UNL     1       5.652   5.547  18.429  0.00  0.00    +0.000 C 
ATOM     22  C   UNL     1       6.910   5.526  19.250  0.00  0.00    +0.000 C 
ATOM     23  C   UNL     1       6.998   5.542  17.746  0.00  0.00    +0.000 C 
ENDBRANCH  18  21
ENDBRANCH  11  18
TORSDOF 2
ENDMDL
MODEL 5
REMARK VINA RESULT:      -6.8      3.832      7.939
REMARK  Name = 
REMARK  3 active torsions:
REMARK  status: ('A' for Active; 'I' for Inactive)
REMARK    1  A    between atoms: C_1  and  C_2
REMARK    2  A    between atoms: N_11  and  S_12
REMARK    3  A    between atoms: S_12  and  C_15
REMARK                            x       y       z     vdW  Elec       q    Type
REMARK                         _______ _______ _______ _____ _____    ______ ____
ROOT
ATOM      1  C   UNL     1       3.852   1.694  18.888  0.00  0.00    +0.000 C 
ATOM      2  C   UNL     1       3.657   3.159  18.626  0.00  0.00    +0.000 A 
ATOM      3  C   UNL     1       4.188   3.749  17.468  0.00  0.00    +0.000 A 
ATOM      4  C   UNL     1       4.020   5.109  17.195  0.00  0.00    +0.000 A 
ATOM      5  C   UNL     1       3.293   5.843  18.129  0.00  0.00    +0.000 A 
ATOM      6  N   UNL     1       2.945   7.162  18.186  0.00  0.00    +0.000 N 
ATOM      7  C   UNL     1       2.179   7.373  19.302  0.00  0.00    +0.000 A 
ATOM      8  N   UNL     1       1.646   8.587  19.566  0.00  0.00    +0.000 N 
ATOM      9  C   UNL     1       1.460   9.625  18.551  0.00  0.00    +0.000 C 
ATOM     10  C   UNL     1       0.023  10.182  18.582  0.00  0.00    +0.000 C 
ATOM     11  N   UNL     1      -0.405  10.604  19.947  0.00  0.00    +0.000 NA
ATOM     12  C   UNL     1      -0.265   9.439  20.894  0.00  0.00    +0.000 C 
ATOM     13  C   UNL     1       1.174   8.892  20.927  0.00  0.00    +0.000 C 
ATOM     14  N   UNL     1       2.084   6.268  20.009  0.00  0.00    +0.000 NA
ATOM     15  C   UNL     1       2.751   5.305  19.285  0.00  0.00    +0.000 A 
ATOM     16  C   UNL     1       2.932   3.938  19.548  0.00  0.00    +0.000 A 
ATOM     17  H   UNL     1       3.217   7.866  17.523  0.00  0.00    +0.000 HD
ENDROOT
BRANCH  11  18
ATOM     18  S   UNL     1       0.248  12.065  20.536  0.00  0.00    +0.000 S 
ATOM     19  O   UNL     1      -0.830  12.768  21.199  0.00  0.00    +0.000 OA
ATOM     20  O   UNL     1       1.474  11.769  21.239  0.00  0.00    +0.000 OA
BRANCH  18  21
ATOM     21  C   UNL     1       0.764  13.047  19.099  0.00  0.00    +0.000 C 
ATOM     22  C   UNL     1      -0.188  14.132  18.679  0.00  0.00    +0.000 C 
ATOM     23  C   UNL     1       1.080  14.490  19.408  0.00  0.00    +0.000 C 
ENDBRANCH  18  21
ENDBRANCH  11  18
TORSDOF 2
ENDMDL
MODEL 6
REMARK VINA RESULT:      -6.7      7.821     10.309
REMARK  Name = 
REMARK  3 active torsions:
REMARK  status: ('A' for Active; 'I' for Inactive)
REMARK    1  A    between atoms: C_1  and  C_2
REMARK    2  A    between atoms: N_11  and  S_12
REMARK    3  A    between atoms: S_12  and  C_15
REMARK                            x       y       z     vdW  Elec       q    Type
REMARK                         _______ _______ _______ _____ _____    ______ ____
ROOT
ATOM      1  C   UNL     1       6.309   4.244  15.896  0.00  0.00    +0.000 C 
ATOM      2  C   UNL     1       6.935   5.224  16.845  0.00  0.00    +0.000 A 
ATOM      3  C   UNL     1       7.415   4.795  18.093  0.00  0.00    +0.000 A 
ATOM      4  C   UNL     1       8.005   5.683  18.996  0.00  0.00    +0.000 A 
ATOM      5  C   UNL     1       8.099   7.011  18.588  0.00  0.00    +0.000 A 
ATOM      6  N   UNL     1       8.603   8.123  19.199  0.00  0.00    +0.000 N 
ATOM      7  C   UNL     1       8.495   9.189  18.345  0.00  0.00    +0.000 A 
ATOM      8  N   UNL     1       8.979  10.405  18.680  0.00  0.00    +0.000 N 
ATOM      9  C   UNL     1       9.991  10.615  19.717  0.00  0.00    +0.000 C 
ATOM     10  C   UNL     1      11.148  11.490  19.197  0.00  0.00    +0.000 C 
ATOM     11  N   UNL     1      10.677  12.755  18.563  0.00  0.00    +0.000 NA
ATOM     12  C   UNL     1       9.716  12.426  17.449  0.00  0.00    +0.000 C 
ATOM     13  C   UNL     1       8.518  11.597  17.947  0.00  0.00    +0.000 C 
ATOM     14  N   UNL     1       7.874   8.832  17.243  0.00  0.00    +0.000 NA
ATOM     15  C   UNL     1       7.640   7.480  17.367  0.00  0.00    +0.000 A 
ATOM     16  C   UNL     1       7.044   6.578  16.473  0.00  0.00    +0.000 A 
ATOM     17  H   UNL     1       8.978   8.157  20.130  0.00  0.00    +0.000 HD
ENDROOT
BRANCH  11  18
ATOM     18  S   UNL     1      10.133  13.981  19.616  0.00  0.00    +0.000 S 
ATOM     19  O   UNL     1       9.212  14.804  18.861  0.00  0.00    +0.000 OA
ATOM     20  O   UNL     1       9.722  13.369  20.858  0.00  0.00    +0.000 OA
BRANCH  18  21
ATOM     21  C   UNL     1      11.571  14.999  20.055  0.00  0.00    +0.000 C 
ATOM     22  C   UNL     1      11.588  16.383  19.472  0.00  0.00    +0.000 C 
ATOM     23  C   UNL     1      11.253  16.188  20.928  0.00  0.00    +0.000 C 
ENDBRANCH  18  21
ENDBRANCH  11  18
TORSDOF 2
ENDMDL
MODEL 7
REMARK VINA RESULT:      -6.6      3.754      8.269
REMARK  Name = 
REMARK  3 active torsions:
REMARK  status: ('A' for Active; 'I' for Inactive)
REMARK    1  A    between atoms: C_1  and  C_2
REMARK    2  A    between atoms: N_11  and  S_12
REMARK    3  A    between atoms: S_12  and  C_15
REMARK                            x       y       z     vdW  Elec       q    Type
REMARK                         _______ _______ _______ _____ _____    ______ ____
ROOT
ATOM      1  C   UNL     1       3.995   2.123  19.463  0.00  0.00    +0.000 C 
ATOM      2  C   UNL     1       3.667   3.542  19.099  0.00  0.00    +0.000 A 
ATOM      3  C   UNL     1       4.010   4.047  17.836  0.00  0.00    +0.000 A 
ATOM      4  C   UNL     1       3.715   5.361  17.467  0.00  0.00    +0.000 A 
ATOM      5  C   UNL     1       3.055   6.138  18.416  0.00  0.00    +0.000 A 
ATOM      6  N   UNL     1       2.623   7.433  18.399  0.00  0.00    +0.000 N 
ATOM      7  C   UNL     1       1.984   7.706  19.580  0.00  0.00    +0.000 A 
ATOM      8  N   UNL     1       1.402   8.905  19.800  0.00  0.00    +0.000 N 
ATOM      9  C   UNL     1       1.022   9.828  18.728  0.00  0.00    +0.000 C 
ATOM     10  C   UNL     1      -0.437  10.298  18.891  0.00  0.00    +0.000 C 
ATOM     11  N   UNL     1      -0.726  10.824  20.257  0.00  0.00    +0.000 NA
ATOM     12  C   UNL     1      -0.391   9.767  21.278  0.00  0.00    +0.000 C 
ATOM     13  C   UNL     1       1.077   9.313  21.177  0.00  0.00    +0.000 C 
ATOM     14  N   UNL     1       2.054   6.671  20.388  0.00  0.00    +0.000 NA
ATOM     15  C   UNL     1       2.696   5.683  19.675  0.00  0.00    +0.000 A 
ATOM     16  C   UNL     1       3.004   4.362  20.033  0.00  0.00    +0.000 A 
ATOM     17  H   UNL     1       2.763   8.085  17.647  0.00  0.00    +0.000 HD
ENDROOT
BRANCH  11  18
ATOM     18  S   UNL     1      -0.113  12.372  20.626  0.00  0.00    +0.000 S 
ATOM     19  O   UNL     1       1.057  12.172  21.455  0.00  0.00    +0.000 OA
ATOM     20  O   UNL     1      -0.024  13.133  19.402  0.00  0.00    +0.000 OA
BRANCH  18  21
ATOM     21  C   UNL     1      -1.368  13.232  21.616  0.00  0.00    +0.000 C 
ATOM     22  C   UNL     1      -1.241  13.073  23.105  0.00  0.00    +0.000 C 
ATOM     23  C   UNL     1      -0.833  14.368  22.453  0.00  0.00    +0.000 C 
ENDBRANCH  18  21
ENDBRANCH  11  18
TORSDOF 2
ENDMDL
MODEL 8
REMARK VINA RESULT:      -6.6      1.283      1.621
REMARK  Name = 
REMARK  3 active torsions:
REMARK  status: ('A' for Active; 'I' for Inactive)
REMARK    1  A    between atoms: C_1  and  C_2
REMARK    2  A    between atoms: N_11  and  S_12
REMARK    3  A    between atoms: S_12  and  C_15
REMARK                            x       y       z     vdW  Elec       q    Type
REMARK                         _______ _______ _______ _____ _____    ______ ____
ROOT
ATOM      1  C   UNL     1      -2.230  13.160  21.759  0.00  0.00    +0.000 C 
ATOM      2  C   UNL     1      -1.422  11.900  21.856  0.00  0.00    +0.000 A 
ATOM      3  C   UNL     1      -1.327  11.212  23.076  0.00  0.00    +0.000 A 
ATOM      4  C   UNL     1      -0.585  10.034  23.198  0.00  0.00    +0.000 A 
ATOM      5  C   UNL     1       0.046   9.578  22.043  0.00  0.00    +0.000 A 
ATOM      6  N   UNL     1       0.836   8.490  21.801  0.00  0.00    +0.000 N 
ATOM      7  C   UNL     1       1.170   8.470  20.472  0.00  0.00    +0.000 A 
ATOM      8  N   UNL     1       1.898   7.458  19.949  0.00  0.00    +0.000 N 
ATOM      9  C   UNL     1       2.029   6.145  20.583  0.00  0.00    +0.000 C 
ATOM     10  C   UNL     1       1.728   5.012  19.582  0.00  0.00    +0.000 C 
ATOM     11  N   UNL     1       2.504   5.138  18.315  0.00  0.00    +0.000 NA
ATOM     12  C   UNL     1       2.227   6.484  17.695  0.00  0.00    +0.000 C 
ATOM     13  C   UNL     1       2.568   7.642  18.651  0.00  0.00    +0.000 C 
ATOM     14  N   UNL     1       0.698   9.535  19.864  0.00  0.00    +0.000 NA
ATOM     15  C   UNL     1      -0.019  10.223  20.818  0.00  0.00    +0.000 A 
ATOM     16  C   UNL     1      -0.764  11.407  20.713  0.00  0.00    +0.000 A 
ATOM     17  H   UNL     1       1.135   7.821  22.488  0.00  0.00    +0.000 HD
ENDROOT
BRANCH  11  18
ATOM     18  S   UNL     1       4.158   4.729  18.387  0.00  0.00    +0.000 S 
ATOM     19  O   UNL     1       4.821   5.481  17.343  0.00  0.00    +0.000 OA
ATOM     20  O   UNL     1       4.596   4.834  19.759  0.00  0.00    +0.000 OA
BRANCH  18  21
ATOM     21  C   UNL     1       4.299   2.964  17.989  0.00  0.00    +0.000 C 
ATOM     22  C   UNL     1       3.760   2.019  19.025  0.00  0.00    +0.000 C 
ATOM     23  C   UNL     1       2.980   2.266  17.760  0.00  0.00    +0.000 C 
ENDBRANCH  18  21
ENDBRANCH  11  18
TORSDOF 2
ENDMDL
MODEL 9
REMARK VINA RESULT:      -6.5      3.710      8.207
REMARK  Name = 
REMARK  3 active torsions:
REMARK  status: ('A' for Active; 'I' for Inactive)
REMARK    1  A    between atoms: C_1  and  C_2
REMARK    2  A    between atoms: N_11  and  S_12
REMARK    3  A    between atoms: S_12  and  C_15
REMARK                            x       y       z     vdW  Elec       q    Type
REMARK                         _______ _______ _______ _____ _____    ______ ____
ROOT
ATOM      1  C   UNL     1       5.565   4.176  15.969  0.00  0.00    +0.000 C 
ATOM      2  C   UNL     1       4.690   4.632  17.100  0.00  0.00    +0.000 A 
ATOM      3  C   UNL     1       4.393   3.763  18.161  0.00  0.00    +0.000 A 
ATOM      4  C   UNL     1       3.585   4.160  19.229  0.00  0.00    +0.000 A 
ATOM      5  C   UNL     1       3.099   5.464  19.187  0.00  0.00    +0.000 A 
ATOM      6  N   UNL     1       2.298   6.170  20.038  0.00  0.00    +0.000 N 
ATOM      7  C   UNL     1       2.151   7.445  19.557  0.00  0.00    +0.000 A 
ATOM      8  N   UNL     1       1.454   8.376  20.245  0.00  0.00    +0.000 N 
ATOM      9  C   UNL     1       1.172   8.279  21.679  0.00  0.00    +0.000 C 
ATOM     10  C   UNL     1       1.554   9.582  22.410  0.00  0.00    +0.000 C 
ATOM     11  N   UNL     1       0.968  10.796  21.771  0.00  0.00    +0.000 NA
ATOM     12  C   UNL     1       1.395  10.852  20.326  0.00  0.00    +0.000 C 
ATOM     13  C   UNL     1       0.981   9.587  19.553  0.00  0.00    +0.000 C 
ATOM     14  N   UNL     1       2.755   7.569  18.396  0.00  0.00    +0.000 NA
ATOM     15  C   UNL     1       3.365   6.357  18.161  0.00  0.00    +0.000 A 
ATOM     16  C   UNL     1       4.174   5.942  17.093  0.00  0.00    +0.000 A 
ATOM     17  H   UNL     1       1.875   5.810  20.875  0.00  0.00    +0.000 HD
ENDROOT
BRANCH  11  18
ATOM     18  S   UNL     1      -0.697  11.063  22.019  0.00  0.00    +0.000 S 
ATOM     19  O   UNL     1      -1.327  11.020  20.717  0.00  0.00    +0.000 OA
ATOM     20  O   UNL     1      -1.147  10.194  23.082  0.00  0.00    +0.000 OA
BRANCH  18  21
ATOM     21  C   UNL     1      -0.886  12.742  22.683  0.00  0.00    +0.000 C 
ATOM     22  C   UNL     1      -1.636  13.705  21.808  0.00  0.00    +0.000 C 
ATOM     23  C   UNL     1      -2.306  13.124  23.025  0.00  0.00    +0.000 C 
ENDBRANCH  18  21
ENDBRANCH  11  18
TORSDOF 2
ENDMDL
