MODEL 1
REMARK VINA RESULT:      -8.4      0.000      0.000
REMARK  Name = 
REMARK  11 active torsions:
REMARK  status: ('A' for Active; 'I' for Inactive)
REMARK    1  A    between atoms: C_1  and  C_2
REMARK    2  A    between atoms: C_2  and  C_3
REMARK    3  A    between atoms: C_3  and  C_4
REMARK    4  A    between atoms: C_4  and  C_5
REMARK    5  A    between atoms: C_4  and  C_28
REMARK    6  A    between atoms: N_7  and  C_8
REMARK    7  A    between atoms: C_11  and  C_12
REMARK    8  A    between atoms: C_12  and  C_13
REMARK    9  A    between atoms: C_16  and  C_17
REMARK   10  A    between atoms: C_17  and  O_18
REMARK   11  A    between atoms: C_17  and  C_19
REMARK                            x       y       z     vdW  Elec       q    Type
REMARK                         _______ _______ _______ _____ _____    ______ ____
ROOT
ATOM      1  C   UNL     1       2.408   7.322  19.009  0.00  0.00    +0.000 A 
ATOM      2  C   UNL     1       1.757   7.791  20.152  0.00  0.00    +0.000 A 
ATOM      3  C   UNL     1       1.100   9.020  20.160  0.00  0.00    +0.000 A 
ATOM      4  C   UNL     1       1.074   9.827  19.019  0.00  0.00    +0.000 A 
ATOM      5  C   UNL     1       1.723   9.360  17.865  0.00  0.00    +0.000 A 
ATOM      6  C   UNL     1       2.385   8.123  17.859  0.00  0.00    +0.000 A 
ENDROOT
BRANCH   1   9
ATOM      7  C   UNL     1       2.645   4.928  18.301  0.00  0.00    +0.000 C 
ATOM      8  O   UNL     1       1.585   4.821  17.689  0.00  0.00    +0.000 OA
ATOM      9  N   UNL     1       3.087   6.082  18.940  0.00  0.00    +0.000 N 
ATOM     10  H   UNL     1       3.955   6.011  19.466  0.00  0.00    +0.000 HD
BRANCH   7  11
ATOM     11  C   UNL     1       3.617   3.740  18.421  0.00  0.00    +0.000 C 
BRANCH  11  12
ATOM     12  C   UNL     1       5.029   4.242  18.234  0.00  0.00    +0.000 A 
ATOM     13  C   UNL     1       5.731   4.318  17.046  0.00  0.00    +0.000 A 
ATOM     14  S   UNL     1       7.290   4.964  17.322  0.00  0.00    +0.000 S 
ATOM     15  C   UNL     1       6.929   5.092  18.995  0.00  0.00    +0.000 A 
ATOM     16  N   UNL     1       7.817   5.606  19.857  0.00  0.00    +0.000 N 
ATOM     17  N   UNL     1       5.737   4.673  19.349  0.00  0.00    +0.000 NA
ATOM     18  H   UNL     1       8.540   6.207  19.481  0.00  0.00    +0.000 HD
ATOM     19  H   UNL     1       7.433   5.926  20.741  0.00  0.00    +0.000 HD
ENDBRANCH  11  12
BRANCH  11  20
ATOM     20  C   UNL     1       3.494   3.000  19.774  0.00  0.00    +0.000 C 
BRANCH  20  22
ATOM     21  C   UNL     1       1.912   3.176  21.726  0.00  0.00    +0.000 C 
ATOM     22  C   UNL     1       2.057   2.782  20.261  0.00  0.00    +0.000 C 
ENDBRANCH  20  22
ENDBRANCH  11  20
ENDBRANCH   7  11
ENDBRANCH   1   9
BRANCH   4  23
ATOM     23  C   UNL     1       0.325  11.141  19.010  0.00  0.00    +0.000 C 
BRANCH  23  24
ATOM     24  C   UNL     1       0.938  12.261  19.874  0.00  0.00    +0.000 C 
ATOM     25  C   UNL     1       0.138  12.475  21.153  0.00  0.00    +0.000 C 
ATOM     26  C   UNL     1       0.375  13.930  21.512  0.00  0.00    +0.000 C 
ATOM     27  C   UNL     1       0.711  14.636  20.194  0.00  0.00    +0.000 C 
ATOM     28  N   UNL     1       0.875  13.558  19.202  0.00  0.00    +0.000 NA
ATOM     29  H   UNL     1       1.706  13.701  18.626  0.00  0.00    +0.000 HD
BRANCH  27  30
ATOM     30  C   UNL     1      -0.371  15.662  19.708  0.00  0.00    +0.000 C 
BRANCH  30  31
ATOM     31  C   UNL     1       0.115  16.616  18.627  0.00  0.00    +0.000 A 
ATOM     32  C   UNL     1       1.484  16.720  18.336  0.00  0.00    +0.000 A 
ATOM     33  C   UNL     1       1.943  17.608  17.360  0.00  0.00    +0.000 A 
ATOM     34  C   UNL     1       1.041  18.398  16.651  0.00  0.00    +0.000 A 
ATOM     35  C   UNL     1      -0.323  18.286  16.903  0.00  0.00    +0.000 A 
ATOM     36  C   UNL     1      -0.781  17.398  17.877  0.00  0.00    +0.000 A 
ENDBRANCH  30  31
BRANCH  30  37
ATOM     37  O   UNL     1      -0.914  16.408  20.807  0.00  0.00    +0.000 OA
ATOM     38  H   UNL     1      -1.790  16.037  20.991  0.00  0.00    +0.000 HD
ENDBRANCH  30  37
ENDBRANCH  27  30
ENDBRANCH  23  24
ENDBRANCH   4  23
TORSDOF 10
ENDMDL
MODEL 2
REMARK VINA RESULT:      -8.2      3.588     10.345
REMARK  Name = 
REMARK  11 active torsions:
REMARK  status: ('A' for Active; 'I' for Inactive)
REMARK    1  A    between atoms: C_1  and  C_2
REMARK    2  A    between atoms: C_2  and  C_3
REMARK    3  A    between atoms: C_3  and  C_4
REMARK    4  A    between atoms: C_4  and  C_5
REMARK    5  A    between atoms: C_4  and  C_28
REMARK    6  A    between atoms: N_7  and  C_8
REMARK    7  A    between atoms: C_11  and  C_12
REMARK    8  A    between atoms: C_12  and  C_13
REMARK    9  A    between atoms: C_16  and  C_17
REMARK   10  A    between atoms: C_17  and  O_18
REMARK   11  A    between atoms: C_17  and  C_19
REMARK                            x       y       z     vdW  Elec       q    Type
REMARK                         _______ _______ _______ _____ _____    ______ ____
ROOT
ATOM      1  C   UNL     1       1.712   8.192  20.014  0.00  0.00    +0.000 A 
ATOM      2  C   UNL     1       2.157   8.030  18.701  0.00  0.00    +0.000 A 
ATOM      3  C   UNL     1       2.472   6.772  18.191  0.00  0.00    +0.000 A 
ATOM      4  C   UNL     1       2.353   5.627  18.984  0.00  0.00    +0.000 A 
ATOM      5  C   UNL     1       1.903   5.782  20.304  0.00  0.00    +0.000 A 
ATOM      6  C   UNL     1       1.588   7.050  20.816  0.00  0.00    +0.000 A 
ENDROOT
BRANCH   1   9
ATOM      7  C   UNL     1       0.156  10.105  20.472  0.00  0.00    +0.000 C 
ATOM      8  O   UNL     1      -0.821   9.686  19.854  0.00  0.00    +0.000 OA
ATOM      9  N   UNL     1       1.375   9.443  20.585  0.00  0.00    +0.000 N 
ATOM     10  H   UNL     1       2.120   9.936  21.071  0.00  0.00    +0.000 HD
BRANCH   7  11
ATOM     11  C   UNL     1       0.114  11.458  21.203  0.00  0.00    +0.000 C 
BRANCH  11  12
ATOM     12  C   UNL     1       0.730  12.513  20.316  0.00  0.00    +0.000 A 
ATOM     13  C   UNL     1       0.661  13.884  20.488  0.00  0.00    +0.000 A 
ATOM     14  S   UNL     1       1.523  14.677  19.242  0.00  0.00    +0.000 S 
ATOM     15  C   UNL     1       1.920  13.154  18.559  0.00  0.00    +0.000 A 
ATOM     16  N   UNL     1       2.684  13.065  17.463  0.00  0.00    +0.000 N 
ATOM     17  N   UNL     1       1.441  12.110  19.193  0.00  0.00    +0.000 NA
ATOM     18  H   UNL     1       3.283  13.852  17.245  0.00  0.00    +0.000 HD
ATOM     19  H   UNL     1       3.119  12.161  17.305  0.00  0.00    +0.000 HD
ENDBRANCH  11  12
BRANCH  11  20
ATOM     20  C   UNL     1      -1.320  11.878  21.605  0.00  0.00    +0.000 C 
BRANCH  20  22
ATOM     21  C   UNL     1      -1.681  13.551  23.454  0.00  0.00    +0.000 C 
ATOM     22  C   UNL     1      -1.537  12.074  23.110  0.00  0.00    +0.000 C 
ENDBRANCH  20  22
ENDBRANCH  11  20
ENDBRANCH   7  11
ENDBRANCH   1   9
BRANCH   4  23
ATOM     23  C   UNL     1       2.651   4.254  18.422  0.00  0.00    +0.000 C 
BRANCH  23  24
ATOM     24  C   UNL     1       4.145   3.879  18.343  0.00  0.00    +0.000 C 
ATOM     25  C   UNL     1       5.006   4.866  19.121  0.00  0.00    +0.000 C 
ATOM     26  C   UNL     1       6.355   4.823  18.428  0.00  0.00    +0.000 C 
ATOM     27  C   UNL     1       6.071   4.377  16.990  0.00  0.00    +0.000 C 
ATOM     28  N   UNL     1       4.654   3.973  16.976  0.00  0.00    +0.000 NA
ATOM     29  H   UNL     1       4.521   3.088  16.485  0.00  0.00    +0.000 HD
BRANCH  27  30
ATOM     30  C   UNL     1       6.334   5.476  15.902  0.00  0.00    +0.000 C 
BRANCH  30  31
ATOM     31  C   UNL     1       6.542   4.926  14.497  0.00  0.00    +0.000 A 
ATOM     32  C   UNL     1       5.669   3.955  13.981  0.00  0.00    +0.000 A 
ATOM     33  C   UNL     1       5.863   3.429  12.701  0.00  0.00    +0.000 A 
ATOM     34  C   UNL     1       6.923   3.872  11.913  0.00  0.00    +0.000 A 
ATOM     35  C   UNL     1       7.778   4.857  12.396  0.00  0.00    +0.000 A 
ATOM     36  C   UNL     1       7.585   5.384  13.674  0.00  0.00    +0.000 A 
ENDBRANCH  30  31
BRANCH  30  37
ATOM     37  O   UNL     1       7.441   6.315  16.264  0.00  0.00    +0.000 OA
ATOM     38  H   UNL     1       8.059   6.300  15.518  0.00  0.00    +0.000 HD
ENDBRANCH  30  37
ENDBRANCH  27  30
ENDBRANCH  23  24
ENDBRANCH   4  23
TORSDOF 10
ENDMDL
MODEL 3
REMARK VINA RESULT:      -8.1      2.025      3.288
REMARK  Name = 
REMARK  11 active torsions:
REMARK  status: ('A' for Active; 'I' for Inactive)
REMARK    1  A    between atoms: C_1  and  C_2
REMARK    2  A    between atoms: C_2  and  C_3
REMARK    3  A    between atoms: C_3  and  C_4
REMARK    4  A    between atoms: C_4  and  C_5
REMARK    5  A    between atoms: C_4  and  C_28
REMARK    6  A    between atoms: N_7  and  C_8
REMARK    7  A    between atoms: C_11  and  C_12
REMARK    8  A    between atoms: C_12  and  C_13
REMARK    9  A    between atoms: C_16  and  C_17
REMARK   10  A    between atoms: C_17  and  O_18
REMARK   11  A    between atoms: C_17  and  C_19
REMARK                            x       y       z     vdW  Elec       q    Type
REMARK                         _______ _______ _______ _____ _____    ______ ____
ROOT
ATOM      1  C   UNL     1       2.471   6.736  18.705  0.00  0.00    +0.000 A 
ATOM      2  C   UNL     1       2.082   6.867  20.040  0.00  0.00    +0.000 A 
ATOM      3  C   UNL     1       1.496   8.039  20.514  0.00  0.00    +0.000 A 
ATOM      4  C   UNL     1       1.281   9.127  19.664  0.00  0.00    +0.000 A 
ATOM      5  C   UNL     1       1.666   9.002  18.321  0.00  0.00    +0.000 A 
ATOM      6  C   UNL     1       2.257   7.821  17.845  0.00  0.00    +0.000 A 
ENDROOT
BRANCH   1   9
ATOM      7  C   UNL     1       2.404   4.487  17.598  0.00  0.00    +0.000 C 
ATOM      8  O   UNL     1       1.185   4.389  17.475  0.00  0.00    +0.000 OA
ATOM      9  N   UNL     1       3.067   5.571  18.167  0.00  0.00    +0.000 N 
ATOM     10  H   UNL     1       4.076   5.490  18.265  0.00  0.00    +0.000 HD
BRANCH   7  11
ATOM     11  C   UNL     1       3.343   3.368  17.115  0.00  0.00    +0.000 C 
BRANCH  11  12
ATOM     12  C   UNL     1       4.730   3.937  16.935  0.00  0.00    +0.000 A 
ATOM     13  C   UNL     1       5.310   4.346  15.748  0.00  0.00    +0.000 A 
ATOM     14  S   UNL     1       6.890   4.934  16.036  0.00  0.00    +0.000 S 
ATOM     15  C   UNL     1       6.699   4.599  17.708  0.00  0.00    +0.000 A 
ATOM     16  N   UNL     1       7.670   4.885  18.587  0.00  0.00    +0.000 N 
ATOM     17  N   UNL     1       5.548   4.070  18.050  0.00  0.00    +0.000 NA
ATOM     18  H   UNL     1       8.352   5.583  18.318  0.00  0.00    +0.000 HD
ATOM     19  H   UNL     1       7.377   4.947  19.556  0.00  0.00    +0.000 HD
ENDBRANCH  11  12
BRANCH  11  20
ATOM     20  C   UNL     1       3.389   2.163  18.085  0.00  0.00    +0.000 C 
BRANCH  20  22
ATOM     21  C   UNL     1       3.332   2.612  20.563  0.00  0.00    +0.000 C 
ATOM     22  C   UNL     1       2.499   2.301  19.326  0.00  0.00    +0.000 C 
ENDBRANCH  20  22
ENDBRANCH  11  20
ENDBRANCH   7  11
ENDBRANCH   1   9
BRANCH   4  23
ATOM     23  C   UNL     1       0.605  10.385  20.164  0.00  0.00    +0.000 C 
BRANCH  23  24
ATOM     24  C   UNL     1       0.840  11.648  19.312  0.00  0.00    +0.000 C 
ATOM     25  C   UNL     1       1.915  12.537  19.924  0.00  0.00    +0.000 C 
ATOM     26  C   UNL     1       1.564  13.937  19.457  0.00  0.00    +0.000 C 
ATOM     27  C   UNL     1       0.056  13.920  19.183  0.00  0.00    +0.000 C 
ATOM     28  N   UNL     1      -0.345  12.505  19.279  0.00  0.00    +0.000 NA
ATOM     29  H   UNL     1      -0.957  12.236  18.508  0.00  0.00    +0.000 HD
BRANCH  27  30
ATOM     30  C   UNL     1      -0.795  14.795  20.168  0.00  0.00    +0.000 C 
BRANCH  30  31
ATOM     31  C   UNL     1      -1.553  13.994  21.217  0.00  0.00    +0.000 A 
ATOM     32  C   UNL     1      -0.899  13.548  22.377  0.00  0.00    +0.000 A 
ATOM     33  C   UNL     1      -1.580  12.794  23.337  0.00  0.00    +0.000 A 
ATOM     34  C   UNL     1      -2.926  12.484  23.158  0.00  0.00    +0.000 A 
ATOM     35  C   UNL     1      -3.599  12.944  22.032  0.00  0.00    +0.000 A 
ATOM     36  C   UNL     1      -2.919  13.699  21.074  0.00  0.00    +0.000 A 
ENDBRANCH  30  31
BRANCH  30  37
ATOM     37  O   UNL     1      -1.704  15.648  19.457  0.00  0.00    +0.000 OA
ATOM     38  H   UNL     1      -2.004  16.322  20.085  0.00  0.00    +0.000 HD
ENDBRANCH  30  37
ENDBRANCH  27  30
ENDBRANCH  23  24
ENDBRANCH   4  23
TORSDOF 10
ENDMDL
MODEL 4
REMARK VINA RESULT:      -8.1      2.966      3.920
REMARK  Name = 
REMARK  11 active torsions:
REMARK  status: ('A' for Active; 'I' for Inactive)
REMARK    1  A    between atoms: C_1  and  C_2
REMARK    2  A    between atoms: C_2  and  C_3
REMARK    3  A    between atoms: C_3  and  C_4
REMARK    4  A    between atoms: C_4  and  C_5
REMARK    5  A    between atoms: C_4  and  C_28
REMARK    6  A    between atoms: N_7  and  C_8
REMARK    7  A    between atoms: C_11  and  C_12
REMARK    8  A    between atoms: C_12  and  C_13
REMARK    9  A    between atoms: C_16  and  C_17
REMARK   10  A    between atoms: C_17  and  O_18
REMARK   11  A    between atoms: C_17  and  C_19
REMARK                            x       y       z     vdW  Elec       q    Type
REMARK                         _______ _______ _______ _____ _____    ______ ____
ROOT
ATOM      1  C   UNL     1       2.513   6.873  18.651  0.00  0.00    +0.000 A 
ATOM      2  C   UNL     1       2.344   7.942  17.770  0.00  0.00    +0.000 A 
ATOM      3  C   UNL     1       1.780   9.146  18.189  0.00  0.00    +0.000 A 
ATOM      4  C   UNL     1       1.361   9.319  19.511  0.00  0.00    +0.000 A 
ATOM      5  C   UNL     1       1.531   8.249  20.403  0.00  0.00    +0.000 A 
ATOM      6  C   UNL     1       2.098   7.037  19.979  0.00  0.00    +0.000 A 
ENDROOT
BRANCH   1   9
ATOM      7  C   UNL     1       2.415   4.545  17.723  0.00  0.00    +0.000 C 
ATOM      8  O   UNL     1       1.216   4.513  17.458  0.00  0.00    +0.000 OA
ATOM      9  N   UNL     1       3.083   5.630  18.284  0.00  0.00    +0.000 N 
ATOM     10  H   UNL     1       4.065   5.495  18.512  0.00  0.00    +0.000 HD
BRANCH   7  11
ATOM     11  C   UNL     1       3.322   3.331  17.449  0.00  0.00    +0.000 C 
BRANCH  11  12
ATOM     12  C   UNL     1       4.719   3.822  17.150  0.00  0.00    +0.000 A 
ATOM     13  C   UNL     1       5.264   4.058  15.901  0.00  0.00    +0.000 A 
ATOM     14  S   UNL     1       6.872   4.619  16.057  0.00  0.00    +0.000 S 
ATOM     15  C   UNL     1       6.737   4.502  17.764  0.00  0.00    +0.000 A 
ATOM     16  N   UNL     1       7.750   4.859  18.564  0.00  0.00    +0.000 N 
ATOM     17  N   UNL     1       5.584   4.063  18.210  0.00  0.00    +0.000 NA
ATOM     18  H   UNL     1       8.444   5.493  18.186  0.00  0.00    +0.000 HD
ATOM     19  H   UNL     1       7.498   5.052  19.528  0.00  0.00    +0.000 HD
ENDBRANCH  11  12
BRANCH  11  20
ATOM     20  C   UNL     1       3.356   2.330  18.628  0.00  0.00    +0.000 C 
BRANCH  20  22
ATOM     21  C   UNL     1       2.647   2.856  20.988  0.00  0.00    +0.000 C 
ATOM     22  C   UNL     1       2.175   2.439  19.600  0.00  0.00    +0.000 C 
ENDBRANCH  20  22
ENDBRANCH  11  20
ENDBRANCH   7  11
ENDBRANCH   1   9
BRANCH   4  23
ATOM     23  C   UNL     1       0.789  10.638  19.981  0.00  0.00    +0.000 C 
BRANCH  23  24
ATOM     24  C   UNL     1      -0.751  10.722  20.008  0.00  0.00    +0.000 C 
ATOM     25  C   UNL     1      -1.295  11.320  18.716  0.00  0.00    +0.000 C 
ATOM     26  C   UNL     1      -2.607  11.967  19.119  0.00  0.00    +0.000 C 
ATOM     27  C   UNL     1      -2.471  12.294  20.610  0.00  0.00    +0.000 C 
ATOM     28  N   UNL     1      -1.224  11.640  21.043  0.00  0.00    +0.000 NA
ATOM     29  H   UNL     1      -1.348  11.145  21.927  0.00  0.00    +0.000 HD
BRANCH  27  30
ATOM     30  C   UNL     1      -2.424  13.827  20.939  0.00  0.00    +0.000 C 
BRANCH  30  31
ATOM     31  C   UNL     1      -2.537  14.150  22.422  0.00  0.00    +0.000 A 
ATOM     32  C   UNL     1      -3.535  13.547  23.205  0.00  0.00    +0.000 A 
ATOM     33  C   UNL     1      -3.660  13.852  24.563  0.00  0.00    +0.000 A 
ATOM     34  C   UNL     1      -2.784  14.755  25.162  0.00  0.00    +0.000 A 
ATOM     35  C   UNL     1      -1.770  15.338  24.410  0.00  0.00    +0.000 A 
ATOM     36  C   UNL     1      -1.643  15.032  23.055  0.00  0.00    +0.000 A 
ENDBRANCH  30  31
BRANCH  30  37
ATOM     37  O   UNL     1      -3.425  14.549  20.207  0.00  0.00    +0.000 OA
ATOM     38  H   UNL     1      -3.766  13.946  19.529  0.00  0.00    +0.000 HD
ENDBRANCH  30  37
ENDBRANCH  27  30
ENDBRANCH  23  24
ENDBRANCH   4  23
TORSDOF 10
ENDMDL
MODEL 5
REMARK VINA RESULT:      -8.1      2.668      3.490
REMARK  Name = 
REMARK  11 active torsions:
REMARK  status: ('A' for Active; 'I' for Inactive)
REMARK    1  A    between atoms: C_1  and  C_2
REMARK    2  A    between atoms: C_2  and  C_3
REMARK    3  A    between atoms: C_3  and  C_4
REMARK    4  A    between atoms: C_4  and  C_5
REMARK    5  A    between atoms: C_4  and  C_28
REMARK    6  A    between atoms: N_7  and  C_8
REMARK    7  A    between atoms: C_11  and  C_12
REMARK    8  A    between atoms: C_12  and  C_13
REMARK    9  A    between atoms: C_16  and  C_17
REMARK   10  A    between atoms: C_17  and  O_18
REMARK   11  A    between atoms: C_17  and  C_19
REMARK                            x       y       z     vdW  Elec       q    Type
REMARK                         _______ _______ _______ _____ _____    ______ ____
ROOT
ATOM      1  C   UNL     1       2.426   7.343  18.987  0.00  0.00    +0.000 A 
ATOM      2  C   UNL     1       2.312   8.216  17.903  0.00  0.00    +0.000 A 
ATOM      3  C   UNL     1       1.629   9.425  18.015  0.00  0.00    +0.000 A 
ATOM      4  C   UNL     1       1.033   9.804  19.221  0.00  0.00    +0.000 A 
ATOM      5  C   UNL     1       1.147   8.933  20.315  0.00  0.00    +0.000 A 
ATOM      6  C   UNL     1       1.833   7.714  20.201  0.00  0.00    +0.000 A 
ENDROOT
BRANCH   1   9
ATOM      7  C   UNL     1       2.682   4.948  18.287  0.00  0.00    +0.000 C 
ATOM      8  O   UNL     1       1.634   4.839  17.654  0.00  0.00    +0.000 OA
ATOM      9  N   UNL     1       3.109   6.104  18.934  0.00  0.00    +0.000 N 
ATOM     10  H   UNL     1       3.966   6.034  19.478  0.00  0.00    +0.000 HD
BRANCH   7  11
ATOM     11  C   UNL     1       3.652   3.762  18.429  0.00  0.00    +0.000 C 
BRANCH  11  12
ATOM     12  C   UNL     1       5.064   4.258  18.226  0.00  0.00    +0.000 A 
ATOM     13  C   UNL     1       5.747   4.343  17.027  0.00  0.00    +0.000 A 
ATOM     14  S   UNL     1       7.314   4.978  17.286  0.00  0.00    +0.000 S 
ATOM     15  C   UNL     1       6.981   5.088  18.965  0.00  0.00    +0.000 A 
ATOM     16  N   UNL     1       7.885   5.587  19.819  0.00  0.00    +0.000 N 
ATOM     17  N   UNL     1       5.793   4.672  19.333  0.00  0.00    +0.000 NA
ATOM     18  H   UNL     1       8.606   6.189  19.438  0.00  0.00    +0.000 HD
ATOM     19  H   UNL     1       7.518   5.900  20.712  0.00  0.00    +0.000 HD
ENDBRANCH  11  12
BRANCH  11  20
ATOM     20  C   UNL     1       3.535   3.051  19.798  0.00  0.00    +0.000 C 
BRANCH  20  22
ATOM     21  C   UNL     1       1.435   3.155  21.186  0.00  0.00    +0.000 C 
ATOM     22  C   UNL     1       2.169   2.412  20.077  0.00  0.00    +0.000 C 
ENDBRANCH  20  22
ENDBRANCH  11  20
ENDBRANCH   7  11
ENDBRANCH   1   9
BRANCH   4  23
ATOM     23  C   UNL     1       0.330  11.136  19.358  0.00  0.00    +0.000 C 
BRANCH  23  24
ATOM     24  C   UNL     1      -0.431  11.351  20.682  0.00  0.00    +0.000 C 
ATOM     25  C   UNL     1      -1.757  12.065  20.450  0.00  0.00    +0.000 C 
ATOM     26  C   UNL     1      -2.028  12.799  21.749  0.00  0.00    +0.000 C 
ATOM     27  C   UNL     1      -0.657  13.030  22.393  0.00  0.00    +0.000 C 
ATOM     28  N   UNL     1       0.294  12.247  21.582  0.00  0.00    +0.000 NA
ATOM     29  H   UNL     1       0.938  11.716  22.169  0.00  0.00    +0.000 HD
BRANCH  27  30
ATOM     30  C   UNL     1      -0.210  14.532  22.455  0.00  0.00    +0.000 C 
BRANCH  30  31
ATOM     31  C   UNL     1      -1.028  15.387  23.413  0.00  0.00    +0.000 A 
ATOM     32  C   UNL     1      -1.379  14.893  24.679  0.00  0.00    +0.000 A 
ATOM     33  C   UNL     1      -2.147  15.662  25.558  0.00  0.00    +0.000 A 
ATOM     34  C   UNL     1      -2.566  16.938  25.191  0.00  0.00    +0.000 A 
ATOM     35  C   UNL     1      -2.201  17.457  23.953  0.00  0.00    +0.000 A 
ATOM     36  C   UNL     1      -1.433  16.690  23.075  0.00  0.00    +0.000 A 
ENDBRANCH  30  31
BRANCH  30  37
ATOM     37  O   UNL     1      -0.208  15.130  21.150  0.00  0.00    +0.000 OA
ATOM     38  H   UNL     1       0.497  14.697  20.645  0.00  0.00    +0.000 HD
ENDBRANCH  30  37
ENDBRANCH  27  30
ENDBRANCH  23  24
ENDBRANCH   4  23
TORSDOF 10
ENDMDL
MODEL 6
REMARK VINA RESULT:      -8.0      2.735      3.553
REMARK  Name = 
REMARK  11 active torsions:
REMARK  status: ('A' for Active; 'I' for Inactive)
REMARK    1  A    between atoms: C_1  and  C_2
REMARK    2  A    between atoms: C_2  and  C_3
REMARK    3  A    between atoms: C_3  and  C_4
REMARK    4  A    between atoms: C_4  and  C_5
REMARK    5  A    between atoms: C_4  and  C_28
REMARK    6  A    between atoms: N_7  and  C_8
REMARK    7  A    between atoms: C_11  and  C_12
REMARK    8  A    between atoms: C_12  and  C_13
REMARK    9  A    between atoms: C_16  and  C_17
REMARK   10  A    between atoms: C_17  and  O_18
REMARK   11  A    between atoms: C_17  and  C_19
REMARK                            x       y       z     vdW  Elec       q    Type
REMARK                         _______ _______ _______ _____ _____    ______ ____
ROOT
ATOM      1  C   UNL     1       2.453   7.146  19.081  0.00  0.00    +0.000 A 
ATOM      2  C   UNL     1       1.899   7.485  20.317  0.00  0.00    +0.000 A 
ATOM      3  C   UNL     1       1.203   8.678  20.498  0.00  0.00    +0.000 A 
ATOM      4  C   UNL     1       1.040   9.579  19.442  0.00  0.00    +0.000 A 
ATOM      5  C   UNL     1       1.591   9.244  18.196  0.00  0.00    +0.000 A 
ATOM      6  C   UNL     1       2.293   8.042  18.016  0.00  0.00    +0.000 A 
ENDROOT
BRANCH   1   9
ATOM      7  C   UNL     1       2.667   4.789  18.250  0.00  0.00    +0.000 C 
ATOM      8  O   UNL     1       1.516   4.642  17.846  0.00  0.00    +0.000 OA
ATOM      9  N   UNL     1       3.167   5.947  18.838  0.00  0.00    +0.000 N 
ATOM     10  H   UNL     1       4.122   5.908  19.187  0.00  0.00    +0.000 HD
BRANCH   7  11
ATOM     11  C   UNL     1       3.700   3.654  18.138  0.00  0.00    +0.000 C 
BRANCH  11  12
ATOM     12  C   UNL     1       5.079   4.257  18.017  0.00  0.00    +0.000 A 
ATOM     13  C   UNL     1       5.761   4.536  16.847  0.00  0.00    +0.000 A 
ATOM     14  S   UNL     1       7.285   5.226  17.204  0.00  0.00    +0.000 S 
ATOM     15  C   UNL     1       6.938   5.101  18.880  0.00  0.00    +0.000 A 
ATOM     16  N   UNL     1       7.806   5.540  19.801  0.00  0.00    +0.000 N 
ATOM     17  N   UNL     1       5.776   4.569  19.178  0.00  0.00    +0.000 NA
ATOM     18  H   UNL     1       8.489   6.228  19.509  0.00  0.00    +0.000 HD
ATOM     19  H   UNL     1       7.416   5.713  20.722  0.00  0.00    +0.000 HD
ENDBRANCH  11  12
BRANCH  11  20
ATOM     20  C   UNL     1       3.653   2.681  19.340  0.00  0.00    +0.000 C 
BRANCH  20  22
ATOM     21  C   UNL     1       1.581   2.480  20.759  0.00  0.00    +0.000 C 
ATOM     22  C   UNL     1       2.905   3.210  20.569  0.00  0.00    +0.000 C 
ENDBRANCH  20  22
ENDBRANCH  11  20
ENDBRANCH   7  11
ENDBRANCH   1   9
BRANCH   4  23
ATOM     23  C   UNL     1       0.247  10.855  19.622  0.00  0.00    +0.000 C 
BRANCH  23  24
ATOM     24  C   UNL     1       0.289  11.470  21.035  0.00  0.00    +0.000 C 
ATOM     25  C   UNL     1      -0.839  10.933  21.907  0.00  0.00    +0.000 C 
ATOM     26  C   UNL     1      -1.107  12.040  22.909  0.00  0.00    +0.000 C 
ATOM     27  C   UNL     1      -0.649  13.336  22.231  0.00  0.00    +0.000 C 
ATOM     28  N   UNL     1       0.050  12.912  21.004  0.00  0.00    +0.000 NA
ATOM     29  H   UNL     1       0.929  13.416  20.881  0.00  0.00    +0.000 HD
BRANCH  27  30
ATOM     30  C   UNL     1      -1.808  14.332  21.879  0.00  0.00    +0.000 C 
BRANCH  30  31
ATOM     31  C   UNL     1      -3.143  13.660  21.592  0.00  0.00    +0.000 A 
ATOM     32  C   UNL     1      -3.396  13.096  20.331  0.00  0.00    +0.000 A 
ATOM     33  C   UNL     1      -4.626  12.495  20.050  0.00  0.00    +0.000 A 
ATOM     34  C   UNL     1      -5.617  12.438  21.027  0.00  0.00    +0.000 A 
ATOM     35  C   UNL     1      -5.374  12.963  22.292  0.00  0.00    +0.000 A 
ATOM     36  C   UNL     1      -4.145  13.562  22.573  0.00  0.00    +0.000 A 
ENDBRANCH  30  31
BRANCH  30  37
ATOM     37  O   UNL     1      -1.448  15.186  20.783  0.00  0.00    +0.000 OA
ATOM     38  H   UNL     1      -0.592  14.873  20.454  0.00  0.00    +0.000 HD
ENDBRANCH  30  37
ENDBRANCH  27  30
ENDBRANCH  23  24
ENDBRANCH   4  23
TORSDOF 10
ENDMDL
MODEL 7
REMARK VINA RESULT:      -8.0      2.696      3.311
REMARK  Name = 
REMARK  11 active torsions:
REMARK  status: ('A' for Active; 'I' for Inactive)
REMARK    1  A    between atoms: C_1  and  C_2
REMARK    2  A    between atoms: C_2  and  C_3
REMARK    3  A    between atoms: C_3  and  C_4
REMARK    4  A    between atoms: C_4  and  C_5
REMARK    5  A    between atoms: C_4  and  C_28
REMARK    6  A    between atoms: N_7  and  C_8
REMARK    7  A    between atoms: C_11  and  C_12
REMARK    8  A    between atoms: C_12  and  C_13
REMARK    9  A    between atoms: C_16  and  C_17
REMARK   10  A    between atoms: C_17  and  O_18
REMARK   11  A    between atoms: C_17  and  C_19
REMARK                            x       y       z     vdW  Elec       q    Type
REMARK                         _______ _______ _______ _____ _____    ______ ____
ROOT
ATOM      1  C   UNL     1       2.320   7.607  19.119  0.00  0.00    +0.000 A 
ATOM      2  C   UNL     1       1.573   8.148  20.167  0.00  0.00    +0.000 A 
ATOM      3  C   UNL     1       0.924   9.374  20.038  0.00  0.00    +0.000 A 
ATOM      4  C   UNL     1       1.003  10.105  18.850  0.00  0.00    +0.000 A 
ATOM      5  C   UNL     1       1.748   9.566  17.790  0.00  0.00    +0.000 A 
ATOM      6  C   UNL     1       2.403   8.331  17.923  0.00  0.00    +0.000 A 
ENDROOT
BRANCH   1   9
ATOM      7  C   UNL     1       2.633   5.183  18.553  0.00  0.00    +0.000 C 
ATOM      8  O   UNL     1       1.657   5.048  17.819  0.00  0.00    +0.000 OA
ATOM      9  N   UNL     1       2.997   6.366  19.191  0.00  0.00    +0.000 N 
ATOM     10  H   UNL     1       3.793   6.318  19.824  0.00  0.00    +0.000 HD
BRANCH   7  11
ATOM     11  C   UNL     1       3.577   4.003  18.846  0.00  0.00    +0.000 C 
BRANCH  11  12
ATOM     12  C   UNL     1       4.993   4.418  18.525  0.00  0.00    +0.000 A 
ATOM     13  C   UNL     1       5.597   4.410  17.281  0.00  0.00    +0.000 A 
ATOM     14  S   UNL     1       7.205   4.978  17.403  0.00  0.00    +0.000 S 
ATOM     15  C   UNL     1       6.993   5.186  19.093  0.00  0.00    +0.000 A 
ATOM     16  N   UNL     1       7.976   5.680  19.859  0.00  0.00    +0.000 N 
ATOM     17  N   UNL     1       5.814   4.848  19.560  0.00  0.00    +0.000 NA
ATOM     18  H   UNL     1       8.695   6.225  19.401  0.00  0.00    +0.000 HD
ATOM     19  H   UNL     1       7.685   6.053  20.757  0.00  0.00    +0.000 HD
ENDBRANCH  11  12
BRANCH  11  20
ATOM     20  C   UNL     1       3.489   3.515  20.312  0.00  0.00    +0.000 C 
BRANCH  20  22
ATOM     21  C   UNL     1       1.471   2.626  21.530  0.00  0.00    +0.000 C 
ATOM     22  C   UNL     1       2.187   3.877  21.035  0.00  0.00    +0.000 C 
ENDBRANCH  20  22
ENDBRANCH  11  20
ENDBRANCH   7  11
ENDBRANCH   1   9
BRANCH   4  23
ATOM     23  C   UNL     1       0.263  11.415  18.690  0.00  0.00    +0.000 C 
BRANCH  23  24
ATOM     24  C   UNL     1       0.883  12.622  19.423  0.00  0.00    +0.000 C 
ATOM     25  C   UNL     1       0.427  13.938  18.806  0.00  0.00    +0.000 C 
ATOM     26  C   UNL     1       1.557  14.908  19.099  0.00  0.00    +0.000 C 
ATOM     27  C   UNL     1       2.815  14.047  19.257  0.00  0.00    +0.000 C 
ATOM     28  N   UNL     1       2.338  12.653  19.276  0.00  0.00    +0.000 NA
ATOM     29  H   UNL     1       2.782  12.115  20.021  0.00  0.00    +0.000 HD
BRANCH  27  30
ATOM     30  C   UNL     1       3.883  14.240  18.124  0.00  0.00    +0.000 C 
BRANCH  30  31
ATOM     31  C   UNL     1       5.231  14.749  18.617  0.00  0.00    +0.000 A 
ATOM     32  C   UNL     1       5.394  15.139  19.956  0.00  0.00    +0.000 A 
ATOM     33  C   UNL     1       6.621  15.626  20.414  0.00  0.00    +0.000 A 
ATOM     34  C   UNL     1       7.706  15.721  19.546  0.00  0.00    +0.000 A 
ATOM     35  C   UNL     1       7.572  15.309  18.224  0.00  0.00    +0.000 A 
ATOM     36  C   UNL     1       6.347  14.821  17.767  0.00  0.00    +0.000 A 
ENDBRANCH  30  31
BRANCH  30  37
ATOM     37  O   UNL     1       3.392  15.097  17.083  0.00  0.00    +0.000 OA
ATOM     38  H   UNL     1       2.700  15.650  17.479  0.00  0.00    +0.000 HD
ENDBRANCH  30  37
ENDBRANCH  27  30
ENDBRANCH  23  24
ENDBRANCH   4  23
TORSDOF 10
ENDMDL
MODEL 8
REMARK VINA RESULT:      -8.0      3.683     10.540
REMARK  Name = 
REMARK  11 active torsions:
REMARK  status: ('A' for Active; 'I' for Inactive)
REMARK    1  A    between atoms: C_1  and  C_2
REMARK    2  A    between atoms: C_2  and  C_3
REMARK    3  A    between atoms: C_3  and  C_4
REMARK    4  A    between atoms: C_4  and  C_5
REMARK    5  A    between atoms: C_4  and  C_28
REMARK    6  A    between atoms: N_7  and  C_8
REMARK    7  A    between atoms: C_11  and  C_12
REMARK    8  A    between atoms: C_12  and  C_13
REMARK    9  A    between atoms: C_16  and  C_17
REMARK   10  A    between atoms: C_17  and  O_18
REMARK   11  A    between atoms: C_17  and  C_19
REMARK                            x       y       z     vdW  Elec       q    Type
REMARK                         _______ _______ _______ _____ _____    ______ ____
ROOT
ATOM      1  C   UNL     1       1.813   8.416  19.160  0.00  0.00    +0.000 A 
ATOM      2  C   UNL     1       2.246   7.756  18.009  0.00  0.00    +0.000 A 
ATOM      3  C   UNL     1       2.585   6.405  18.031  0.00  0.00    +0.000 A 
ATOM      4  C   UNL     1       2.503   5.665  19.213  0.00  0.00    +0.000 A 
ATOM      5  C   UNL     1       2.065   6.321  20.374  0.00  0.00    +0.000 A 
ATOM      6  C   UNL     1       1.726   7.682  20.350  0.00  0.00    +0.000 A 
ENDROOT
BRANCH   1   9
ATOM      7  C   UNL     1       0.378  10.378  18.541  0.00  0.00    +0.000 C 
ATOM      8  O   UNL     1      -0.429   9.786  17.828  0.00  0.00    +0.000 OA
ATOM      9  N   UNL     1       1.453   9.785  19.197  0.00  0.00    +0.000 N 
ATOM     10  H   UNL     1       2.081  10.406  19.702  0.00  0.00    +0.000 HD
BRANCH   7  11
ATOM     11  C   UNL     1       0.266  11.895  18.778  0.00  0.00    +0.000 C 
BRANCH  11  12
ATOM     12  C   UNL     1      -0.629  12.140  19.968  0.00  0.00    +0.000 A 
ATOM     13  C   UNL     1      -1.656  13.062  20.057  0.00  0.00    +0.000 A 
ATOM     14  S   UNL     1      -2.401  12.969  21.594  0.00  0.00    +0.000 S 
ATOM     15  C   UNL     1      -1.308  11.722  22.036  0.00  0.00    +0.000 A 
ATOM     16  N   UNL     1      -1.382  11.131  23.237  0.00  0.00    +0.000 N 
ATOM     17  N   UNL     1      -0.429  11.391  21.121  0.00  0.00    +0.000 NA
ATOM     18  H   UNL     1      -2.263  11.186  23.731  0.00  0.00    +0.000 HD
ATOM     19  H   UNL     1      -0.925  10.227  23.308  0.00  0.00    +0.000 HD
ENDBRANCH  11  12
BRANCH  11  20
ATOM     20  C   UNL     1       1.640  12.569  19.003  0.00  0.00    +0.000 C 
BRANCH  20  22
ATOM     21  C   UNL     1       3.105  14.612  18.825  0.00  0.00    +0.000 C 
ATOM     22  C   UNL     1       1.707  14.047  18.602  0.00  0.00    +0.000 C 
ENDBRANCH  20  22
ENDBRANCH  11  20
ENDBRANCH   7  11
ENDBRANCH   1   9
BRANCH   4  23
ATOM     23  C   UNL     1       2.827   4.187  19.232  0.00  0.00    +0.000 C 
BRANCH  23  24
ATOM     24  C   UNL     1       4.245   3.812  18.756  0.00  0.00    +0.000 C 
ATOM     25  C   UNL     1       5.275   4.830  19.228  0.00  0.00    +0.000 C 
ATOM     26  C   UNL     1       6.380   4.764  18.190  0.00  0.00    +0.000 C 
ATOM     27  C   UNL     1       5.715   4.263  16.904  0.00  0.00    +0.000 C 
ATOM     28  N   UNL     1       4.354   3.856  17.298  0.00  0.00    +0.000 NA
ATOM     29  H   UNL     1       4.101   2.952  16.896  0.00  0.00    +0.000 HD
BRANCH  27  30
ATOM     30  C   UNL     1       5.652   5.320  15.747  0.00  0.00    +0.000 C 
BRANCH  30  31
ATOM     31  C   UNL     1       6.136   4.801  14.401  0.00  0.00    +0.000 A 
ATOM     32  C   UNL     1       7.344   5.263  13.856  0.00  0.00    +0.000 A 
ATOM     33  C   UNL     1       7.787   4.809  12.610  0.00  0.00    +0.000 A 
ATOM     34  C   UNL     1       7.036   3.878  11.897  0.00  0.00    +0.000 A 
ATOM     35  C   UNL     1       5.853   3.384  12.435  0.00  0.00    +0.000 A 
ATOM     36  C   UNL     1       5.411   3.837  13.679  0.00  0.00    +0.000 A 
ENDBRANCH  30  31
BRANCH  30  37
ATOM     37  O   UNL     1       6.367   6.515  16.093  0.00  0.00    +0.000 OA
ATOM     38  H   UNL     1       7.204   6.492  15.605  0.00  0.00    +0.000 HD
ENDBRANCH  30  37
ENDBRANCH  27  30
ENDBRANCH  23  24
ENDBRANCH   4  23
TORSDOF 10
ENDMDL
MODEL 9
REMARK VINA RESULT:      -8.0      3.663     10.583
REMARK  Name = 
REMARK  11 active torsions:
REMARK  status: ('A' for Active; 'I' for Inactive)
REMARK    1  A    between atoms: C_1  and  C_2
REMARK    2  A    between atoms: C_2  and  C_3
REMARK    3  A    between atoms: C_3  and  C_4
REMARK    4  A    between atoms: C_4  and  C_5
REMARK    5  A    between atoms: C_4  and  C_28
REMARK    6  A    between atoms: N_7  and  C_8
REMARK    7  A    between atoms: C_11  and  C_12
REMARK    8  A    between atoms: C_12  and  C_13
REMARK    9  A    between atoms: C_16  and  C_17
REMARK   10  A    between atoms: C_17  and  O_18
REMARK   11  A    between atoms: C_17  and  C_19
REMARK                            x       y       z     vdW  Elec       q    Type
REMARK                         _______ _______ _______ _____ _____    ______ ____
ROOT
ATOM      1  C   UNL     1       1.047   9.584  19.276  0.00  0.00    +0.000 A 
ATOM      2  C   UNL     1       1.105   8.741  20.388  0.00  0.00    +0.000 A 
ATOM      3  C   UNL     1       1.842   7.558  20.364  0.00  0.00    +0.000 A 
ATOM      4  C   UNL     1       2.548   7.177  19.220  0.00  0.00    +0.000 A 
ATOM      5  C   UNL     1       2.498   8.021  18.101  0.00  0.00    +0.000 A 
ATOM      6  C   UNL     1       1.754   9.211  18.126  0.00  0.00    +0.000 A 
ENDROOT
BRANCH   1   9
ATOM      7  C   UNL     1      -0.996  10.964  18.816  0.00  0.00    +0.000 C 
ATOM      8  O   UNL     1      -1.725  10.065  18.405  0.00  0.00    +0.000 OA
ATOM      9  N   UNL     1       0.319  10.797  19.243  0.00  0.00    +0.000 N 
ATOM     10  H   UNL     1       0.829  11.640  19.496  0.00  0.00    +0.000 HD
BRANCH   7  11
ATOM     11  C   UNL     1      -1.494  12.419  18.895  0.00  0.00    +0.000 C 
BRANCH  11  12
ATOM     12  C   UNL     1      -2.433  12.552  20.070  0.00  0.00    +0.000 A 
ATOM     13  C   UNL     1      -3.756  12.951  20.032  0.00  0.00    +0.000 A 
ATOM     14  S   UNL     1      -4.421  12.937  21.607  0.00  0.00    +0.000 S 
ATOM     15  C   UNL     1      -2.911  12.412  22.229  0.00  0.00    +0.000 A 
ATOM     16  N   UNL     1      -2.750  12.160  23.535  0.00  0.00    +0.000 N 
ATOM     17  N   UNL     1      -1.956  12.264  21.342  0.00  0.00    +0.000 NA
ATOM     18  H   UNL     1      -3.581  11.961  24.079  0.00  0.00    +0.000 HD
ATOM     19  H   UNL     1      -1.954  11.577  23.773  0.00  0.00    +0.000 HD
ENDBRANCH  11  12
BRANCH  11  20
ATOM     20  C   UNL     1      -0.340  13.441  19.022  0.00  0.00    +0.000 C 
BRANCH  20  22
ATOM     21  C   UNL     1       0.379  15.856  18.986  0.00  0.00    +0.000 C 
ATOM     22  C   UNL     1      -0.786  14.897  19.201  0.00  0.00    +0.000 C 
ENDBRANCH  20  22
ENDBRANCH  11  20
ENDBRANCH   7  11
ENDBRANCH   1   9
BRANCH   4  23
ATOM     23  C   UNL     1       3.386   5.917  19.205  0.00  0.00    +0.000 C 
BRANCH  23  24
ATOM     24  C   UNL     1       3.355   5.115  17.888  0.00  0.00    +0.000 C 
ATOM     25  C   UNL     1       3.863   3.694  18.093  0.00  0.00    +0.000 C 
ATOM     26  C   UNL     1       4.423   3.290  16.742  0.00  0.00    +0.000 C 
ATOM     27  C   UNL     1       4.814   4.598  16.045  0.00  0.00    +0.000 C 
ATOM     28  N   UNL     1       4.272   5.673  16.894  0.00  0.00    +0.000 NA
ATOM     29  H   UNL     1       3.801   6.389  16.339  0.00  0.00    +0.000 HD
BRANCH  27  30
ATOM     30  C   UNL     1       6.357   4.792  15.840  0.00  0.00    +0.000 C 
BRANCH  30  31
ATOM     31  C   UNL     1       7.035   5.596  16.941  0.00  0.00    +0.000 A 
ATOM     32  C   UNL     1       7.487   4.959  18.107  0.00  0.00    +0.000 A 
ATOM     33  C   UNL     1       8.093   5.691  19.132  0.00  0.00    +0.000 A 
ATOM     34  C   UNL     1       8.266   7.067  19.003  0.00  0.00    +0.000 A 
ATOM     35  C   UNL     1       7.853   7.710  17.842  0.00  0.00    +0.000 A 
ATOM     36  C   UNL     1       7.250   6.980  16.817  0.00  0.00    +0.000 A 
ENDBRANCH  30  31
BRANCH  30  37
ATOM     37  O   UNL     1       6.645   5.378  14.562  0.00  0.00    +0.000 OA
ATOM     38  H   UNL     1       7.591   5.588  14.558  0.00  0.00    +0.000 HD
ENDBRANCH  30  37
ENDBRANCH  27  30
ENDBRANCH  23  24
ENDBRANCH   4  23
TORSDOF 10
ENDMDL
