MODEL 1
REMARK VINA RESULT:      -7.9      0.000      0.000
REMARK  Name = 
REMARK  6 active torsions:
REMARK  status: ('A' for Active; 'I' for Inactive)
REMARK    1  A    between atoms: C_2  and  O_3
REMARK    2  A    between atoms: C_2  and  C_19
REMARK    3  A    between atoms: O_3  and  C_4
REMARK    4  A    between atoms: C_4  and  C_5
REMARK    5  A    between atoms: C_4  and  C_11
REMARK    6  A    between atoms: C_5  and  N_6
REMARK                            x       y       z     vdW  Elec       q    Type
REMARK                         _______ _______ _______ _____ _____    ______ ____
ROOT
ATOM      1  C   UNL     1       3.256   6.031  18.459  0.00  0.00    +0.000 C 
ENDROOT
BRANCH   1   2
ATOM      2  C   UNL     1       2.464   7.376  18.668  0.00  0.00    +0.000 A 
ATOM      3  C   UNL     1       2.421   8.372  17.657  0.00  0.00    +0.000 A 
ATOM      4  C   UNL     1       1.726   9.581  17.831  0.00  0.00    +0.000 A 
ATOM      5  C   UNL     1       1.039   9.840  19.011  0.00  0.00    +0.000 A 
ATOM      6 CL   UNL     1       0.154  11.350  19.222  0.00  0.00    +0.000 Cl
ATOM      7  C   UNL     1       1.062   8.886  20.032  0.00  0.00    +0.000 A 
ATOM      8  C   UNL     1       1.757   7.672  19.875  0.00  0.00    +0.000 A 
ATOM      9 CL   UNL     1       1.698   6.564  21.233  0.00  0.00    +0.000 Cl
ENDBRANCH   1   2
BRANCH   1  10
ATOM     10  O   UNL     1       2.424   5.054  17.907  0.00  0.00    +0.000 OA
BRANCH  10  12
ATOM     11  O   UNL     1       3.554   3.679  16.520  0.00  0.00    +0.000 OA
ATOM     12  C   UNL     1       2.812   3.799  17.478  0.00  0.00    +0.000 C 
BRANCH  12  13
ATOM     13  C   UNL     1       2.268   2.571  18.196  0.00  0.00    +0.000 C 
ATOM     14  C   UNL     1       3.190   2.040  19.329  0.00  0.00    +0.000 C 
ATOM     15  C   UNL     1       3.105   2.841  20.643  0.00  0.00    +0.000 C 
ATOM     16  C   UNL     1       1.658   2.910  21.151  0.00  0.00    +0.000 C 
ATOM     17  C   UNL     1       0.741   3.527  20.083  0.00  0.00    +0.000 C 
ATOM     18  C   UNL     1       0.822   2.750  18.747  0.00  0.00    +0.000 C 
ENDBRANCH  12  13
ENDBRANCH  10  12
ENDBRANCH   1  10
BRANCH   1  19
ATOM     19  C   UNL     1       4.534   6.257  17.577  0.00  0.00    +0.000 C 
BRANCH  19  20
ATOM     20  N   UNL     1       5.861   5.993  18.203  0.00  0.00    +0.000 N 
ATOM     21  C   UNL     1       7.079   6.476  17.870  0.00  0.00    +0.000 A 
ATOM     22  C   UNL     1       7.994   6.050  18.821  0.00  0.00    +0.000 A 
ATOM     23  N   UNL     1       7.356   5.297  19.738  0.00  0.00    +0.000 NA
ATOM     24  C   UNL     1       6.065   5.280  19.338  0.00  0.00    +0.000 A 
ENDBRANCH  19  20
ENDBRANCH   1  19
TORSDOF 6
ENDMDL
MODEL 2
REMARK VINA RESULT:      -7.8      1.508      1.797
REMARK  Name = 
REMARK  6 active torsions:
REMARK  status: ('A' for Active; 'I' for Inactive)
REMARK    1  A    between atoms: C_2  and  O_3
REMARK    2  A    between atoms: C_2  and  C_19
REMARK    3  A    between atoms: O_3  and  C_4
REMARK    4  A    between atoms: C_4  and  C_5
REMARK    5  A    between atoms: C_4  and  C_11
REMARK    6  A    between atoms: C_5  and  N_6
REMARK                            x       y       z     vdW  Elec       q    Type
REMARK                         _______ _______ _______ _____ _____    ______ ____
ROOT
ATOM      1  C   UNL     1       3.878   6.470  18.014  0.00  0.00    +0.000 C 
ENDROOT
BRANCH   1   2
ATOM      2  C   UNL     1       2.812   7.549  18.440  0.00  0.00    +0.000 A 
ATOM      3  C   UNL     1       2.466   8.624  17.581  0.00  0.00    +0.000 A 
ATOM      4  C   UNL     1       1.523   9.599  17.950  0.00  0.00    +0.000 A 
ATOM      5  C   UNL     1       0.882   9.535  19.182  0.00  0.00    +0.000 A 
ATOM      6 CL   UNL     1      -0.311  10.749  19.638  0.00  0.00    +0.000 Cl
ATOM      7  C   UNL     1       1.201   8.494  20.058  0.00  0.00    +0.000 A 
ATOM      8  C   UNL     1       2.146   7.512  19.705  0.00  0.00    +0.000 A 
ATOM      9 CL   UNL     1       2.445   6.260  20.896  0.00  0.00    +0.000 Cl
ENDBRANCH   1   2
BRANCH   1  10
ATOM     10  O   UNL     1       3.281   5.212  17.901  0.00  0.00    +0.000 OA
BRANCH  10  12
ATOM     11  O   UNL     1       4.948   3.922  18.708  0.00  0.00    +0.000 OA
ATOM     12  C   UNL     1       3.768   4.029  18.425  0.00  0.00    +0.000 C 
BRANCH  12  13
ATOM     13  C   UNL     1       2.817   2.854  18.606  0.00  0.00    +0.000 C 
ATOM     14  C   UNL     1       3.138   1.965  19.840  0.00  0.00    +0.000 C 
ATOM     15  C   UNL     1       2.662   2.550  21.185  0.00  0.00    +0.000 C 
ATOM     16  C   UNL     1       1.159   2.854  21.149  0.00  0.00    +0.000 C 
ATOM     17  C   UNL     1       0.830   3.815  19.995  0.00  0.00    +0.000 C 
ATOM     18  C   UNL     1       1.313   3.256  18.636  0.00  0.00    +0.000 C 
ENDBRANCH  12  13
ENDBRANCH  10  12
ENDBRANCH   1  10
BRANCH   1  19
ATOM     19  C   UNL     1       4.598   6.882  16.682  0.00  0.00    +0.000 C 
BRANCH  19  20
ATOM     20  N   UNL     1       5.596   5.931  16.114  0.00  0.00    +0.000 N 
ATOM     21  C   UNL     1       5.493   5.117  15.040  0.00  0.00    +0.000 A 
ATOM     22  C   UNL     1       6.724   4.516  14.825  0.00  0.00    +0.000 A 
ATOM     23  N   UNL     1       7.590   4.942  15.765  0.00  0.00    +0.000 NA
ATOM     24  C   UNL     1       6.880   5.798  16.532  0.00  0.00    +0.000 A 
ENDBRANCH  19  20
ENDBRANCH   1  19
TORSDOF 6
ENDMDL
MODEL 3
REMARK VINA RESULT:      -7.8      1.418      1.765
REMARK  Name = 
REMARK  6 active torsions:
REMARK  status: ('A' for Active; 'I' for Inactive)
REMARK    1  A    between atoms: C_2  and  O_3
REMARK    2  A    between atoms: C_2  and  C_19
REMARK    3  A    between atoms: O_3  and  C_4
REMARK    4  A    between atoms: C_4  and  C_5
REMARK    5  A    between atoms: C_4  and  C_11
REMARK    6  A    between atoms: C_5  and  N_6
REMARK                            x       y       z     vdW  Elec       q    Type
REMARK                         _______ _______ _______ _____ _____    ______ ____
ROOT
ATOM      1  C   UNL     1       3.830   5.546  18.488  0.00  0.00    +0.000 C 
ENDROOT
BRANCH   1   2
ATOM      2  C   UNL     1       2.970   6.859  18.618  0.00  0.00    +0.000 A 
ATOM      3  C   UNL     1       2.993   7.859  17.612  0.00  0.00    +0.000 A 
ATOM      4  C   UNL     1       2.237   9.040  17.717  0.00  0.00    +0.000 A 
ATOM      5  C   UNL     1       1.423   9.265  18.821  0.00  0.00    +0.000 A 
ATOM      6 CL   UNL     1       0.465  10.738  18.945  0.00  0.00    +0.000 Cl
ATOM      7  C   UNL     1       1.378   8.305  19.836  0.00  0.00    +0.000 A 
ATOM      8  C   UNL     1       2.132   7.119  19.747  0.00  0.00    +0.000 A 
ATOM      9 CL   UNL     1       1.976   6.000  21.089  0.00  0.00    +0.000 Cl
ENDBRANCH   1   2
BRANCH   1  10
ATOM     10  O   UNL     1       3.288   4.701  17.516  0.00  0.00    +0.000 OA
BRANCH  10  12
ATOM     11  O   UNL     1       1.051   4.546  17.262  0.00  0.00    +0.000 OA
ATOM     12  C   UNL     1       2.091   4.015  17.608  0.00  0.00    +0.000 C 
BRANCH  12  13
ATOM     13  C   UNL     1       2.089   2.605  18.182  0.00  0.00    +0.000 C 
ATOM     14  C   UNL     1       3.404   2.219  18.915  0.00  0.00    +0.000 C 
ATOM     15  C   UNL     1       3.529   2.794  20.339  0.00  0.00    +0.000 C 
ATOM     16  C   UNL     1       2.325   2.390  21.201  0.00  0.00    +0.000 C 
ATOM     17  C   UNL     1       1.014   2.852  20.546  0.00  0.00    +0.000 C 
ATOM     18  C   UNL     1       0.873   2.301  19.107  0.00  0.00    +0.000 C 
ENDBRANCH  12  13
ENDBRANCH  10  12
ENDBRANCH   1  10
BRANCH   1  19
ATOM     19  C   UNL     1       5.332   5.881  18.180  0.00  0.00    +0.000 C 
BRANCH  19  20
ATOM     20  N   UNL     1       5.894   5.403  16.884  0.00  0.00    +0.000 N 
ATOM     21  C   UNL     1       5.502   5.686  15.621  0.00  0.00    +0.000 A 
ATOM     22  C   UNL     1       6.408   5.112  14.743  0.00  0.00    +0.000 A 
ATOM     23  N   UNL     1       7.355   4.465  15.450  0.00  0.00    +0.000 NA
ATOM     24  C   UNL     1       7.018   4.658  16.744  0.00  0.00    +0.000 A 
ENDBRANCH  19  20
ENDBRANCH   1  19
TORSDOF 6
ENDMDL
MODEL 4
REMARK VINA RESULT:      -7.6      1.666      2.282
REMARK  Name = 
REMARK  6 active torsions:
REMARK  status: ('A' for Active; 'I' for Inactive)
REMARK    1  A    between atoms: C_2  and  O_3
REMARK    2  A    between atoms: C_2  and  C_19
REMARK    3  A    between atoms: O_3  and  C_4
REMARK    4  A    between atoms: C_4  and  C_5
REMARK    5  A    between atoms: C_4  and  C_11
REMARK    6  A    between atoms: C_5  and  N_6
REMARK                            x       y       z     vdW  Elec       q    Type
REMARK                         _______ _______ _______ _____ _____    ______ ____
ROOT
ATOM      1  C   UNL     1       4.014   5.955  18.442  0.00  0.00    +0.000 C 
ENDROOT
BRANCH   1   2
ATOM      2  C   UNL     1       3.016   7.159  18.627  0.00  0.00    +0.000 A 
ATOM      3  C   UNL     1       2.900   8.179  17.648  0.00  0.00    +0.000 A 
ATOM      4  C   UNL     1       2.019   9.264  17.801  0.00  0.00    +0.000 A 
ATOM      5  C   UNL     1       1.214   9.369  18.929  0.00  0.00    +0.000 A 
ATOM      6 CL   UNL     1       0.100  10.722  19.115  0.00  0.00    +0.000 Cl
ATOM      7  C   UNL     1       1.303   8.386  19.919  0.00  0.00    +0.000 A 
ATOM      8  C   UNL     1       2.183   7.296  19.782  0.00  0.00    +0.000 A 
ATOM      9 CL   UNL     1       2.189   6.134  21.096  0.00  0.00    +0.000 Cl
ENDBRANCH   1   2
BRANCH   1  10
ATOM     10  O   UNL     1       3.734   4.942  19.363  0.00  0.00    +0.000 OA
BRANCH  10  12
ATOM     11  O   UNL     1       5.683   3.811  19.488  0.00  0.00    +0.000 OA
ATOM     12  C   UNL     1       4.467   3.785  19.550  0.00  0.00    +0.000 C 
BRANCH  12  13
ATOM     13  C   UNL     1       3.731   2.475  19.795  0.00  0.00    +0.000 C 
ATOM     14  C   UNL     1       2.467   2.617  20.688  0.00  0.00    +0.000 C 
ATOM     15  C   UNL     1       1.230   3.169  19.952  0.00  0.00    +0.000 C 
ATOM     16  C   UNL     1       0.895   2.313  18.723  0.00  0.00    +0.000 C 
ATOM     17  C   UNL     1       2.101   2.240  17.773  0.00  0.00    +0.000 C 
ATOM     18  C   UNL     1       3.361   1.704  18.493  0.00  0.00    +0.000 C 
ENDBRANCH  12  13
ENDBRANCH  10  12
ENDBRANCH   1  10
BRANCH   1  19
ATOM     19  C   UNL     1       3.982   5.414  16.970  0.00  0.00    +0.000 C 
BRANCH  19  20
ATOM     20  N   UNL     1       5.286   5.246  16.267  0.00  0.00    +0.000 N 
ATOM     21  C   UNL     1       5.573   4.551  15.143  0.00  0.00    +0.000 A 
ATOM     22  C   UNL     1       6.895   4.794  14.803  0.00  0.00    +0.000 A 
ATOM     23  N   UNL     1       7.436   5.627  15.714  0.00  0.00    +0.000 NA
ATOM     24  C   UNL     1       6.439   5.883  16.589  0.00  0.00    +0.000 A 
ENDBRANCH  19  20
ENDBRANCH   1  19
TORSDOF 6
ENDMDL
MODEL 5
REMARK VINA RESULT:      -7.5      1.382      2.193
REMARK  Name = 
REMARK  6 active torsions:
REMARK  status: ('A' for Active; 'I' for Inactive)
REMARK    1  A    between atoms: C_2  and  O_3
REMARK    2  A    between atoms: C_2  and  C_19
REMARK    3  A    between atoms: O_3  and  C_4
REMARK    4  A    between atoms: C_4  and  C_5
REMARK    5  A    between atoms: C_4  and  C_11
REMARK    6  A    between atoms: C_5  and  N_6
REMARK                            x       y       z     vdW  Elec       q    Type
REMARK                         _______ _______ _______ _____ _____    ______ ____
ROOT
ATOM      1  C   UNL     1       2.745   6.864  19.139  0.00  0.00    +0.000 C 
ENDROOT
BRANCH   1   2
ATOM      2  C   UNL     1       2.019   8.259  19.041  0.00  0.00    +0.000 A 
ATOM      3  C   UNL     1       2.056   9.028  17.849  0.00  0.00    +0.000 A 
ATOM      4  C   UNL     1       1.421  10.278  17.748  0.00  0.00    +0.000 A 
ATOM      5  C   UNL     1       0.717  10.804  18.825  0.00  0.00    +0.000 A 
ATOM      6 CL   UNL     1      -0.091  12.364  18.693  0.00  0.00    +0.000 Cl
ATOM      7  C   UNL     1       0.663  10.079  20.019  0.00  0.00    +0.000 A 
ATOM      8  C   UNL     1       1.297   8.827  20.137  0.00  0.00    +0.000 A 
ATOM      9 CL   UNL     1       1.143   8.024  21.688  0.00  0.00    +0.000 Cl
ENDBRANCH   1   2
BRANCH   1  10
ATOM     10  O   UNL     1       1.810   5.837  19.298  0.00  0.00    +0.000 OA
BRANCH  10  12
ATOM     11  O   UNL     1       2.338   4.962  21.311  0.00  0.00    +0.000 OA
ATOM     12  C   UNL     1       1.900   4.783  20.188  0.00  0.00    +0.000 C 
BRANCH  12  13
ATOM     13  C   UNL     1       1.483   3.392  19.731  0.00  0.00    +0.000 C 
ATOM     14  C   UNL     1       1.259   3.271  18.197  0.00  0.00    +0.000 C 
ATOM     15  C   UNL     1       2.557   3.146  17.375  0.00  0.00    +0.000 C 
ATOM     16  C   UNL     1       3.405   1.965  17.864  0.00  0.00    +0.000 C 
ATOM     17  C   UNL     1       3.726   2.113  19.359  0.00  0.00    +0.000 C 
ATOM     18  C   UNL     1       2.438   2.257  20.205  0.00  0.00    +0.000 C 
ENDBRANCH  12  13
ENDBRANCH  10  12
ENDBRANCH   1  10
BRANCH   1  19
ATOM     19  C   UNL     1       3.660   6.613  17.890  0.00  0.00    +0.000 C 
BRANCH  19  20
ATOM     20  N   UNL     1       4.853   5.736  18.073  0.00  0.00    +0.000 N 
ATOM     21  C   UNL     1       5.687   5.217  17.145  0.00  0.00    +0.000 A 
ATOM     22  C   UNL     1       6.725   4.572  17.801  0.00  0.00    +0.000 A 
ATOM     23  N   UNL     1       6.536   4.677  19.131  0.00  0.00    +0.000 NA
ATOM     24  C   UNL     1       5.394   5.387  19.266  0.00  0.00    +0.000 A 
ENDBRANCH  19  20
ENDBRANCH   1  19
TORSDOF 6
ENDMDL
MODEL 6
REMARK VINA RESULT:      -7.4      2.121      2.866
REMARK  Name = 
REMARK  6 active torsions:
REMARK  status: ('A' for Active; 'I' for Inactive)
REMARK    1  A    between atoms: C_2  and  O_3
REMARK    2  A    between atoms: C_2  and  C_19
REMARK    3  A    between atoms: O_3  and  C_4
REMARK    4  A    between atoms: C_4  and  C_5
REMARK    5  A    between atoms: C_4  and  C_11
REMARK    6  A    between atoms: C_5  and  N_6
REMARK                            x       y       z     vdW  Elec       q    Type
REMARK                         _______ _______ _______ _____ _____    ______ ____
ROOT
ATOM      1  C   UNL     1       3.539   6.088  19.132  0.00  0.00    +0.000 C 
ENDROOT
BRANCH   1   2
ATOM      2  C   UNL     1       2.482   7.155  19.610  0.00  0.00    +0.000 A 
ATOM      3  C   UNL     1       1.790   7.008  20.840  0.00  0.00    +0.000 A 
ATOM      4  C   UNL     1       0.839   7.947  21.276  0.00  0.00    +0.000 A 
ATOM      5  C   UNL     1       0.549   9.070  20.511  0.00  0.00    +0.000 A 
ATOM      6 CL   UNL     1      -0.633  10.253  21.065  0.00  0.00    +0.000 Cl
ATOM      7  C   UNL     1       1.206   9.246  19.290  0.00  0.00    +0.000 A 
ATOM      8  C   UNL     1       2.158   8.314  18.837  0.00  0.00    +0.000 A 
ATOM      9 CL   UNL     1       2.910   8.662  17.291  0.00  0.00    +0.000 Cl
ENDBRANCH   1   2
BRANCH   1  10
ATOM     10  O   UNL     1       3.634   5.046  20.058  0.00  0.00    +0.000 OA
BRANCH  10  12
ATOM     11  O   UNL     1       5.450   3.826  19.505  0.00  0.00    +0.000 OA
ATOM     12  C   UNL     1       4.287   3.843  19.867  0.00  0.00    +0.000 C 
BRANCH  12  13
ATOM     13  C   UNL     1       3.522   2.544  20.078  0.00  0.00    +0.000 C 
ATOM     14  C   UNL     1       2.205   2.710  20.887  0.00  0.00    +0.000 C 
ATOM     15  C   UNL     1       1.024   3.267  20.068  0.00  0.00    +0.000 C 
ATOM     16  C   UNL     1       0.758   2.402  18.829  0.00  0.00    +0.000 C 
ATOM     17  C   UNL     1       2.020   2.305  17.958  0.00  0.00    +0.000 C 
ATOM     18  C   UNL     1       3.226   1.763  18.763  0.00  0.00    +0.000 C 
ENDBRANCH  12  13
ENDBRANCH  10  12
ENDBRANCH   1  10
BRANCH   1  19
ATOM     19  C   UNL     1       3.192   5.550  17.700  0.00  0.00    +0.000 C 
BRANCH  19  20
ATOM     20  N   UNL     1       4.323   5.329  16.753  0.00  0.00    +0.000 N 
ATOM     21  C   UNL     1       4.741   4.185  16.166  0.00  0.00    +0.000 A 
ATOM     22  C   UNL     1       5.748   4.497  15.265  0.00  0.00    +0.000 A 
ATOM     23  N   UNL     1       5.966   5.826  15.295  0.00  0.00    +0.000 NA
ATOM     24  C   UNL     1       5.089   6.305  16.205  0.00  0.00    +0.000 A 
ENDBRANCH  19  20
ENDBRANCH   1  19
TORSDOF 6
ENDMDL
MODEL 7
REMARK VINA RESULT:      -7.3      2.018      4.252
REMARK  Name = 
REMARK  6 active torsions:
REMARK  status: ('A' for Active; 'I' for Inactive)
REMARK    1  A    between atoms: C_2  and  O_3
REMARK    2  A    between atoms: C_2  and  C_19
REMARK    3  A    between atoms: O_3  and  C_4
REMARK    4  A    between atoms: C_4  and  C_5
REMARK    5  A    between atoms: C_4  and  C_11
REMARK    6  A    between atoms: C_5  and  N_6
REMARK                            x       y       z     vdW  Elec       q    Type
REMARK                         _______ _______ _______ _____ _____    ______ ____
ROOT
ATOM      1  C   UNL     1       2.921   6.281  18.184  0.00  0.00    +0.000 C 
ENDROOT
BRANCH   1   2
ATOM      2  C   UNL     1       2.270   7.658  18.584  0.00  0.00    +0.000 A 
ATOM      3  C   UNL     1       2.293   8.769  17.701  0.00  0.00    +0.000 A 
ATOM      4  C   UNL     1       1.723  10.007  18.046  0.00  0.00    +0.000 A 
ATOM      5  C   UNL     1       1.100  10.183  19.276  0.00  0.00    +0.000 A 
ATOM      6 CL   UNL     1       0.373  11.731  19.701  0.00  0.00    +0.000 Cl
ATOM      7  C   UNL     1       1.062   9.113  20.175  0.00  0.00    +0.000 A 
ATOM      8  C   UNL     1       1.631   7.868  19.846  0.00  0.00    +0.000 A 
ATOM      9 CL   UNL     1       1.506   6.613  21.064  0.00  0.00    +0.000 Cl
ENDBRANCH   1   2
BRANCH   1  10
ATOM     10  O   UNL     1       3.885   5.906  19.124  0.00  0.00    +0.000 OA
BRANCH  10  12
ATOM     11  O   UNL     1       5.573   4.428  19.368  0.00  0.00    +0.000 OA
ATOM     12  C   UNL     1       5.160   5.448  18.846  0.00  0.00    +0.000 C 
BRANCH  12  13
ATOM     13  C   UNL     1       6.049   6.257  17.912  0.00  0.00    +0.000 C 
ATOM     14  C   UNL     1       7.463   5.648  17.701  0.00  0.00    +0.000 C 
ATOM     15  C   UNL     1       7.504   4.468  16.710  0.00  0.00    +0.000 C 
ATOM     16  C   UNL     1       6.912   4.870  15.352  0.00  0.00    +0.000 C 
ATOM     17  C   UNL     1       5.473   5.382  15.523  0.00  0.00    +0.000 C 
ATOM     18  C   UNL     1       5.403   6.558  16.527  0.00  0.00    +0.000 C 
ENDBRANCH  12  13
ENDBRANCH  10  12
ENDBRANCH   1  10
BRANCH   1  19
ATOM     19  C   UNL     1       1.830   5.168  18.011  0.00  0.00    +0.000 C 
BRANCH  19  20
ATOM     20  N   UNL     1       2.253   3.750  18.200  0.00  0.00    +0.000 N 
ATOM     21  C   UNL     1       2.998   2.961  17.394  0.00  0.00    +0.000 A 
ATOM     22  C   UNL     1       3.236   1.764  18.051  0.00  0.00    +0.000 A 
ATOM     23  N   UNL     1       2.634   1.798  19.256  0.00  0.00    +0.000 NA
ATOM     24  C   UNL     1       2.047   3.013  19.320  0.00  0.00    +0.000 A 
ENDBRANCH  19  20
ENDBRANCH   1  19
TORSDOF 6
ENDMDL
MODEL 8
REMARK VINA RESULT:      -7.3      3.431      6.034
REMARK  Name = 
REMARK  6 active torsions:
REMARK  status: ('A' for Active; 'I' for Inactive)
REMARK    1  A    between atoms: C_2  and  O_3
REMARK    2  A    between atoms: C_2  and  C_19
REMARK    3  A    between atoms: O_3  and  C_4
REMARK    4  A    between atoms: C_4  and  C_5
REMARK    5  A    between atoms: C_4  and  C_11
REMARK    6  A    between atoms: C_5  and  N_6
REMARK                            x       y       z     vdW  Elec       q    Type
REMARK                         _______ _______ _______ _____ _____    ______ ____
ROOT
ATOM      1  C   UNL     1       4.896   4.242  18.623  0.00  0.00    +0.000 C 
ENDROOT
BRANCH   1   2
ATOM      2  C   UNL     1       5.563   4.410  17.206  0.00  0.00    +0.000 A 
ATOM      3  C   UNL     1       4.879   4.036  16.020  0.00  0.00    +0.000 A 
ATOM      4  C   UNL     1       5.463   4.171  14.748  0.00  0.00    +0.000 A 
ATOM      5  C   UNL     1       6.744   4.694  14.609  0.00  0.00    +0.000 A 
ATOM      6 CL   UNL     1       7.469   4.878  13.013  0.00  0.00    +0.000 Cl
ATOM      7  C   UNL     1       7.451   5.069  15.754  0.00  0.00    +0.000 A 
ATOM      8  C   UNL     1       6.882   4.936  17.034  0.00  0.00    +0.000 A 
ATOM      9 CL   UNL     1       7.878   5.451  18.383  0.00  0.00    +0.000 Cl
ENDBRANCH   1   2
BRANCH   1  10
ATOM     10  O   UNL     1       4.489   5.483  19.121  0.00  0.00    +0.000 OA
BRANCH  10  12
ATOM     11  O   UNL     1       4.493   7.286  17.764  0.00  0.00    +0.000 OA
ATOM     12  C   UNL     1       3.847   6.477  18.407  0.00  0.00    +0.000 C 
BRANCH  12  13
ATOM     13  C   UNL     1       2.329   6.570  18.470  0.00  0.00    +0.000 C 
ATOM     14  C   UNL     1       1.753   6.553  19.913  0.00  0.00    +0.000 C 
ATOM     15  C   UNL     1       1.861   7.899  20.656  0.00  0.00    +0.000 C 
ATOM     16  C   UNL     1       1.195   9.024  19.852  0.00  0.00    +0.000 C 
ATOM     17  C   UNL     1       1.818   9.129  18.452  0.00  0.00    +0.000 C 
ATOM     18  C   UNL     1       1.737   7.783  17.691  0.00  0.00    +0.000 C 
ENDBRANCH  12  13
ENDBRANCH  10  12
ENDBRANCH   1  10
BRANCH   1  19
ATOM     19  C   UNL     1       3.701   3.228  18.570  0.00  0.00    +0.000 C 
BRANCH  19  20
ATOM     20  N   UNL     1       2.901   3.037  19.814  0.00  0.00    +0.000 N 
ATOM     21  C   UNL     1       1.560   2.981  19.973  0.00  0.00    +0.000 A 
ATOM     22  C   UNL     1       1.288   2.660  21.294  0.00  0.00    +0.000 A 
ATOM     23  N   UNL     1       2.451   2.527  21.961  0.00  0.00    +0.000 NA
ATOM     24  C   UNL     1       3.411   2.761  21.040  0.00  0.00    +0.000 A 
ENDBRANCH  19  20
ENDBRANCH   1  19
TORSDOF 6
ENDMDL
MODEL 9
REMARK VINA RESULT:      -7.3      1.392      1.929
REMARK  Name = 
REMARK  6 active torsions:
REMARK  status: ('A' for Active; 'I' for Inactive)
REMARK    1  A    between atoms: C_2  and  O_3
REMARK    2  A    between atoms: C_2  and  C_19
REMARK    3  A    between atoms: O_3  and  C_4
REMARK    4  A    between atoms: C_4  and  C_5
REMARK    5  A    between atoms: C_4  and  C_11
REMARK    6  A    between atoms: C_5  and  N_6
REMARK                            x       y       z     vdW  Elec       q    Type
REMARK                         _______ _______ _______ _____ _____    ______ ____
ROOT
ATOM      1  C   UNL     1       3.228   5.992  18.742  0.00  0.00    +0.000 C 
ENDROOT
BRANCH   1   2
ATOM      2  C   UNL     1       2.329   7.055  19.478  0.00  0.00    +0.000 A 
ATOM      3  C   UNL     1       1.840   6.826  20.791  0.00  0.00    +0.000 A 
ATOM      4  C   UNL     1       1.030   7.762  21.458  0.00  0.00    +0.000 A 
ATOM      5  C   UNL     1       0.686   8.963  20.850  0.00  0.00    +0.000 A 
ATOM      6 CL   UNL     1      -0.316  10.141  21.693  0.00  0.00    +0.000 Cl
ATOM      7  C   UNL     1       1.144   9.223  19.555  0.00  0.00    +0.000 A 
ATOM      8  C   UNL     1       1.953   8.295  18.872  0.00  0.00    +0.000 A 
ATOM      9 CL   UNL     1       2.461   8.751  17.256  0.00  0.00    +0.000 Cl
ENDBRANCH   1   2
BRANCH   1  10
ATOM     10  O   UNL     1       2.435   5.108  18.004  0.00  0.00    +0.000 OA
BRANCH  10  12
ATOM     11  O   UNL     1       3.552   3.725  16.614  0.00  0.00    +0.000 OA
ATOM     12  C   UNL     1       2.806   3.850  17.569  0.00  0.00    +0.000 C 
BRANCH  12  13
ATOM     13  C   UNL     1       2.236   2.626  18.273  0.00  0.00    +0.000 C 
ATOM     14  C   UNL     1       3.140   2.072  19.409  0.00  0.00    +0.000 C 
ATOM     15  C   UNL     1       3.057   2.864  20.729  0.00  0.00    +0.000 C 
ATOM     16  C   UNL     1       1.608   2.953  21.225  0.00  0.00    +0.000 C 
ATOM     17  C   UNL     1       0.710   3.593  20.155  0.00  0.00    +0.000 C 
ATOM     18  C   UNL     1       0.788   2.824  18.814  0.00  0.00    +0.000 C 
ENDBRANCH  12  13
ENDBRANCH  10  12
ENDBRANCH   1  10
BRANCH   1  19
ATOM     19  C   UNL     1       4.302   6.689  17.835  0.00  0.00    +0.000 C 
BRANCH  19  20
ATOM     20  N   UNL     1       5.625   6.017  17.690  0.00  0.00    +0.000 N 
ATOM     21  C   UNL     1       6.285   5.224  18.563  0.00  0.00    +0.000 A 
ATOM     22  C   UNL     1       7.418   4.729  17.935  0.00  0.00    +0.000 A 
ATOM     23  N   UNL     1       7.473   5.217  16.681  0.00  0.00    +0.000 NA
ATOM     24  C   UNL     1       6.374   5.994  16.560  0.00  0.00    +0.000 A 
ENDBRANCH  19  20
ENDBRANCH   1  19
TORSDOF 6
ENDMDL
