MODEL 1
REMARK VINA RESULT:      -7.5      0.000      0.000
REMARK  Name = 
REMARK  9 active torsions:
REMARK  status: ('A' for Active; 'I' for Inactive)
REMARK    1  A    between atoms: C_1  and  C_2
REMARK    2  A    between atoms: C_2  and  C_22
REMARK    3  A    between atoms: N_3  and  O_4
REMARK    4  A    between atoms: O_4  and  C_5
REMARK    5  A    between atoms: C_5  and  C_6
REMARK    6  A    between atoms: C_6  and  O_7
REMARK    7  A    between atoms: O_7  and  C_8
REMARK    8  A    between atoms: C_11  and  C_12
REMARK    9  A    between atoms: C_12  and  C_13
REMARK                            x       y       z     vdW  Elec       q    Type
REMARK                         _______ _______ _______ _____ _____    ______ ____
ROOT
ATOM      1  C   UNL     1       2.164   6.797  19.940  0.00  0.00    +0.000 A 
ATOM      2  C   UNL     1       2.453   7.258  18.654  0.00  0.00    +0.000 A 
ATOM      3  C   UNL     1       2.061   8.537  18.263  0.00  0.00    +0.000 A 
ATOM      4  C   UNL     1       1.350   9.365  19.139  0.00  0.00    +0.000 A 
ATOM      5  C   UNL     1       1.038   8.887  20.419  0.00  0.00    +0.000 A 
ATOM      6  C   UNL     1       1.437   7.608  20.812  0.00  0.00    +0.000 A 
ENDROOT
BRANCH   1   7
ATOM      7  O   UNL     1       2.566   5.587  20.436  0.00  0.00    +0.000 OA
BRANCH   7   8
ATOM      8  C   UNL     1       1.534   4.606  20.593  0.00  0.00    +0.000 C 
BRANCH   8   9
ATOM      9  C   UNL     1       1.248   3.859  19.295  0.00  0.00    +0.000 C 
BRANCH   9  10
ATOM     10  O   UNL     1       2.344   3.006  18.978  0.00  0.00    +0.000 OA
BRANCH  10  13
ATOM     11  C   UNL     1       4.966   3.581  19.218  0.00  0.00    +0.000 C 
ATOM     12  C   UNL     1       4.186   3.767  17.932  0.00  0.00    +0.000 C 
ATOM     13  N   UNL     1       2.923   3.490  17.800  0.00  0.00    +0.000 NA
BRANCH  12  14
ATOM     14  C   UNL     1       4.911   4.304  16.741  0.00  0.00    +0.000 A 
ATOM     15  C   UNL     1       5.629   3.496  15.858  0.00  0.00    +0.000 A 
ATOM     16  C   UNL     1       6.284   4.076  14.771  0.00  0.00    +0.000 A 
ATOM     17  C   UNL     1       6.201   5.449  14.600  0.00  0.00    +0.000 A 
ATOM     18  N   UNL     1       5.516   6.261  15.430  0.00  0.00    +0.000 NA
ATOM     19  C   UNL     1       4.887   5.673  16.481  0.00  0.00    +0.000 A 
ENDBRANCH  12  14
ENDBRANCH  10  13
ENDBRANCH   9  10
ENDBRANCH   8   9
ENDBRANCH   7   8
ENDBRANCH   1   7
BRANCH   4  20
ATOM     20  C   UNL     1       0.925  10.745  18.690  0.00  0.00    +0.000 C 
BRANCH  20  21
ATOM     21  C   UNL     1      -0.582  11.024  18.708  0.00  0.00    +0.000 C 
ATOM     22  S   UNL     1      -1.569   9.860  17.705  0.00  0.00    +0.000 S 
ATOM     23  C   UNL     1      -2.187  11.127  16.677  0.00  0.00    +0.000 C 
ATOM     24  O   UNL     1      -2.848  10.927  15.673  0.00  0.00    +0.000 OA
ATOM     25  N   UNL     1      -1.826  12.340  17.154  0.00  0.00    +0.000 N 
ATOM     26  C   UNL     1      -0.930  12.399  18.177  0.00  0.00    +0.000 C 
ATOM     27  O   UNL     1      -0.469  13.450  18.604  0.00  0.00    +0.000 OA
ATOM     28  H   UNL     1      -2.102  13.175  16.661  0.00  0.00    +0.000 HD
ENDBRANCH  20  21
ENDBRANCH   4  20
TORSDOF 8
ENDMDL
MODEL 2
REMARK VINA RESULT:      -7.4      2.280      3.163
REMARK  Name = 
REMARK  9 active torsions:
REMARK  status: ('A' for Active; 'I' for Inactive)
REMARK    1  A    between atoms: C_1  and  C_2
REMARK    2  A    between atoms: C_2  and  C_22
REMARK    3  A    between atoms: N_3  and  O_4
REMARK    4  A    between atoms: O_4  and  C_5
REMARK    5  A    between atoms: C_5  and  C_6
REMARK    6  A    between atoms: C_6  and  O_7
REMARK    7  A    between atoms: O_7  and  C_8
REMARK    8  A    between atoms: C_11  and  C_12
REMARK    9  A    between atoms: C_12  and  C_13
REMARK                            x       y       z     vdW  Elec       q    Type
REMARK                         _______ _______ _______ _____ _____    ______ ____
ROOT
ATOM      1  C   UNL     1       1.783   3.991  19.140  0.00  0.00    +0.000 A 
ATOM      2  C   UNL     1       1.972   4.775  18.001  0.00  0.00    +0.000 A 
ATOM      3  C   UNL     1       2.112   6.157  18.117  0.00  0.00    +0.000 A 
ATOM      4  C   UNL     1       2.037   6.781  19.368  0.00  0.00    +0.000 A 
ATOM      5  C   UNL     1       1.818   5.991  20.505  0.00  0.00    +0.000 A 
ATOM      6  C   UNL     1       1.685   4.606  20.389  0.00  0.00    +0.000 A 
ENDROOT
BRANCH   1   7
ATOM      7  O   UNL     1       1.704   2.625  19.135  0.00  0.00    +0.000 OA
BRANCH   7   8
ATOM      8  C   UNL     1       2.936   1.933  18.896  0.00  0.00    +0.000 C 
BRANCH   8   9
ATOM      9  C   UNL     1       3.862   1.970  20.107  0.00  0.00    +0.000 C 
BRANCH   9  10
ATOM     10  O   UNL     1       4.789   3.045  19.973  0.00  0.00    +0.000 OA
BRANCH  10  13
ATOM     11  C   UNL     1       5.635   5.487  19.209  0.00  0.00    +0.000 C 
ATOM     12  C   UNL     1       5.551   4.302  18.269  0.00  0.00    +0.000 C 
ATOM     13  N   UNL     1       5.150   3.118  18.624  0.00  0.00    +0.000 NA
BRANCH  12  14
ATOM     14  C   UNL     1       5.953   4.504  16.844  0.00  0.00    +0.000 A 
ATOM     15  C   UNL     1       5.194   4.044  15.766  0.00  0.00    +0.000 A 
ATOM     16  C   UNL     1       5.643   4.268  14.463  0.00  0.00    +0.000 A 
ATOM     17  C   UNL     1       6.837   4.945  14.278  0.00  0.00    +0.000 A 
ATOM     18  N   UNL     1       7.596   5.405  15.294  0.00  0.00    +0.000 NA
ATOM     19  C   UNL     1       7.139   5.174  16.552  0.00  0.00    +0.000 A 
ENDBRANCH  12  14
ENDBRANCH  10  13
ENDBRANCH   9  10
ENDBRANCH   8   9
ENDBRANCH   7   8
ENDBRANCH   1   7
BRANCH   4  20
ATOM     20  C   UNL     1       2.180   8.283  19.468  0.00  0.00    +0.000 C 
BRANCH  20  21
ATOM     21  C   UNL     1       0.909   9.057  19.831  0.00  0.00    +0.000 C 
ATOM     22  S   UNL     1       0.566  10.485  18.746  0.00  0.00    +0.000 S 
ATOM     23  C   UNL     1       0.640  11.622  20.066  0.00  0.00    +0.000 C 
ATOM     24  O   UNL     1       0.610  12.832  19.924  0.00  0.00    +0.000 OA
ATOM     25  N   UNL     1       0.736  10.970  21.248  0.00  0.00    +0.000 N 
ATOM     26  C   UNL     1       0.949   9.625  21.235  0.00  0.00    +0.000 C 
ATOM     27  O   UNL     1       1.150   8.970  22.249  0.00  0.00    +0.000 OA
ATOM     28  H   UNL     1       0.797  11.493  22.106  0.00  0.00    +0.000 HD
ENDBRANCH  20  21
ENDBRANCH   4  20
TORSDOF 8
ENDMDL
MODEL 3
REMARK VINA RESULT:      -7.4      3.128      8.705
REMARK  Name = 
REMARK  9 active torsions:
REMARK  status: ('A' for Active; 'I' for Inactive)
REMARK    1  A    between atoms: C_1  and  C_2
REMARK    2  A    between atoms: C_2  and  C_22
REMARK    3  A    between atoms: N_3  and  O_4
REMARK    4  A    between atoms: O_4  and  C_5
REMARK    5  A    between atoms: C_5  and  C_6
REMARK    6  A    between atoms: C_6  and  O_7
REMARK    7  A    between atoms: O_7  and  C_8
REMARK    8  A    between atoms: C_11  and  C_12
REMARK    9  A    between atoms: C_12  and  C_13
REMARK                            x       y       z     vdW  Elec       q    Type
REMARK                         _______ _______ _______ _____ _____    ______ ____
ROOT
ATOM      1  C   UNL     1       1.822   7.104  20.425  0.00  0.00    +0.000 A 
ATOM      2  C   UNL     1       2.301   7.439  19.158  0.00  0.00    +0.000 A 
ATOM      3  C   UNL     1       2.480   6.450  18.192  0.00  0.00    +0.000 A 
ATOM      4  C   UNL     1       2.213   5.108  18.486  0.00  0.00    +0.000 A 
ATOM      5  C   UNL     1       1.760   4.774  19.770  0.00  0.00    +0.000 A 
ATOM      6  C   UNL     1       1.574   5.766  20.734  0.00  0.00    +0.000 A 
ENDROOT
BRANCH   1   7
ATOM      7  O   UNL     1       1.549   8.010  21.414  0.00  0.00    +0.000 OA
BRANCH   7   8
ATOM      8  C   UNL     1       0.432   8.874  21.174  0.00  0.00    +0.000 C 
BRANCH   8   9
ATOM      9  C   UNL     1       0.820  10.348  21.237  0.00  0.00    +0.000 C 
BRANCH   9  10
ATOM     10  O   UNL     1      -0.345  11.159  21.109  0.00  0.00    +0.000 OA
BRANCH  10  13
ATOM     11  C   UNL     1      -1.079  13.025  19.308  0.00  0.00    +0.000 C 
ATOM     12  C   UNL     1      -1.443  11.560  19.185  0.00  0.00    +0.000 C 
ATOM     13  N   UNL     1      -1.094  10.649  20.043  0.00  0.00    +0.000 NA
BRANCH  12  14
ATOM     14  C   UNL     1      -2.258  11.134  18.008  0.00  0.00    +0.000 A 
ATOM     15  C   UNL     1      -1.819  10.187  17.080  0.00  0.00    +0.000 A 
ATOM     16  C   UNL     1      -2.637   9.848  16.003  0.00  0.00    +0.000 A 
ATOM     17  C   UNL     1      -3.872  10.465  15.885  0.00  0.00    +0.000 A 
ATOM     18  N   UNL     1      -4.331  11.383  16.760  0.00  0.00    +0.000 NA
ATOM     19  C   UNL     1      -3.516  11.697  17.801  0.00  0.00    +0.000 A 
ENDBRANCH  12  14
ENDBRANCH  10  13
ENDBRANCH   9  10
ENDBRANCH   8   9
ENDBRANCH   7   8
ENDBRANCH   1   7
BRANCH   4  20
ATOM     20  C   UNL     1       2.425   4.050  17.427  0.00  0.00    +0.000 C 
BRANCH  20  21
ATOM     21  C   UNL     1       3.612   3.107  17.647  0.00  0.00    +0.000 C 
ATOM     22  S   UNL     1       3.307   1.793  18.878  0.00  0.00    +0.000 S 
ATOM     23  C   UNL     1       4.607   2.330  19.909  0.00  0.00    +0.000 C 
ATOM     24  O   UNL     1       4.821   1.882  21.022  0.00  0.00    +0.000 OA
ATOM     25  N   UNL     1       5.324   3.301  19.300  0.00  0.00    +0.000 N 
ATOM     26  C   UNL     1       4.851   3.829  18.137  0.00  0.00    +0.000 C 
ATOM     27  O   UNL     1       5.377   4.778  17.570  0.00  0.00    +0.000 OA
ATOM     28  H   UNL     1       6.107   3.720  19.775  0.00  0.00    +0.000 HD
ENDBRANCH  20  21
ENDBRANCH   4  20
TORSDOF 8
ENDMDL
MODEL 4
REMARK VINA RESULT:      -7.3      3.082      8.707
REMARK  Name = 
REMARK  9 active torsions:
REMARK  status: ('A' for Active; 'I' for Inactive)
REMARK    1  A    between atoms: C_1  and  C_2
REMARK    2  A    between atoms: C_2  and  C_22
REMARK    3  A    between atoms: N_3  and  O_4
REMARK    4  A    between atoms: O_4  and  C_5
REMARK    5  A    between atoms: C_5  and  C_6
REMARK    6  A    between atoms: C_6  and  O_7
REMARK    7  A    between atoms: O_7  and  C_8
REMARK    8  A    between atoms: C_11  and  C_12
REMARK    9  A    between atoms: C_12  and  C_13
REMARK                            x       y       z     vdW  Elec       q    Type
REMARK                         _______ _______ _______ _____ _____    ______ ____
ROOT
ATOM      1  C   UNL     1       2.309   7.111  19.349  0.00  0.00    +0.000 A 
ATOM      2  C   UNL     1       2.326   5.735  19.579  0.00  0.00    +0.000 A 
ATOM      3  C   UNL     1       3.062   4.895  18.745  0.00  0.00    +0.000 A 
ATOM      4  C   UNL     1       3.767   5.411  17.651  0.00  0.00    +0.000 A 
ATOM      5  C   UNL     1       3.722   6.791  17.409  0.00  0.00    +0.000 A 
ATOM      6  C   UNL     1       2.990   7.633  18.249  0.00  0.00    +0.000 A 
ENDROOT
BRANCH   1   7
ATOM      7  O   UNL     1       1.675   8.022  20.150  0.00  0.00    +0.000 OA
BRANCH   7   8
ATOM      8  C   UNL     1       1.227   9.216  19.499  0.00  0.00    +0.000 C 
BRANCH   8   9
ATOM      9  C   UNL     1       1.110  10.390  20.466  0.00  0.00    +0.000 C 
BRANCH   9  10
ATOM     10  O   UNL     1      -0.212  10.920  20.425  0.00  0.00    +0.000 OA
BRANCH  10  13
ATOM     11  C   UNL     1      -2.559  12.141  19.911  0.00  0.00    +0.000 C 
ATOM     12  C   UNL     1      -1.886  11.189  18.945  0.00  0.00    +0.000 C 
ATOM     13  N   UNL     1      -0.753  10.596  19.177  0.00  0.00    +0.000 NA
BRANCH  12  14
ATOM     14  C   UNL     1      -2.565  10.910  17.643  0.00  0.00    +0.000 A 
ATOM     15  C   UNL     1      -2.049  10.033  16.687  0.00  0.00    +0.000 A 
ATOM     16  C   UNL     1      -2.742   9.832  15.493  0.00  0.00    +0.000 A 
ATOM     17  C   UNL     1      -3.931  10.514  15.290  0.00  0.00    +0.000 A 
ATOM     18  N   UNL     1      -4.461  11.367  16.190  0.00  0.00    +0.000 NA
ATOM     19  C   UNL     1      -3.768  11.547  17.345  0.00  0.00    +0.000 A 
ENDBRANCH  12  14
ENDBRANCH  10  13
ENDBRANCH   9  10
ENDBRANCH   8   9
ENDBRANCH   7   8
ENDBRANCH   1   7
BRANCH   4  20
ATOM     20  C   UNL     1       4.548   4.479  16.753  0.00  0.00    +0.000 C 
BRANCH  20  21
ATOM     21  C   UNL     1       6.073   4.533  16.894  0.00  0.00    +0.000 C 
ATOM     22  S   UNL     1       6.654   5.187  18.496  0.00  0.00    +0.000 S 
ATOM     23  C   UNL     1       7.507   6.513  17.750  0.00  0.00    +0.000 C 
ATOM     24  O   UNL     1       8.023   7.426  18.371  0.00  0.00    +0.000 OA
ATOM     25  N   UNL     1       7.506   6.378  16.404  0.00  0.00    +0.000 N 
ATOM     26  C   UNL     1       6.728   5.409  15.846  0.00  0.00    +0.000 C 
ATOM     27  O   UNL     1       6.585   5.279  14.637  0.00  0.00    +0.000 OA
ATOM     28  H   UNL     1       7.954   7.074  15.830  0.00  0.00    +0.000 HD
ENDBRANCH  20  21
ENDBRANCH   4  20
TORSDOF 8
ENDMDL
MODEL 5
REMARK VINA RESULT:      -7.3      3.427      9.988
REMARK  Name = 
REMARK  9 active torsions:
REMARK  status: ('A' for Active; 'I' for Inactive)
REMARK    1  A    between atoms: C_1  and  C_2
REMARK    2  A    between atoms: C_2  and  C_22
REMARK    3  A    between atoms: N_3  and  O_4
REMARK    4  A    between atoms: O_4  and  C_5
REMARK    5  A    between atoms: C_5  and  C_6
REMARK    6  A    between atoms: C_6  and  O_7
REMARK    7  A    between atoms: O_7  and  C_8
REMARK    8  A    between atoms: C_11  and  C_12
REMARK    9  A    between atoms: C_12  and  C_13
REMARK                            x       y       z     vdW  Elec       q    Type
REMARK                         _______ _______ _______ _____ _____    ______ ____
ROOT
ATOM      1  C   UNL     1       1.196   9.254  19.496  0.00  0.00    +0.000 A 
ATOM      2  C   UNL     1       1.495   8.140  20.282  0.00  0.00    +0.000 A 
ATOM      3  C   UNL     1       2.269   7.103  19.763  0.00  0.00    +0.000 A 
ATOM      4  C   UNL     1       2.730   7.148  18.442  0.00  0.00    +0.000 A 
ATOM      5  C   UNL     1       2.402   8.255  17.649  0.00  0.00    +0.000 A 
ATOM      6  C   UNL     1       1.633   9.297  18.171  0.00  0.00    +0.000 A 
ENDROOT
BRANCH   1   7
ATOM      7  O   UNL     1       0.505  10.349  19.937  0.00  0.00    +0.000 OA
BRANCH   7   8
ATOM      8  C   UNL     1       0.792  11.579  19.260  0.00  0.00    +0.000 C 
BRANCH   8   9
ATOM      9  C   UNL     1      -0.451  12.190  18.622  0.00  0.00    +0.000 C 
BRANCH   9  10
ATOM     10  O   UNL     1      -1.391  11.163  18.318  0.00  0.00    +0.000 OA
BRANCH  10  13
ATOM     11  C   UNL     1      -3.348  10.959  16.476  0.00  0.00    +0.000 C 
ATOM     12  C   UNL     1      -3.574  11.492  17.876  0.00  0.00    +0.000 C 
ATOM     13  N   UNL     1      -2.641  11.593  18.776  0.00  0.00    +0.000 NA
BRANCH  12  14
ATOM     14  C   UNL     1      -4.952  11.933  18.248  0.00  0.00    +0.000 A 
ATOM     15  C   UNL     1      -5.382  12.054  19.570  0.00  0.00    +0.000 A 
ATOM     16  C   UNL     1      -6.689  12.466  19.834  0.00  0.00    +0.000 A 
ATOM     17  C   UNL     1      -7.527  12.746  18.766  0.00  0.00    +0.000 A 
ATOM     18  N   UNL     1      -7.147  12.643  17.476  0.00  0.00    +0.000 NA
ATOM     19  C   UNL     1      -5.870  12.239  17.245  0.00  0.00    +0.000 A 
ENDBRANCH  12  14
ENDBRANCH  10  13
ENDBRANCH   9  10
ENDBRANCH   8   9
ENDBRANCH   7   8
ENDBRANCH   1   7
BRANCH   4  20
ATOM     20  C   UNL     1       3.558   6.006  17.897  0.00  0.00    +0.000 C 
BRANCH  20  21
ATOM     21  C   UNL     1       4.915   5.779  18.570  0.00  0.00    +0.000 C 
ATOM     22  S   UNL     1       6.345   6.322  17.573  0.00  0.00    +0.000 S 
ATOM     23  C   UNL     1       7.035   4.721  17.521  0.00  0.00    +0.000 C 
ATOM     24  O   UNL     1       8.000   4.418  16.842  0.00  0.00    +0.000 OA
ATOM     25  N   UNL     1       6.347   3.884  18.331  0.00  0.00    +0.000 N 
ATOM     26  C   UNL     1       5.179   4.319  18.879  0.00  0.00    +0.000 C 
ATOM     27  O   UNL     1       4.440   3.600  19.540  0.00  0.00    +0.000 OA
ATOM     28  H   UNL     1       6.621   2.917  18.402  0.00  0.00    +0.000 HD
ENDBRANCH  20  21
ENDBRANCH   4  20
TORSDOF 8
ENDMDL
MODEL 6
REMARK VINA RESULT:      -7.3      3.133      8.650
REMARK  Name = 
REMARK  9 active torsions:
REMARK  status: ('A' for Active; 'I' for Inactive)
REMARK    1  A    between atoms: C_1  and  C_2
REMARK    2  A    between atoms: C_2  and  C_22
REMARK    3  A    between atoms: N_3  and  O_4
REMARK    4  A    between atoms: O_4  and  C_5
REMARK    5  A    between atoms: C_5  and  C_6
REMARK    6  A    between atoms: C_6  and  O_7
REMARK    7  A    between atoms: O_7  and  C_8
REMARK    8  A    between atoms: C_11  and  C_12
REMARK    9  A    between atoms: C_12  and  C_13
REMARK                            x       y       z     vdW  Elec       q    Type
REMARK                         _______ _______ _______ _____ _____    ______ ____
ROOT
ATOM      1  C   UNL     1       2.498   6.172  19.555  0.00  0.00    +0.000 A 
ATOM      2  C   UNL     1       2.971   6.810  18.407  0.00  0.00    +0.000 A 
ATOM      3  C   UNL     1       3.749   6.111  17.486  0.00  0.00    +0.000 A 
ATOM      4  C   UNL     1       4.092   4.773  17.710  0.00  0.00    +0.000 A 
ATOM      5  C   UNL     1       3.638   4.145  18.879  0.00  0.00    +0.000 A 
ATOM      6  C   UNL     1       2.854   4.845  19.798  0.00  0.00    +0.000 A 
ENDROOT
BRANCH   1   7
ATOM      7  O   UNL     1       1.674   6.752  20.480  0.00  0.00    +0.000 OA
BRANCH   7   8
ATOM      8  C   UNL     1       1.737   8.182  20.557  0.00  0.00    +0.000 C 
BRANCH   8   9
ATOM      9  C   UNL     1       0.438   8.788  21.080  0.00  0.00    +0.000 C 
BRANCH   9  10
ATOM     10  O   UNL     1       0.275  10.104  20.557  0.00  0.00    +0.000 OA
BRANCH  10  13
ATOM     11  C   UNL     1      -1.656  11.970  20.339  0.00  0.00    +0.000 C 
ATOM     12  C   UNL     1      -1.410  10.901  19.296  0.00  0.00    +0.000 C 
ATOM     13  N   UNL     1      -0.480   9.997  19.385  0.00  0.00    +0.000 NA
BRANCH  12  14
ATOM     14  C   UNL     1      -2.290  10.879  18.088  0.00  0.00    +0.000 A 
ATOM     15  C   UNL     1      -3.484  11.596  18.003  0.00  0.00    +0.000 A 
ATOM     16  C   UNL     1      -4.253  11.517  16.842  0.00  0.00    +0.000 A 
ATOM     17  C   UNL     1      -3.805  10.723  15.799  0.00  0.00    +0.000 A 
ATOM     18  N   UNL     1      -2.656  10.017  15.844  0.00  0.00    +0.000 NA
ATOM     19  C   UNL     1      -1.925  10.109  16.985  0.00  0.00    +0.000 A 
ENDBRANCH  12  14
ENDBRANCH  10  13
ENDBRANCH   9  10
ENDBRANCH   8   9
ENDBRANCH   7   8
ENDBRANCH   1   7
BRANCH   4  20
ATOM     20  C   UNL     1       4.946   4.037  16.703  0.00  0.00    +0.000 C 
BRANCH  20  21
ATOM     21  C   UNL     1       6.442   4.366  16.723  0.00  0.00    +0.000 C 
ATOM     22  S   UNL     1       7.046   5.011  18.321  0.00  0.00    +0.000 S 
ATOM     23  C   UNL     1       7.568   6.520  17.620  0.00  0.00    +0.000 C 
ATOM     24  O   UNL     1       7.967   7.471  18.270  0.00  0.00    +0.000 OA
ATOM     25  N   UNL     1       7.464   6.476  16.272  0.00  0.00    +0.000 N 
ATOM     26  C   UNL     1       6.825   5.418  15.701  0.00  0.00    +0.000 C 
ATOM     27  O   UNL     1       6.593   5.344  14.501  0.00  0.00    +0.000 OA
ATOM     28  H   UNL     1       7.721   7.280  15.722  0.00  0.00    +0.000 HD
ENDBRANCH  20  21
ENDBRANCH   4  20
TORSDOF 8
ENDMDL
MODEL 7
REMARK VINA RESULT:      -7.3      4.242     10.224
REMARK  Name = 
REMARK  9 active torsions:
REMARK  status: ('A' for Active; 'I' for Inactive)
REMARK    1  A    between atoms: C_1  and  C_2
REMARK    2  A    between atoms: C_2  and  C_22
REMARK    3  A    between atoms: N_3  and  O_4
REMARK    4  A    between atoms: O_4  and  C_5
REMARK    5  A    between atoms: C_5  and  C_6
REMARK    6  A    between atoms: C_6  and  O_7
REMARK    7  A    between atoms: O_7  and  C_8
REMARK    8  A    between atoms: C_11  and  C_12
REMARK    9  A    between atoms: C_12  and  C_13
REMARK                            x       y       z     vdW  Elec       q    Type
REMARK                         _______ _______ _______ _____ _____    ______ ____
ROOT
ATOM      1  C   UNL     1       1.303   9.272  19.247  0.00  0.00    +0.000 A 
ATOM      2  C   UNL     1       1.477   8.194  20.115  0.00  0.00    +0.000 A 
ATOM      3  C   UNL     1       2.216   7.083  19.713  0.00  0.00    +0.000 A 
ATOM      4  C   UNL     1       2.767   7.018  18.428  0.00  0.00    +0.000 A 
ATOM      5  C   UNL     1       2.564   8.092  17.550  0.00  0.00    +0.000 A 
ATOM      6  C   UNL     1       1.830   9.207  17.956  0.00  0.00    +0.000 A 
ENDROOT
BRANCH   1   7
ATOM      7  O   UNL     1       0.654  10.432  19.573  0.00  0.00    +0.000 OA
BRANCH   7   8
ATOM      8  C   UNL     1       1.417  11.378  20.331  0.00  0.00    +0.000 C 
BRANCH   8   9
ATOM      9  C   UNL     1       0.631  12.653  20.621  0.00  0.00    +0.000 C 
BRANCH   9  10
ATOM     10  O   UNL     1       0.385  12.760  22.021  0.00  0.00    +0.000 OA
BRANCH  10  13
ATOM     11  C   UNL     1      -1.142  10.787  23.040  0.00  0.00    +0.000 C 
ATOM     12  C   UNL     1      -1.683  12.153  22.671  0.00  0.00    +0.000 C 
ATOM     13  N   UNL     1      -0.958  13.115  22.182  0.00  0.00    +0.000 NA
BRANCH  12  14
ATOM     14  C   UNL     1      -3.140  12.413  22.877  0.00  0.00    +0.000 A 
ATOM     15  C   UNL     1      -4.001  12.786  21.843  0.00  0.00    +0.000 A 
ATOM     16  C   UNL     1      -5.349  13.017  22.120  0.00  0.00    +0.000 A 
ATOM     17  C   UNL     1      -5.796  12.869  23.423  0.00  0.00    +0.000 A 
ATOM     18  N   UNL     1      -4.995  12.509  24.447  0.00  0.00    +0.000 NA
ATOM     19  C   UNL     1      -3.687  12.290  24.152  0.00  0.00    +0.000 A 
ENDBRANCH  12  14
ENDBRANCH  10  13
ENDBRANCH   9  10
ENDBRANCH   8   9
ENDBRANCH   7   8
ENDBRANCH   1   7
BRANCH   4  20
ATOM     20  C   UNL     1       3.556   5.797  18.009  0.00  0.00    +0.000 C 
BRANCH  20  21
ATOM     21  C   UNL     1       5.018   5.754  18.463  0.00  0.00    +0.000 C 
ATOM     22  S   UNL     1       6.210   6.335  17.208  0.00  0.00    +0.000 S 
ATOM     23  C   UNL     1       7.045   4.804  17.159  0.00  0.00    +0.000 C 
ATOM     24  O   UNL     1       7.918   4.531  16.353  0.00  0.00    +0.000 OA
ATOM     25  N   UNL     1       6.583   3.983  18.129  0.00  0.00    +0.000 N 
ATOM     26  C   UNL     1       5.477   4.357  18.829  0.00  0.00    +0.000 C 
ATOM     27  O   UNL     1       4.930   3.635  19.652  0.00  0.00    +0.000 OA
ATOM     28  H   UNL     1       6.963   3.055  18.223  0.00  0.00    +0.000 HD
ENDBRANCH  20  21
ENDBRANCH   4  20
TORSDOF 8
ENDMDL
MODEL 8
REMARK VINA RESULT:      -7.1      6.325      9.141
REMARK  Name = 
REMARK  9 active torsions:
REMARK  status: ('A' for Active; 'I' for Inactive)
REMARK    1  A    between atoms: C_1  and  C_2
REMARK    2  A    between atoms: C_2  and  C_22
REMARK    3  A    between atoms: N_3  and  O_4
REMARK    4  A    between atoms: O_4  and  C_5
REMARK    5  A    between atoms: C_5  and  C_6
REMARK    6  A    between atoms: C_6  and  O_7
REMARK    7  A    between atoms: O_7  and  C_8
REMARK    8  A    between atoms: C_11  and  C_12
REMARK    9  A    between atoms: C_12  and  C_13
REMARK                            x       y       z     vdW  Elec       q    Type
REMARK                         _______ _______ _______ _____ _____    ______ ____
ROOT
ATOM      1  C   UNL     1       6.158   6.097  16.829  0.00  0.00    +0.000 A 
ATOM      2  C   UNL     1       5.073   6.603  17.547  0.00  0.00    +0.000 A 
ATOM      3  C   UNL     1       3.952   5.808  17.777  0.00  0.00    +0.000 A 
ATOM      4  C   UNL     1       3.883   4.506  17.268  0.00  0.00    +0.000 A 
ATOM      5  C   UNL     1       4.964   4.013  16.522  0.00  0.00    +0.000 A 
ATOM      6  C   UNL     1       6.089   4.809  16.299  0.00  0.00    +0.000 A 
ENDROOT
BRANCH   1   7
ATOM      7  O   UNL     1       7.326   6.775  16.612  0.00  0.00    +0.000 OA
BRANCH   7   8
ATOM      8  C   UNL     1       7.909   7.395  17.766  0.00  0.00    +0.000 C 
BRANCH   8   9
ATOM      9  C   UNL     1       7.999   8.910  17.621  0.00  0.00    +0.000 C 
BRANCH   9  10
ATOM     10  O   UNL     1       8.703   9.459  18.733  0.00  0.00    +0.000 OA
BRANCH  10  13
ATOM     11  C   UNL     1       9.468  11.147  20.690  0.00  0.00    +0.000 C 
ATOM     12  C   UNL     1       9.771  11.379  19.224  0.00  0.00    +0.000 C 
ATOM     13  N   UNL     1       9.412  10.572  18.270  0.00  0.00    +0.000 NA
BRANCH  12  14
ATOM     14  C   UNL     1      10.527  12.611  18.847  0.00  0.00    +0.000 A 
ATOM     15  C   UNL     1      10.272  13.335  17.680  0.00  0.00    +0.000 A 
ATOM     16  C   UNL     1      11.028  14.473  17.397  0.00  0.00    +0.000 A 
ATOM     17  C   UNL     1      12.017  14.854  18.289  0.00  0.00    +0.000 A 
ATOM     18  N   UNL     1      12.291  14.182  19.426  0.00  0.00    +0.000 NA
ATOM     19  C   UNL     1      11.542  13.077  19.680  0.00  0.00    +0.000 A 
ENDBRANCH  12  14
ENDBRANCH  10  13
ENDBRANCH   9  10
ENDBRANCH   8   9
ENDBRANCH   7   8
ENDBRANCH   1   7
BRANCH   4  20
ATOM     20  C   UNL     1       2.652   3.665  17.519  0.00  0.00    +0.000 C 
BRANCH  20  21
ATOM     21  C   UNL     1       2.803   2.547  18.556  0.00  0.00    +0.000 C 
ATOM     22  S   UNL     1       1.252   2.109  19.415  0.00  0.00    +0.000 S 
ATOM     23  C   UNL     1       1.897   2.519  20.983  0.00  0.00    +0.000 C 
ATOM     24  O   UNL     1       1.233   2.552  22.004  0.00  0.00    +0.000 OA
ATOM     25  N   UNL     1       3.219   2.791  20.894  0.00  0.00    +0.000 N 
ATOM     26  C   UNL     1       3.781   2.898  19.658  0.00  0.00    +0.000 C 
ATOM     27  O   UNL     1       4.943   3.241  19.478  0.00  0.00    +0.000 OA
ATOM     28  H   UNL     1       3.734   3.054  21.719  0.00  0.00    +0.000 HD
ENDBRANCH  20  21
ENDBRANCH   4  20
TORSDOF 8
ENDMDL
MODEL 9
REMARK VINA RESULT:      -7.1      4.719     10.634
REMARK  Name = 
REMARK  9 active torsions:
REMARK  status: ('A' for Active; 'I' for Inactive)
REMARK    1  A    between atoms: C_1  and  C_2
REMARK    2  A    between atoms: C_2  and  C_22
REMARK    3  A    between atoms: N_3  and  O_4
REMARK    4  A    between atoms: O_4  and  C_5
REMARK    5  A    between atoms: C_5  and  C_6
REMARK    6  A    between atoms: C_6  and  O_7
REMARK    7  A    between atoms: O_7  and  C_8
REMARK    8  A    between atoms: C_11  and  C_12
REMARK    9  A    between atoms: C_12  and  C_13
REMARK                            x       y       z     vdW  Elec       q    Type
REMARK                         _______ _______ _______ _____ _____    ______ ____
ROOT
ATOM      1  C   UNL     1       1.285   9.282  19.345  0.00  0.00    +0.000 A 
ATOM      2  C   UNL     1       1.534   8.181  20.165  0.00  0.00    +0.000 A 
ATOM      3  C   UNL     1       2.287   7.108  19.689  0.00  0.00    +0.000 A 
ATOM      4  C   UNL     1       2.777   7.105  18.378  0.00  0.00    +0.000 A 
ATOM      5  C   UNL     1       2.498   8.201  17.550  0.00  0.00    +0.000 A 
ATOM      6  C   UNL     1       1.750   9.278  18.029  0.00  0.00    +0.000 A 
ENDROOT
BRANCH   1   7
ATOM      7  O   UNL     1       0.617  10.408  19.743  0.00  0.00    +0.000 OA
BRANCH   7   8
ATOM      8  C   UNL     1       0.834  10.812  21.100  0.00  0.00    +0.000 C 
BRANCH   8   9
ATOM      9  C   UNL     1      -0.320  10.410  22.012  0.00  0.00    +0.000 C 
BRANCH   9  10
ATOM     10  O   UNL     1      -0.490  11.389  23.035  0.00  0.00    +0.000 OA
BRANCH  10  13
ATOM     11  C   UNL     1      -1.209  13.967  23.347  0.00  0.00    +0.000 C 
ATOM     12  C   UNL     1      -2.196  12.818  23.367  0.00  0.00    +0.000 C 
ATOM     13  N   UNL     1      -1.865  11.571  23.214  0.00  0.00    +0.000 NA
BRANCH  12  14
ATOM     14  C   UNL     1      -3.641  13.135  23.578  0.00  0.00    +0.000 A 
ATOM     15  C   UNL     1      -4.206  14.369  23.250  0.00  0.00    +0.000 A 
ATOM     16  C   UNL     1      -5.564  14.588  23.485  0.00  0.00    +0.000 A 
ATOM     17  C   UNL     1      -6.317  13.566  24.040  0.00  0.00    +0.000 A 
ATOM     18  N   UNL     1      -5.808  12.361  24.368  0.00  0.00    +0.000 NA
ATOM     19  C   UNL     1      -4.483  12.172  24.131  0.00  0.00    +0.000 A 
ENDBRANCH  12  14
ENDBRANCH  10  13
ENDBRANCH   9  10
ENDBRANCH   8   9
ENDBRANCH   7   8
ENDBRANCH   1   7
BRANCH   4  20
ATOM     20  C   UNL     1       3.582   5.926  17.879  0.00  0.00    +0.000 C 
BRANCH  20  21
ATOM     21  C   UNL     1       4.981   5.765  18.482  0.00  0.00    +0.000 C 
ATOM     22  S   UNL     1       6.334   6.323  17.391  0.00  0.00    +0.000 S 
ATOM     23  C   UNL     1       7.075   4.744  17.348  0.00  0.00    +0.000 C 
ATOM     24  O   UNL     1       8.012   4.452  16.626  0.00  0.00    +0.000 OA
ATOM     25  N   UNL     1       6.462   3.911  18.220  0.00  0.00    +0.000 N 
ATOM     26  C   UNL     1       5.311   4.325  18.819  0.00  0.00    +0.000 C 
ATOM     27  O   UNL     1       4.635   3.603  19.540  0.00  0.00    +0.000 OA
ATOM     28  H   UNL     1       6.772   2.957  18.303  0.00  0.00    +0.000 HD
ENDBRANCH  20  21
ENDBRANCH   4  20
TORSDOF 8
ENDMDL
