MODEL 1
REMARK VINA RESULT:      -9.7      0.000      0.000
REMARK  Name = 
REMARK  6 active torsions:
REMARK  status: ('A' for Active; 'I' for Inactive)
REMARK    1  A    between atoms: C_1  and  C_2
REMARK    2  A    between atoms: C_7  and  C_8
REMARK    3  A    between atoms: C_8  and  N_9
REMARK    4  A    between atoms: N_12  and  C_13
REMARK    5  A    between atoms: C_13  and  C_14
REMARK    6  A    between atoms: C_15  and  C_16
REMARK                            x       y       z     vdW  Elec       q    Type
REMARK                         _______ _______ _______ _____ _____    ______ ____
ROOT
ATOM      1  N   UNL     1       5.114   4.512  17.450  0.00  0.00    +0.000 N 
ATOM      2  C   UNL     1       5.425   5.597  16.521  0.00  0.00    +0.000 C 
ATOM      3  C   UNL     1       6.935   5.784  16.275  0.00  0.00    +0.000 C 
ATOM      4  N   UNL     1       7.684   6.555  17.282  0.00  0.00    +0.000 NA
ATOM      5  C   UNL     1       7.752   5.839  18.562  0.00  0.00    +0.000 C 
ATOM      6  C   UNL     1       6.424   5.598  19.263  0.00  0.00    +0.000 C 
ATOM      7  C   UNL     1       5.657   4.412  18.721  0.00  0.00    +0.000 C 
ATOM      8  O   UNL     1       5.500   3.417  19.432  0.00  0.00    +0.000 OA
ENDROOT
BRANCH   1   9
ATOM      9  C   UNL     1       4.101   3.535  17.037  0.00  0.00    +0.000 C 
BRANCH   9  16
ATOM     10  C   UNL     1       2.413   5.932  18.040  0.00  0.00    +0.000 C 
ATOM     11  C   UNL     1       2.166   4.511  18.464  0.00  0.00    +0.000 A 
ATOM     12  C   UNL     1       1.120   4.280  19.382  0.00  0.00    +0.000 A 
ATOM     13  C   UNL     1       0.817   2.994  19.826  0.00  0.00    +0.000 A 
ATOM     14  C   UNL     1       1.563   1.917  19.372  0.00  0.00    +0.000 A 
ATOM     15  C   UNL     1       2.616   2.129  18.483  0.00  0.00    +0.000 A 
ATOM     16  C   UNL     1       2.940   3.420  18.012  0.00  0.00    +0.000 A 
ENDBRANCH   9  16
ENDBRANCH   1   9
BRANCH   4  17
ATOM     17  C   UNL     1       7.236   7.947  17.441  0.00  0.00    +0.000 C 
BRANCH  17  18
ATOM     18  C   UNL     1       8.250   8.762  18.182  0.00  0.00    +0.000 C 
ATOM     19  C   UNL     1       8.534  10.049  17.916  0.00  0.00    +0.000 C 
BRANCH  19  20
ATOM     20  C   UNL     1       9.614  10.784  18.587  0.00  0.00    +0.000 A 
ATOM     21  C   UNL     1      10.651  11.384  17.860  0.00  0.00    +0.000 A 
ATOM     22  C   UNL     1      11.655  12.104  18.509  0.00  0.00    +0.000 A 
ATOM     23  C   UNL     1      11.621  12.250  19.892  0.00  0.00    +0.000 A 
ATOM     24  C   UNL     1      10.582  11.683  20.625  0.00  0.00    +0.000 A 
ATOM     25  C   UNL     1       9.577  10.957  19.976  0.00  0.00    +0.000 A 
ENDBRANCH  19  20
ENDBRANCH  17  18
ENDBRANCH   4  17
TORSDOF 5
ENDMDL
MODEL 2
REMARK VINA RESULT:      -9.5      0.651      1.479
REMARK  Name = 
REMARK  6 active torsions:
REMARK  status: ('A' for Active; 'I' for Inactive)
REMARK    1  A    between atoms: C_1  and  C_2
REMARK    2  A    between atoms: C_7  and  C_8
REMARK    3  A    between atoms: C_8  and  N_9
REMARK    4  A    between atoms: N_12  and  C_13
REMARK    5  A    between atoms: C_13  and  C_14
REMARK    6  A    between atoms: C_15  and  C_16
REMARK                            x       y       z     vdW  Elec       q    Type
REMARK                         _______ _______ _______ _____ _____    ______ ____
ROOT
ATOM      1  N   UNL     1       4.890   4.895  17.613  0.00  0.00    +0.000 N 
ATOM      2  C   UNL     1       5.066   6.067  16.757  0.00  0.00    +0.000 C 
ATOM      3  C   UNL     1       6.495   6.214  16.199  0.00  0.00    +0.000 C 
ATOM      4  N   UNL     1       7.498   6.826  17.087  0.00  0.00    +0.000 NA
ATOM      5  C   UNL     1       7.794   5.961  18.236  0.00  0.00    +0.000 C 
ATOM      6  C   UNL     1       6.638   5.699  19.188  0.00  0.00    +0.000 C 
ATOM      7  C   UNL     1       5.689   4.621  18.711  0.00  0.00    +0.000 C 
ATOM      8  O   UNL     1       5.622   3.557  19.331  0.00  0.00    +0.000 OA
ENDROOT
BRANCH   1   9
ATOM      9  C   UNL     1       3.746   4.021  17.338  0.00  0.00    +0.000 C 
BRANCH   9  16
ATOM     10  C   UNL     1       3.053   1.303  18.654  0.00  0.00    +0.000 C 
ATOM     11  C   UNL     1       2.502   2.618  19.132  0.00  0.00    +0.000 A 
ATOM     12  C   UNL     1       1.609   2.590  20.223  0.00  0.00    +0.000 A 
ATOM     13  C   UNL     1       1.053   3.760  20.736  0.00  0.00    +0.000 A 
ATOM     14  C   UNL     1       1.368   4.980  20.156  0.00  0.00    +0.000 A 
ATOM     15  C   UNL     1       2.231   5.025  19.062  0.00  0.00    +0.000 A 
ATOM     16  C   UNL     1       2.812   3.855  18.527  0.00  0.00    +0.000 A 
ENDBRANCH   9  16
ENDBRANCH   1   9
BRANCH   4  17
ATOM     17  C   UNL     1       7.195   8.208  17.488  0.00  0.00    +0.000 C 
BRANCH  17  18
ATOM     18  C   UNL     1       8.431   8.927  17.931  0.00  0.00    +0.000 C 
ATOM     19  C   UNL     1       8.440  10.148  18.496  0.00  0.00    +0.000 C 
BRANCH  19  20
ATOM     20  C   UNL     1       9.677  10.872  18.815  0.00  0.00    +0.000 A 
ATOM     21  C   UNL     1      10.572  11.266  17.810  0.00  0.00    +0.000 A 
ATOM     22  C   UNL     1      11.730  11.979  18.125  0.00  0.00    +0.000 A 
ATOM     23  C   UNL     1      11.995  12.323  19.447  0.00  0.00    +0.000 A 
ATOM     24  C   UNL     1      11.102  11.962  20.452  0.00  0.00    +0.000 A 
ATOM     25  C   UNL     1       9.942  11.244  20.138  0.00  0.00    +0.000 A 
ENDBRANCH  19  20
ENDBRANCH  17  18
ENDBRANCH   4  17
TORSDOF 5
ENDMDL
MODEL 3
REMARK VINA RESULT:      -9.5      0.378      1.004
REMARK  Name = 
REMARK  6 active torsions:
REMARK  status: ('A' for Active; 'I' for Inactive)
REMARK    1  A    between atoms: C_1  and  C_2
REMARK    2  A    between atoms: C_7  and  C_8
REMARK    3  A    between atoms: C_8  and  N_9
REMARK    4  A    between atoms: N_12  and  C_13
REMARK    5  A    between atoms: C_13  and  C_14
REMARK    6  A    between atoms: C_15  and  C_16
REMARK                            x       y       z     vdW  Elec       q    Type
REMARK                         _______ _______ _______ _____ _____    ______ ____
ROOT
ATOM      1  N   UNL     1       5.079   4.656  17.460  0.00  0.00    +0.000 N 
ATOM      2  C   UNL     1       5.397   5.789  16.591  0.00  0.00    +0.000 C 
ATOM      3  C   UNL     1       6.905   5.956  16.322  0.00  0.00    +0.000 C 
ATOM      4  N   UNL     1       7.694   6.646  17.357  0.00  0.00    +0.000 NA
ATOM      5  C   UNL     1       7.773   5.851  18.589  0.00  0.00    +0.000 C 
ATOM      6  C   UNL     1       6.455   5.599  19.304  0.00  0.00    +0.000 C 
ATOM      7  C   UNL     1       5.647   4.466  18.709  0.00  0.00    +0.000 C 
ATOM      8  O   UNL     1       5.481   3.434  19.363  0.00  0.00    +0.000 OA
ENDROOT
BRANCH   1   9
ATOM      9  C   UNL     1       4.034   3.731  17.012  0.00  0.00    +0.000 C 
BRANCH   9  16
ATOM     10  C   UNL     1       2.356   6.043  18.215  0.00  0.00    +0.000 C 
ATOM     11  C   UNL     1       2.147   4.596  18.570  0.00  0.00    +0.000 A 
ATOM     12  C   UNL     1       1.145   4.298  19.517  0.00  0.00    +0.000 A 
ATOM     13  C   UNL     1       0.879   2.986  19.902  0.00  0.00    +0.000 A 
ATOM     14  C   UNL     1       1.620   1.947  19.359  0.00  0.00    +0.000 A 
ATOM     15  C   UNL     1       2.631   2.225  18.439  0.00  0.00    +0.000 A 
ATOM     16  C   UNL     1       2.917   3.544  18.027  0.00  0.00    +0.000 A 
ENDBRANCH   9  16
ENDBRANCH   1   9
BRANCH   4  17
ATOM     17  C   UNL     1       7.285   8.035  17.610  0.00  0.00    +0.000 C 
BRANCH  17  18
ATOM     18  C   UNL     1       8.473   8.919  17.833  0.00  0.00    +0.000 C 
ATOM     19  C   UNL     1       8.592   9.791  18.850  0.00  0.00    +0.000 C 
BRANCH  19  20
ATOM     20  C   UNL     1       9.720  10.723  18.975  0.00  0.00    +0.000 A 
ATOM     21  C   UNL     1      10.157  11.177  20.227  0.00  0.00    +0.000 A 
ATOM     22  C   UNL     1      11.249  12.039  20.333  0.00  0.00    +0.000 A 
ATOM     23  C   UNL     1      11.929  12.442  19.187  0.00  0.00    +0.000 A 
ATOM     24  C   UNL     1      11.523  11.978  17.939  0.00  0.00    +0.000 A 
ATOM     25  C   UNL     1      10.426  11.116  17.832  0.00  0.00    +0.000 A 
ENDBRANCH  19  20
ENDBRANCH  17  18
ENDBRANCH   4  17
TORSDOF 5
ENDMDL
MODEL 4
REMARK VINA RESULT:      -9.4      0.562      1.737
REMARK  Name = 
REMARK  6 active torsions:
REMARK  status: ('A' for Active; 'I' for Inactive)
REMARK    1  A    between atoms: C_1  and  C_2
REMARK    2  A    between atoms: C_7  and  C_8
REMARK    3  A    between atoms: C_8  and  N_9
REMARK    4  A    between atoms: N_12  and  C_13
REMARK    5  A    between atoms: C_13  and  C_14
REMARK    6  A    between atoms: C_15  and  C_16
REMARK                            x       y       z     vdW  Elec       q    Type
REMARK                         _______ _______ _______ _____ _____    ______ ____
ROOT
ATOM      1  N   UNL     1       4.940   4.789  17.672  0.00  0.00    +0.000 N 
ATOM      2  C   UNL     1       5.131   5.885  16.723  0.00  0.00    +0.000 C 
ATOM      3  C   UNL     1       6.581   6.017  16.218  0.00  0.00    +0.000 C 
ATOM      4  N   UNL     1       7.530   6.729  17.091  0.00  0.00    +0.000 NA
ATOM      5  C   UNL     1       7.790   5.977  18.324  0.00  0.00    +0.000 C 
ATOM      6  C   UNL     1       6.597   5.771  19.245  0.00  0.00    +0.000 C 
ATOM      7  C   UNL     1       5.693   4.633  18.824  0.00  0.00    +0.000 C 
ATOM      8  O   UNL     1       5.620   3.626  19.533  0.00  0.00    +0.000 OA
ENDROOT
BRANCH   1   9
ATOM      9  C   UNL     1       3.828   3.866  17.427  0.00  0.00    +0.000 C 
BRANCH   9  16
ATOM     10  C   UNL     1       2.357   1.374  18.534  0.00  0.00    +0.000 C 
ATOM     11  C   UNL     1       2.091   2.774  19.016  0.00  0.00    +0.000 A 
ATOM     12  C   UNL     1       1.104   2.943  20.008  0.00  0.00    +0.000 A 
ATOM     13  C   UNL     1       0.795   4.203  20.518  0.00  0.00    +0.000 A 
ATOM     14  C   UNL     1       1.459   5.320  20.032  0.00  0.00    +0.000 A 
ATOM     15  C   UNL     1       2.421   5.175  19.034  0.00  0.00    +0.000 A 
ATOM     16  C   UNL     1       2.757   3.910  18.506  0.00  0.00    +0.000 A 
ENDBRANCH   9  16
ENDBRANCH   1   9
BRANCH   4  17
ATOM     17  C   UNL     1       7.180   8.133  17.353  0.00  0.00    +0.000 C 
BRANCH  17  18
ATOM     18  C   UNL     1       8.312   8.860  18.011  0.00  0.00    +0.000 C 
ATOM     19  C   UNL     1       8.404  10.198  18.107  0.00  0.00    +0.000 C 
BRANCH  19  20
ATOM     20  C   UNL     1       9.581  10.881  18.658  0.00  0.00    +0.000 A 
ATOM     21  C   UNL     1       9.711  11.120  20.033  0.00  0.00    +0.000 A 
ATOM     22  C   UNL     1      10.849  11.744  20.545  0.00  0.00    +0.000 A 
ATOM     23  C   UNL     1      11.880  12.118  19.689  0.00  0.00    +0.000 A 
ATOM     24  C   UNL     1      11.778  11.863  18.325  0.00  0.00    +0.000 A 
ATOM     25  C   UNL     1      10.635  11.241  17.809  0.00  0.00    +0.000 A 
ENDBRANCH  19  20
ENDBRANCH  17  18
ENDBRANCH   4  17
TORSDOF 5
ENDMDL
MODEL 5
REMARK VINA RESULT:      -9.1      1.463      2.191
REMARK  Name = 
REMARK  6 active torsions:
REMARK  status: ('A' for Active; 'I' for Inactive)
REMARK    1  A    between atoms: C_1  and  C_2
REMARK    2  A    between atoms: C_7  and  C_8
REMARK    3  A    between atoms: C_8  and  N_9
REMARK    4  A    between atoms: N_12  and  C_13
REMARK    5  A    between atoms: C_13  and  C_14
REMARK    6  A    between atoms: C_15  and  C_16
REMARK                            x       y       z     vdW  Elec       q    Type
REMARK                         _______ _______ _______ _____ _____    ______ ____
ROOT
ATOM      1  N   UNL     1       4.159   5.194  17.493  0.00  0.00    +0.000 N 
ATOM      2  C   UNL     1       4.559   6.562  17.816  0.00  0.00    +0.000 C 
ATOM      3  C   UNL     1       5.425   7.225  16.726  0.00  0.00    +0.000 C 
ATOM      4  N   UNL     1       6.862   6.902  16.729  0.00  0.00    +0.000 NA
ATOM      5  C   UNL     1       7.095   5.497  16.377  0.00  0.00    +0.000 C 
ATOM      6  C   UNL     1       6.531   4.464  17.341  0.00  0.00    +0.000 C 
ATOM      7  C   UNL     1       5.055   4.194  17.149  0.00  0.00    +0.000 C 
ATOM      8  O   UNL     1       4.691   3.091  16.737  0.00  0.00    +0.000 OA
ENDROOT
BRANCH   1   9
ATOM      9  C   UNL     1       2.741   4.850  17.635  0.00  0.00    +0.000 C 
BRANCH   9  16
ATOM     10  C   UNL     1       1.957   1.879  18.036  0.00  0.00    +0.000 C 
ATOM     11  C   UNL     1       2.052   2.870  19.164  0.00  0.00    +0.000 A 
ATOM     12  C   UNL     1       1.745   2.409  20.461  0.00  0.00    +0.000 A 
ATOM     13  C   UNL     1       1.811   3.255  21.566  0.00  0.00    +0.000 A 
ATOM     14  C   UNL     1       2.171   4.583  21.393  0.00  0.00    +0.000 A 
ATOM     15  C   UNL     1       2.456   5.062  20.115  0.00  0.00    +0.000 A 
ATOM     16  C   UNL     1       2.402   4.225  18.980  0.00  0.00    +0.000 A 
ENDBRANCH   9  16
ENDBRANCH   1   9
BRANCH   4  17
ATOM     17  C   UNL     1       7.573   7.299  17.953  0.00  0.00    +0.000 C 
BRANCH  17  18
ATOM     18  C   UNL     1       8.094   8.699  17.848  0.00  0.00    +0.000 C 
ATOM     19  C   UNL     1       8.889   9.286  18.760  0.00  0.00    +0.000 C 
BRANCH  19  20
ATOM     20  C   UNL     1       9.289  10.696  18.682  0.00  0.00    +0.000 A 
ATOM     21  C   UNL     1      10.389  11.185  19.401  0.00  0.00    +0.000 A 
ATOM     22  C   UNL     1      10.775  12.522  19.295  0.00  0.00    +0.000 A 
ATOM     23  C   UNL     1      10.076  13.381  18.452  0.00  0.00    +0.000 A 
ATOM     24  C   UNL     1       8.998  12.904  17.712  0.00  0.00    +0.000 A 
ATOM     25  C   UNL     1       8.607  11.564  17.820  0.00  0.00    +0.000 A 
ENDBRANCH  19  20
ENDBRANCH  17  18
ENDBRANCH   4  17
TORSDOF 5
ENDMDL
MODEL 6
REMARK VINA RESULT:      -9.0      1.446      1.865
REMARK  Name = 
REMARK  6 active torsions:
REMARK  status: ('A' for Active; 'I' for Inactive)
REMARK    1  A    between atoms: C_1  and  C_2
REMARK    2  A    between atoms: C_7  and  C_8
REMARK    3  A    between atoms: C_8  and  N_9
REMARK    4  A    between atoms: N_12  and  C_13
REMARK    5  A    between atoms: C_13  and  C_14
REMARK    6  A    between atoms: C_15  and  C_16
REMARK                            x       y       z     vdW  Elec       q    Type
REMARK                         _______ _______ _______ _____ _____    ______ ____
ROOT
ATOM      1  N   UNL     1       4.019   5.212  17.400  0.00  0.00    +0.000 N 
ATOM      2  C   UNL     1       4.464   6.577  17.676  0.00  0.00    +0.000 C 
ATOM      3  C   UNL     1       5.374   7.163  16.579  0.00  0.00    +0.000 C 
ATOM      4  N   UNL     1       6.797   6.788  16.622  0.00  0.00    +0.000 NA
ATOM      5  C   UNL     1       6.984   5.362  16.330  0.00  0.00    +0.000 C 
ATOM      6  C   UNL     1       6.365   4.391  17.324  0.00  0.00    +0.000 C 
ATOM      7  C   UNL     1       4.883   4.168  17.114  0.00  0.00    +0.000 C 
ATOM      8  O   UNL     1       4.485   3.062  16.739  0.00  0.00    +0.000 OA
ENDROOT
BRANCH   1   9
ATOM      9  C   UNL     1       2.587   4.927  17.529  0.00  0.00    +0.000 C 
BRANCH   9  16
ATOM     10  C   UNL     1       2.195   6.445  20.202  0.00  0.00    +0.000 C 
ATOM     11  C   UNL     1       2.033   4.957  20.064  0.00  0.00    +0.000 A 
ATOM     12  C   UNL     1       1.705   4.229  21.226  0.00  0.00    +0.000 A 
ATOM     13  C   UNL     1       1.530   2.846  21.191  0.00  0.00    +0.000 A 
ATOM     14  C   UNL     1       1.694   2.164  19.995  0.00  0.00    +0.000 A 
ATOM     15  C   UNL     1       2.041   2.865  18.840  0.00  0.00    +0.000 A 
ATOM     16  C   UNL     1       2.218   4.265  18.847  0.00  0.00    +0.000 A 
ENDBRANCH   9  16
ENDBRANCH   1   9
BRANCH   4  17
ATOM     17  C   UNL     1       7.501   7.207  17.843  0.00  0.00    +0.000 C 
BRANCH  17  18
ATOM     18  C   UNL     1       8.072   8.584  17.695  0.00  0.00    +0.000 C 
ATOM     19  C   UNL     1       8.720   9.248  18.668  0.00  0.00    +0.000 C 
BRANCH  19  20
ATOM     20  C   UNL     1       9.167  10.639  18.524  0.00  0.00    +0.000 A 
ATOM     21  C   UNL     1      10.385  11.075  19.066  0.00  0.00    +0.000 A 
ATOM     22  C   UNL     1      10.811  12.393  18.896  0.00  0.00    +0.000 A 
ATOM     23  C   UNL     1      10.032  13.286  18.166  0.00  0.00    +0.000 A 
ATOM     24  C   UNL     1       8.834  12.861  17.600  0.00  0.00    +0.000 A 
ATOM     25  C   UNL     1       8.404  11.540  17.772  0.00  0.00    +0.000 A 
ENDBRANCH  19  20
ENDBRANCH  17  18
ENDBRANCH   4  17
TORSDOF 5
ENDMDL
MODEL 7
REMARK VINA RESULT:      -8.9      1.505      2.164
REMARK  Name = 
REMARK  6 active torsions:
REMARK  status: ('A' for Active; 'I' for Inactive)
REMARK    1  A    between atoms: C_1  and  C_2
REMARK    2  A    between atoms: C_7  and  C_8
REMARK    3  A    between atoms: C_8  and  N_9
REMARK    4  A    between atoms: N_12  and  C_13
REMARK    5  A    between atoms: C_13  and  C_14
REMARK    6  A    between atoms: C_15  and  C_16
REMARK                            x       y       z     vdW  Elec       q    Type
REMARK                         _______ _______ _______ _____ _____    ______ ____
ROOT
ATOM      1  N   UNL     1       4.499   4.884  17.179  0.00  0.00    +0.000 N 
ATOM      2  C   UNL     1       4.715   6.203  17.773  0.00  0.00    +0.000 C 
ATOM      3  C   UNL     1       5.369   7.212  16.809  0.00  0.00    +0.000 C 
ATOM      4  N   UNL     1       6.832   7.141  16.661  0.00  0.00    +0.000 NA
ATOM      5  C   UNL     1       7.243   5.898  15.996  0.00  0.00    +0.000 C 
ATOM      6  C   UNL     1       6.931   4.609  16.740  0.00  0.00    +0.000 C 
ATOM      7  C   UNL     1       5.501   4.142  16.575  0.00  0.00    +0.000 C 
ATOM      8  O   UNL     1       5.273   3.103  15.951  0.00  0.00    +0.000 OA
ENDROOT
BRANCH   1   9
ATOM      9  C   UNL     1       3.168   4.286  17.322  0.00  0.00    +0.000 C 
BRANCH   9  16
ATOM     10  C   UNL     1       3.671   1.594  18.770  0.00  0.00    +0.000 C 
ATOM     11  C   UNL     1       3.018   2.778  19.429  0.00  0.00    +0.000 A 
ATOM     12  C   UNL     1       2.603   2.630  20.767  0.00  0.00    +0.000 A 
ATOM     13  C   UNL     1       1.994   3.677  21.458  0.00  0.00    +0.000 A 
ATOM     14  C   UNL     1       1.776   4.887  20.817  0.00  0.00    +0.000 A 
ATOM     15  C   UNL     1       2.160   5.044  19.486  0.00  0.00    +0.000 A 
ATOM     16  C   UNL     1       2.783   4.003  18.765  0.00  0.00    +0.000 A 
ENDBRANCH   9  16
ENDBRANCH   1   9
BRANCH   4  17
ATOM     17  C   UNL     1       7.583   7.387  17.901  0.00  0.00    +0.000 C 
BRANCH  17  18
ATOM     18  C   UNL     1       8.252   8.727  17.873  0.00  0.00    +0.000 C 
ATOM     19  C   UNL     1       8.811   9.321  18.942  0.00  0.00    +0.000 C 
BRANCH  19  20
ATOM     20  C   UNL     1       9.357  10.684  18.904  0.00  0.00    +0.000 A 
ATOM     21  C   UNL     1       8.977  11.596  17.910  0.00  0.00    +0.000 A 
ATOM     22  C   UNL     1       9.482  12.897  17.903  0.00  0.00    +0.000 A 
ATOM     23  C   UNL     1      10.359  13.306  18.903  0.00  0.00    +0.000 A 
ATOM     24  C   UNL     1      10.725  12.420  19.912  0.00  0.00    +0.000 A 
ATOM     25  C   UNL     1      10.222  11.113  19.918  0.00  0.00    +0.000 A 
ENDBRANCH  19  20
ENDBRANCH  17  18
ENDBRANCH   4  17
TORSDOF 5
ENDMDL
MODEL 8
REMARK VINA RESULT:      -8.9      1.547      2.060
REMARK  Name = 
REMARK  6 active torsions:
REMARK  status: ('A' for Active; 'I' for Inactive)
REMARK    1  A    between atoms: C_1  and  C_2
REMARK    2  A    between atoms: C_7  and  C_8
REMARK    3  A    between atoms: C_8  and  N_9
REMARK    4  A    between atoms: N_12  and  C_13
REMARK    5  A    between atoms: C_13  and  C_14
REMARK    6  A    between atoms: C_15  and  C_16
REMARK                            x       y       z     vdW  Elec       q    Type
REMARK                         _______ _______ _______ _____ _____    ______ ____
ROOT
ATOM      1  N   UNL     1       4.870   3.927  17.556  0.00  0.00    +0.000 N 
ATOM      2  C   UNL     1       5.530   4.778  18.546  0.00  0.00    +0.000 C 
ATOM      3  C   UNL     1       5.176   6.271  18.410  0.00  0.00    +0.000 C 
ATOM      4  N   UNL     1       5.911   7.041  17.393  0.00  0.00    +0.000 NA
ATOM      5  C   UNL     1       5.563   6.604  16.035  0.00  0.00    +0.000 C 
ATOM      6  C   UNL     1       5.929   5.171  15.682  0.00  0.00    +0.000 C 
ATOM      7  C   UNL     1       4.939   4.146  16.190  0.00  0.00    +0.000 C 
ATOM      8  O   UNL     1       4.258   3.511  15.382  0.00  0.00    +0.000 OA
ENDROOT
BRANCH   1   9
ATOM      9  C   UNL     1       4.181   2.729  18.044  0.00  0.00    +0.000 C 
BRANCH   9  16
ATOM     10  C   UNL     1       1.540   4.289  17.604  0.00  0.00    +0.000 C 
ATOM     11  C   UNL     1       1.955   3.724  18.935  0.00  0.00    +0.000 A 
ATOM     12  C   UNL     1       1.096   3.944  20.031  0.00  0.00    +0.000 A 
ATOM     13  C   UNL     1       1.399   3.453  21.300  0.00  0.00    +0.000 A 
ATOM     14  C   UNL     1       2.574   2.746  21.499  0.00  0.00    +0.000 A 
ATOM     15  C   UNL     1       3.448   2.539  20.432  0.00  0.00    +0.000 A 
ATOM     16  C   UNL     1       3.163   3.020  19.136  0.00  0.00    +0.000 A 
ENDBRANCH   9  16
ENDBRANCH   1   9
BRANCH   4  17
ATOM     17  C   UNL     1       7.364   7.102  17.607  0.00  0.00    +0.000 C 
BRANCH  17  18
ATOM     18  C   UNL     1       7.825   8.513  17.805  0.00  0.00    +0.000 C 
ATOM     19  C   UNL     1       8.764   8.890  18.691  0.00  0.00    +0.000 C 
BRANCH  19  20
ATOM     20  C   UNL     1       9.110  10.295  18.938  0.00  0.00    +0.000 A 
ATOM     21  C   UNL     1       8.972  11.269  17.939  0.00  0.00    +0.000 A 
ATOM     22  C   UNL     1       9.278  12.606  18.198  0.00  0.00    +0.000 A 
ATOM     23  C   UNL     1       9.707  12.987  19.465  0.00  0.00    +0.000 A 
ATOM     24  C   UNL     1       9.823  12.036  20.475  0.00  0.00    +0.000 A 
ATOM     25  C   UNL     1       9.520  10.694  20.216  0.00  0.00    +0.000 A 
ENDBRANCH  19  20
ENDBRANCH  17  18
ENDBRANCH   4  17
TORSDOF 5
ENDMDL
MODEL 9
REMARK VINA RESULT:      -8.9      1.486      2.124
REMARK  Name = 
REMARK  6 active torsions:
REMARK  status: ('A' for Active; 'I' for Inactive)
REMARK    1  A    between atoms: C_1  and  C_2
REMARK    2  A    between atoms: C_7  and  C_8
REMARK    3  A    between atoms: C_8  and  N_9
REMARK    4  A    between atoms: N_12  and  C_13
REMARK    5  A    between atoms: C_13  and  C_14
REMARK    6  A    between atoms: C_15  and  C_16
REMARK                            x       y       z     vdW  Elec       q    Type
REMARK                         _______ _______ _______ _____ _____    ______ ____
ROOT
ATOM      1  N   UNL     1       4.918   3.803  17.510  0.00  0.00    +0.000 N 
ATOM      2  C   UNL     1       5.500   4.541  18.630  0.00  0.00    +0.000 C 
ATOM      3  C   UNL     1       5.368   6.070  18.496  0.00  0.00    +0.000 C 
ATOM      4  N   UNL     1       6.360   6.754  17.649  0.00  0.00    +0.000 NA
ATOM      5  C   UNL     1       6.199   6.389  16.236  0.00  0.00    +0.000 C 
ATOM      6  C   UNL     1       6.435   4.927  15.893  0.00  0.00    +0.000 C 
ATOM      7  C   UNL     1       5.249   4.034  16.185  0.00  0.00    +0.000 C 
ATOM      8  O   UNL     1       4.643   3.509  15.249  0.00  0.00    +0.000 OA
ENDROOT
BRANCH   1   9
ATOM      9  C   UNL     1       4.007   2.698  17.827  0.00  0.00    +0.000 C 
BRANCH   9  16
ATOM     10  C   UNL     1       1.453   4.441  17.619  0.00  0.00    +0.000 C 
ATOM     11  C   UNL     1       1.907   3.786  18.895  0.00  0.00    +0.000 A 
ATOM     12  C   UNL     1       1.128   4.004  20.049  0.00  0.00    +0.000 A 
ATOM     13  C   UNL     1       1.470   3.433  21.274  0.00  0.00    +0.000 A 
ATOM     14  C   UNL     1       2.606   2.644  21.369  0.00  0.00    +0.000 A 
ATOM     15  C   UNL     1       3.402   2.436  20.243  0.00  0.00    +0.000 A 
ATOM     16  C   UNL     1       3.075   2.998  18.990  0.00  0.00    +0.000 A 
ENDBRANCH   9  16
ENDBRANCH   1   9
BRANCH   4  17
ATOM     17  C   UNL     1       7.750   6.617  18.108  0.00  0.00    +0.000 C 
BRANCH  17  18
ATOM     18  C   UNL     1       8.274   7.914  18.644  0.00  0.00    +0.000 C 
ATOM     19  C   UNL     1       8.231   9.084  17.983  0.00  0.00    +0.000 C 
BRANCH  19  20
ATOM     20  C   UNL     1       8.855  10.312  18.491  0.00  0.00    +0.000 A 
ATOM     21  C   UNL     1       9.564  10.325  19.701  0.00  0.00    +0.000 A 
ATOM     22  C   UNL     1      10.176  11.493  20.156  0.00  0.00    +0.000 A 
ATOM     23  C   UNL     1      10.104  12.657  19.398  0.00  0.00    +0.000 A 
ATOM     24  C   UNL     1       9.427  12.653  18.181  0.00  0.00    +0.000 A 
ATOM     25  C   UNL     1       8.809  11.483  17.724  0.00  0.00    +0.000 A 
ENDBRANCH  19  20
ENDBRANCH  17  18
ENDBRANCH   4  17
TORSDOF 5
ENDMDL
