MODEL 1
REMARK VINA RESULT:      -7.9      0.000      0.000
REMARK  Name = 
REMARK  13 active torsions:
REMARK  status: ('A' for Active; 'I' for Inactive)
REMARK    1  A    between atoms: N_2  and  C_4
REMARK    2  A    between atoms: C_7  and  C_8
REMARK    3  A    between atoms: C_8  and  N_9
REMARK    4  A    between atoms: N_9  and  C_10
REMARK    5  A    between atoms: C_10  and  C_11
REMARK    6  A    between atoms: C_11  and  C_12
REMARK    7  A    between atoms: C_12  and  C_13
REMARK    8  A    between atoms: C_13  and  C_14
REMARK    9  A    between atoms: C_14  and  C_15
REMARK   10  A    between atoms: C_15  and  N_16
REMARK   11  A    between atoms: N_16  and  C_17
REMARK   12  A    between atoms: C_17  and  C_18
REMARK   13  A    between atoms: C_21  and  N_22
REMARK                            x       y       z     vdW  Elec       q    Type
REMARK                         _______ _______ _______ _____ _____    ______ ____
ROOT
ATOM      1  C   UNL     1       0.307   8.686  21.627  0.00  0.00    +0.000 C 
ENDROOT
BRANCH   1   2
ATOM      2  C   UNL     1       1.034   9.817  20.903  0.00  0.00    +0.000 C 
BRANCH   2   3
ATOM      3  C   UNL     1       1.278   9.470  19.434  0.00  0.00    +0.000 C 
BRANCH   3   4
ATOM      4  N   UNL     1       2.116   8.277  19.363  0.00  0.00    +0.000 NA
ATOM      5  H   UNL     1       3.099   8.534  19.451  0.00  0.00    +0.000 HD
BRANCH   4   6
ATOM      6  C   UNL     1       1.918   7.556  18.108  0.00  0.00    +0.000 C 
BRANCH   6  10
ATOM      7  C   UNL     1       5.389   5.165  17.279  0.00  0.00    +0.000 A 
ATOM      8  C   UNL     1       5.485   6.561  17.280  0.00  0.00    +0.000 A 
ATOM      9  C   UNL     1       4.348   7.310  17.542  0.00  0.00    +0.000 A 
ATOM     10  C   UNL     1       3.119   6.677  17.804  0.00  0.00    +0.000 A 
ATOM     11  C   UNL     1       3.024   5.250  17.792  0.00  0.00    +0.000 A 
ATOM     12  C   UNL     1       1.809   4.575  18.047  0.00  0.00    +0.000 A 
ATOM     13  C   UNL     1       1.725   3.185  18.070  0.00  0.00    +0.000 A 
ATOM     14  C   UNL     1       2.854   2.423  17.828  0.00  0.00    +0.000 A 
ATOM     15  C   UNL     1       4.066   3.053  17.563  0.00  0.00    +0.000 A 
ATOM     16  C   UNL     1       4.181   4.469  17.534  0.00  0.00    +0.000 A 
BRANCH   7  18
ATOM     17  O   UNL     1       7.412   4.333  17.966  0.00  0.00    +0.000 OA
ATOM     18  N   UNL     1       6.615   4.433  17.023  0.00  0.00    +0.000 N 
ATOM     19  O   UNL     1       6.788   3.990  15.881  0.00  0.00    +0.000 OA
ENDBRANCH   7  18
ENDBRANCH   6  10
ENDBRANCH   4   6
ENDBRANCH   3   4
ENDBRANCH   2   3
ENDBRANCH   1   2
BRANCH   1  20
ATOM     20  C   UNL     1      -0.688   9.242  22.647  0.00  0.00    +0.000 C 
BRANCH  20  21
ATOM     21  C   UNL     1      -0.574  10.761  22.742  0.00  0.00    +0.000 C 
BRANCH  21  22
ATOM     22  C   UNL     1      -1.943  11.421  22.905  0.00  0.00    +0.000 C 
BRANCH  22  23
ATOM     23  N   UNL     1      -1.897  12.738  22.276  0.00  0.00    +0.000 NA
ATOM     24  H   UNL     1      -1.230  13.334  22.763  0.00  0.00    +0.000 HD
BRANCH  23  25
ATOM     25  C   UNL     1      -1.518  12.656  20.867  0.00  0.00    +0.000 C 
BRANCH  25  26
ATOM     26  C   UNL     1      -2.744  12.444  19.990  0.00  0.00    +0.000 A 
ATOM     27  C   UNL     1      -3.923  13.094  20.411  0.00  0.00    +0.000 A 
ATOM     28  C   UNL     1      -5.120  12.912  19.741  0.00  0.00    +0.000 A 
ATOM     29  C   UNL     1      -5.148  12.050  18.644  0.00  0.00    +0.000 A 
ATOM     30  C   UNL     1      -3.996  11.383  18.152  0.00  0.00    +0.000 A 
ATOM     31  C   UNL     1      -4.004  10.523  17.020  0.00  0.00    +0.000 A 
ATOM     32  C   UNL     1      -2.849   9.898  16.556  0.00  0.00    +0.000 A 
ATOM     33  C   UNL     1      -1.647  10.130  17.197  0.00  0.00    +0.000 A 
ATOM     34  C   UNL     1      -1.606  10.969  18.313  0.00  0.00    +0.000 A 
ATOM     35  C   UNL     1      -2.762  11.603  18.832  0.00  0.00    +0.000 A 
BRANCH  29  36
ATOM     36  N   UNL     1      -6.448  11.854  18.022  0.00  0.00    +0.000 N 
ATOM     37  O   UNL     1      -6.783  12.665  17.149  0.00  0.00    +0.000 OA
ATOM     38  O   UNL     1      -7.144  10.916  18.436  0.00  0.00    +0.000 OA
ENDBRANCH  29  36
ENDBRANCH  25  26
ENDBRANCH  23  25
ENDBRANCH  22  23
ENDBRANCH  21  22
ENDBRANCH  20  21
ENDBRANCH   1  20
TORSDOF 13
ENDMDL
MODEL 2
REMARK VINA RESULT:      -7.7      0.942      1.177
REMARK  Name = 
REMARK  13 active torsions:
REMARK  status: ('A' for Active; 'I' for Inactive)
REMARK    1  A    between atoms: N_2  and  C_4
REMARK    2  A    between atoms: C_7  and  C_8
REMARK    3  A    between atoms: C_8  and  N_9
REMARK    4  A    between atoms: N_9  and  C_10
REMARK    5  A    between atoms: C_10  and  C_11
REMARK    6  A    between atoms: C_11  and  C_12
REMARK    7  A    between atoms: C_12  and  C_13
REMARK    8  A    between atoms: C_13  and  C_14
REMARK    9  A    between atoms: C_14  and  C_15
REMARK   10  A    between atoms: C_15  and  N_16
REMARK   11  A    between atoms: N_16  and  C_17
REMARK   12  A    between atoms: C_17  and  C_18
REMARK   13  A    between atoms: C_21  and  N_22
REMARK                            x       y       z     vdW  Elec       q    Type
REMARK                         _______ _______ _______ _____ _____    ______ ____
ROOT
ATOM      1  C   UNL     1      -0.621   8.633  21.963  0.00  0.00    +0.000 C 
ENDROOT
BRANCH   1   2
ATOM      2  C   UNL     1       0.530   7.784  21.430  0.00  0.00    +0.000 C 
BRANCH   2   3
ATOM      3  C   UNL     1       1.406   8.580  20.463  0.00  0.00    +0.000 C 
BRANCH   3   4
ATOM      4  N   UNL     1       2.394   7.683  19.871  0.00  0.00    +0.000 NA
ATOM      5  H   UNL     1       3.334   8.039  20.037  0.00  0.00    +0.000 HD
BRANCH   4   6
ATOM      6  C   UNL     1       2.184   7.527  18.434  0.00  0.00    +0.000 C 
BRANCH   6  10
ATOM      7  C   UNL     1       5.309   5.112  16.745  0.00  0.00    +0.000 A 
ATOM      8  C   UNL     1       5.431   6.506  16.755  0.00  0.00    +0.000 A 
ATOM      9  C   UNL     1       4.404   7.264  17.298  0.00  0.00    +0.000 A 
ATOM     10  C   UNL     1       3.261   6.641  17.832  0.00  0.00    +0.000 A 
ATOM     11  C   UNL     1       3.137   5.216  17.810  0.00  0.00    +0.000 A 
ATOM     12  C   UNL     1       2.004   4.552  18.332  0.00  0.00    +0.000 A 
ATOM     13  C   UNL     1       1.901   3.162  18.343  0.00  0.00    +0.000 A 
ATOM     14  C   UNL     1       2.924   2.392  17.821  0.00  0.00    +0.000 A 
ATOM     15  C   UNL     1       4.050   3.012  17.289  0.00  0.00    +0.000 A 
ATOM     16  C   UNL     1       4.183   4.427  17.265  0.00  0.00    +0.000 A 
BRANCH   7  18
ATOM     17  O   UNL     1       6.225   3.787  15.114  0.00  0.00    +0.000 OA
ATOM     18  N   UNL     1       6.424   4.371  16.188  0.00  0.00    +0.000 N 
ATOM     19  O   UNL     1       7.478   4.351  16.836  0.00  0.00    +0.000 OA
ENDBRANCH   7  18
ENDBRANCH   6  10
ENDBRANCH   4   6
ENDBRANCH   3   4
ENDBRANCH   2   3
ENDBRANCH   1   2
BRANCH   1  20
ATOM     20  C   UNL     1      -0.102   9.937  22.570  0.00  0.00    +0.000 C 
BRANCH  20  21
ATOM     21  C   UNL     1      -1.251  10.764  23.142  0.00  0.00    +0.000 C 
BRANCH  21  22
ATOM     22  C   UNL     1      -1.037  12.261  22.918  0.00  0.00    +0.000 C 
BRANCH  22  23
ATOM     23  N   UNL     1       0.035  12.431  21.943  0.00  0.00    +0.000 NA
ATOM     24  H   UNL     1       0.268  11.534  21.518  0.00  0.00    +0.000 HD
BRANCH  23  25
ATOM     25  C   UNL     1      -0.332  13.372  20.887  0.00  0.00    +0.000 C 
BRANCH  25  26
ATOM     26  C   UNL     1      -1.683  13.008  20.287  0.00  0.00    +0.000 A 
ATOM     27  C   UNL     1      -2.791  13.731  20.779  0.00  0.00    +0.000 A 
ATOM     28  C   UNL     1      -4.079  13.435  20.369  0.00  0.00    +0.000 A 
ATOM     29  C   UNL     1      -4.270  12.384  19.471  0.00  0.00    +0.000 A 
ATOM     30  C   UNL     1      -3.201  11.632  18.919  0.00  0.00    +0.000 A 
ATOM     31  C   UNL     1      -3.378  10.577  17.983  0.00  0.00    +0.000 A 
ATOM     32  C   UNL     1      -2.303   9.870  17.450  0.00  0.00    +0.000 A 
ATOM     33  C   UNL     1      -1.016  10.210  17.821  0.00  0.00    +0.000 A 
ATOM     34  C   UNL     1      -0.809  11.242  18.740  0.00  0.00    +0.000 A 
ATOM     35  C   UNL     1      -1.876  11.967  19.324  0.00  0.00    +0.000 A 
BRANCH  29  36
ATOM     36  N   UNL     1      -5.651  12.084  19.128  0.00  0.00    +0.000 N 
ATOM     37  O   UNL     1      -6.137  12.690  18.164  0.00  0.00    +0.000 OA
ATOM     38  O   UNL     1      -6.255  11.275  19.846  0.00  0.00    +0.000 OA
ENDBRANCH  29  36
ENDBRANCH  25  26
ENDBRANCH  23  25
ENDBRANCH  22  23
ENDBRANCH  21  22
ENDBRANCH  20  21
ENDBRANCH   1  20
TORSDOF 13
ENDMDL
MODEL 3
REMARK VINA RESULT:      -7.7      2.118      3.121
REMARK  Name = 
REMARK  13 active torsions:
REMARK  status: ('A' for Active; 'I' for Inactive)
REMARK    1  A    between atoms: N_2  and  C_4
REMARK    2  A    between atoms: C_7  and  C_8
REMARK    3  A    between atoms: C_8  and  N_9
REMARK    4  A    between atoms: N_9  and  C_10
REMARK    5  A    between atoms: C_10  and  C_11
REMARK    6  A    between atoms: C_11  and  C_12
REMARK    7  A    between atoms: C_12  and  C_13
REMARK    8  A    between atoms: C_13  and  C_14
REMARK    9  A    between atoms: C_14  and  C_15
REMARK   10  A    between atoms: C_15  and  N_16
REMARK   11  A    between atoms: N_16  and  C_17
REMARK   12  A    between atoms: C_17  and  C_18
REMARK   13  A    between atoms: C_21  and  N_22
REMARK                            x       y       z     vdW  Elec       q    Type
REMARK                         _______ _______ _______ _____ _____    ______ ____
ROOT
ATOM      1  C   UNL     1       0.145   9.341  20.220  0.00  0.00    +0.000 C 
ENDROOT
BRANCH   1   2
ATOM      2  C   UNL     1       0.945  10.449  19.538  0.00  0.00    +0.000 C 
BRANCH   2   3
ATOM      3  C   UNL     1       1.625   9.940  18.267  0.00  0.00    +0.000 C 
BRANCH   3   4
ATOM      4  N   UNL     1       1.843   8.502  18.390  0.00  0.00    +0.000 NA
ATOM      5  H   UNL     1       1.893   8.238  19.373  0.00  0.00    +0.000 HD
BRANCH   4   6
ATOM      6  C   UNL     1       3.071   8.086  17.717  0.00  0.00    +0.000 C 
BRANCH   6  10
ATOM      7  C   UNL     1       3.845   3.969  18.664  0.00  0.00    +0.000 A 
ATOM      8  C   UNL     1       2.988   4.723  19.473  0.00  0.00    +0.000 A 
ATOM      9  C   UNL     1       2.761   6.052  19.150  0.00  0.00    +0.000 A 
ATOM     10  C   UNL     1       3.382   6.632  18.028  0.00  0.00    +0.000 A 
ATOM     11  C   UNL     1       4.265   5.860  17.212  0.00  0.00    +0.000 A 
ATOM     12  C   UNL     1       4.911   6.405  16.078  0.00  0.00    +0.000 A 
ATOM     13  C   UNL     1       5.744   5.641  15.263  0.00  0.00    +0.000 A 
ATOM     14  C   UNL     1       5.966   4.309  15.560  0.00  0.00    +0.000 A 
ATOM     15  C   UNL     1       5.355   3.741  16.674  0.00  0.00    +0.000 A 
ATOM     16  C   UNL     1       4.501   4.495  17.523  0.00  0.00    +0.000 A 
BRANCH   7  18
ATOM     17  O   UNL     1       3.339   1.745  18.428  0.00  0.00    +0.000 OA
ATOM     18  N   UNL     1       4.025   2.578  19.035  0.00  0.00    +0.000 N 
ATOM     19  O   UNL     1       4.825   2.329  19.945  0.00  0.00    +0.000 OA
ENDBRANCH   7  18
ENDBRANCH   6  10
ENDBRANCH   4   6
ENDBRANCH   3   4
ENDBRANCH   2   3
ENDBRANCH   1   2
BRANCH   1  20
ATOM     20  C   UNL     1      -0.316   9.778  21.611  0.00  0.00    +0.000 C 
BRANCH  20  21
ATOM     21  C   UNL     1      -0.044  11.265  21.830  0.00  0.00    +0.000 C 
BRANCH  21  22
ATOM     22  C   UNL     1      -1.296  12.004  22.302  0.00  0.00    +0.000 C 
BRANCH  22  23
ATOM     23  N   UNL     1      -1.389  13.265  21.572  0.00  0.00    +0.000 NA
ATOM     24  H   UNL     1      -0.723  13.272  20.801  0.00  0.00    +0.000 HD
BRANCH  23  25
ATOM     25  C   UNL     1      -2.731  13.488  21.038  0.00  0.00    +0.000 C 
BRANCH  25  26
ATOM     26  C   UNL     1      -2.959  12.651  19.787  0.00  0.00    +0.000 A 
ATOM     27  C   UNL     1      -1.830  12.450  18.965  0.00  0.00    +0.000 A 
ATOM     28  C   UNL     1      -1.930  11.775  17.762  0.00  0.00    +0.000 A 
ATOM     29  C   UNL     1      -3.183  11.312  17.357  0.00  0.00    +0.000 A 
ATOM     30  C   UNL     1      -4.355  11.458  18.144  0.00  0.00    +0.000 A 
ATOM     31  C   UNL     1      -5.632  10.969  17.757  0.00  0.00    +0.000 A 
ATOM     32  C   UNL     1      -6.758  11.117  18.563  0.00  0.00    +0.000 A 
ATOM     33  C   UNL     1      -6.638  11.742  19.789  0.00  0.00    +0.000 A 
ATOM     34  C   UNL     1      -5.397  12.236  20.198  0.00  0.00    +0.000 A 
ATOM     35  C   UNL     1      -4.233  12.128  19.397  0.00  0.00    +0.000 A 
BRANCH  29  36
ATOM     36  N   UNL     1      -3.232  10.666  16.055  0.00  0.00    +0.000 N 
ATOM     37  O   UNL     1      -2.991   9.452  16.019  0.00  0.00    +0.000 OA
ATOM     38  O   UNL     1      -3.472  11.380  15.071  0.00  0.00    +0.000 OA
ENDBRANCH  29  36
ENDBRANCH  25  26
ENDBRANCH  23  25
ENDBRANCH  22  23
ENDBRANCH  21  22
ENDBRANCH  20  21
ENDBRANCH   1  20
TORSDOF 13
ENDMDL
MODEL 4
REMARK VINA RESULT:      -7.7      3.430     10.540
REMARK  Name = 
REMARK  13 active torsions:
REMARK  status: ('A' for Active; 'I' for Inactive)
REMARK    1  A    between atoms: N_2  and  C_4
REMARK    2  A    between atoms: C_7  and  C_8
REMARK    3  A    between atoms: C_8  and  N_9
REMARK    4  A    between atoms: N_9  and  C_10
REMARK    5  A    between atoms: C_10  and  C_11
REMARK    6  A    between atoms: C_11  and  C_12
REMARK    7  A    between atoms: C_12  and  C_13
REMARK    8  A    between atoms: C_13  and  C_14
REMARK    9  A    between atoms: C_14  and  C_15
REMARK   10  A    between atoms: C_15  and  N_16
REMARK   11  A    between atoms: N_16  and  C_17
REMARK   12  A    between atoms: C_17  and  C_18
REMARK   13  A    between atoms: C_21  and  N_22
REMARK                            x       y       z     vdW  Elec       q    Type
REMARK                         _______ _______ _______ _____ _____    ______ ____
ROOT
ATOM      1  C   UNL     1       1.800   4.903  20.994  0.00  0.00    +0.000 C 
ENDROOT
BRANCH   1   2
ATOM      2  C   UNL     1       1.396   6.347  20.706  0.00  0.00    +0.000 C 
BRANCH   2   3
ATOM      3  C   UNL     1       2.338   6.995  19.692  0.00  0.00    +0.000 C 
BRANCH   3   4
ATOM      4  N   UNL     1       1.825   8.318  19.347  0.00  0.00    +0.000 NA
ATOM      5  H   UNL     1       2.598   8.955  19.158  0.00  0.00    +0.000 HD
BRANCH   4   6
ATOM      6  C   UNL     1       0.996   8.868  20.416  0.00  0.00    +0.000 C 
BRANCH   6  10
ATOM      7  C   UNL     1       0.453  13.074  19.735  0.00  0.00    +0.000 A 
ATOM      8  C   UNL     1       1.225  12.316  18.848  0.00  0.00    +0.000 A 
ATOM      9  C   UNL     1       1.393  10.962  19.095  0.00  0.00    +0.000 A 
ATOM     10  C   UNL     1       0.794  10.361  20.217  0.00  0.00    +0.000 A 
ATOM     11  C   UNL     1       0.014  11.142  21.126  0.00  0.00    +0.000 A 
ATOM     12  C   UNL     1      -0.602  10.577  22.266  0.00  0.00    +0.000 A 
ATOM     13  C   UNL     1      -1.391  11.332  23.132  0.00  0.00    +0.000 A 
ATOM     14  C   UNL     1      -1.582  12.681  22.889  0.00  0.00    +0.000 A 
ATOM     15  C   UNL     1      -0.983  13.272  21.782  0.00  0.00    +0.000 A 
ATOM     16  C   UNL     1      -0.174  12.527  20.882  0.00  0.00    +0.000 A 
BRANCH   7  18
ATOM     17  O   UNL     1      -0.853  14.945  19.502  0.00  0.00    +0.000 OA
ATOM     18  N   UNL     1       0.291  14.479  19.413  0.00  0.00    +0.000 N 
ATOM     19  O   UNL     1       1.297  15.100  19.046  0.00  0.00    +0.000 OA
ENDBRANCH   7  18
ENDBRANCH   6  10
ENDBRANCH   4   6
ENDBRANCH   3   4
ENDBRANCH   2   3
ENDBRANCH   1   2
BRANCH   1  20
ATOM     20  C   UNL     1       0.827   3.923  20.339  0.00  0.00    +0.000 C 
BRANCH  20  21
ATOM     21  C   UNL     1       1.529   2.610  19.997  0.00  0.00    +0.000 C 
BRANCH  21  22
ATOM     22  C   UNL     1       1.194   2.143  18.581  0.00  0.00    +0.000 C 
BRANCH  22  23
ATOM     23  N   UNL     1       2.420   2.154  17.790  0.00  0.00    +0.000 NA
ATOM     24  H   UNL     1       2.371   1.446  17.058  0.00  0.00    +0.000 HD
BRANCH  23  25
ATOM     25  C   UNL     1       2.659   3.457  17.172  0.00  0.00    +0.000 C 
BRANCH  25  26
ATOM     26  C   UNL     1       4.048   3.973  17.522  0.00  0.00    +0.000 A 
ATOM     27  C   UNL     1       4.275   4.255  18.886  0.00  0.00    +0.000 A 
ATOM     28  C   UNL     1       5.471   4.804  19.314  0.00  0.00    +0.000 A 
ATOM     29  C   UNL     1       6.450   5.099  18.364  0.00  0.00    +0.000 A 
ATOM     30  C   UNL     1       6.298   4.820  16.981  0.00  0.00    +0.000 A 
ATOM     31  C   UNL     1       7.296   5.090  16.006  0.00  0.00    +0.000 A 
ATOM     32  C   UNL     1       7.117   4.787  14.659  0.00  0.00    +0.000 A 
ATOM     33  C   UNL     1       5.943   4.187  14.248  0.00  0.00    +0.000 A 
ATOM     34  C   UNL     1       4.942   3.909  15.181  0.00  0.00    +0.000 A 
ATOM     35  C   UNL     1       5.073   4.225  16.556  0.00  0.00    +0.000 A 
BRANCH  29  36
ATOM     36  N   UNL     1       7.657   5.731  18.871  0.00  0.00    +0.000 N 
ATOM     37  O   UNL     1       7.902   6.878  18.474  0.00  0.00    +0.000 OA
ATOM     38  O   UNL     1       8.376   5.066  19.631  0.00  0.00    +0.000 OA
ENDBRANCH  29  36
ENDBRANCH  25  26
ENDBRANCH  23  25
ENDBRANCH  22  23
ENDBRANCH  21  22
ENDBRANCH  20  21
ENDBRANCH   1  20
TORSDOF 13
ENDMDL
MODEL 5
REMARK VINA RESULT:      -7.6      2.397     10.350
REMARK  Name = 
REMARK  13 active torsions:
REMARK  status: ('A' for Active; 'I' for Inactive)
REMARK    1  A    between atoms: N_2  and  C_4
REMARK    2  A    between atoms: C_7  and  C_8
REMARK    3  A    between atoms: C_8  and  N_9
REMARK    4  A    between atoms: N_9  and  C_10
REMARK    5  A    between atoms: C_10  and  C_11
REMARK    6  A    between atoms: C_11  and  C_12
REMARK    7  A    between atoms: C_12  and  C_13
REMARK    8  A    between atoms: C_13  and  C_14
REMARK    9  A    between atoms: C_14  and  C_15
REMARK   10  A    between atoms: C_15  and  N_16
REMARK   11  A    between atoms: N_16  and  C_17
REMARK   12  A    between atoms: C_17  and  C_18
REMARK   13  A    between atoms: C_21  and  N_22
REMARK                            x       y       z     vdW  Elec       q    Type
REMARK                         _______ _______ _______ _____ _____    ______ ____
ROOT
ATOM      1  C   UNL     1       1.930   6.388  20.155  0.00  0.00    +0.000 C 
ENDROOT
BRANCH   1   2
ATOM      2  C   UNL     1       2.222   6.172  18.672  0.00  0.00    +0.000 C 
BRANCH   2   3
ATOM      3  C   UNL     1       2.712   7.460  18.009  0.00  0.00    +0.000 C 
BRANCH   3   4
ATOM      4  N   UNL     1       2.066   8.600  18.652  0.00  0.00    +0.000 NA
ATOM      5  H   UNL     1       1.594   8.299  19.505  0.00  0.00    +0.000 HD
BRANCH   4   6
ATOM      6  C   UNL     1       1.098   9.239  17.765  0.00  0.00    +0.000 C 
BRANCH   6  10
ATOM      7  C   UNL     1      -1.380  11.909  20.040  0.00  0.00    +0.000 A 
ATOM      8  C   UNL     1      -0.064  11.661  20.445  0.00  0.00    +0.000 A 
ATOM      9  C   UNL     1       0.712  10.788  19.698  0.00  0.00    +0.000 A 
ATOM     10  C   UNL     1       0.186  10.165  18.552  0.00  0.00    +0.000 A 
ATOM     11  C   UNL     1      -1.163  10.414  18.148  0.00  0.00    +0.000 A 
ATOM     12  C   UNL     1      -1.730   9.806  17.005  0.00  0.00    +0.000 A 
ATOM     13  C   UNL     1      -3.033  10.077  16.593  0.00  0.00    +0.000 A 
ATOM     14  C   UNL     1      -3.815  10.959  17.316  0.00  0.00    +0.000 A 
ATOM     15  C   UNL     1      -3.293  11.569  18.453  0.00  0.00    +0.000 A 
ATOM     16  C   UNL     1      -1.968  11.312  18.897  0.00  0.00    +0.000 A 
BRANCH   7  18
ATOM     17  O   UNL     1      -2.044  14.047  20.540  0.00  0.00    +0.000 OA
ATOM     18  N   UNL     1      -2.137  12.850  20.844  0.00  0.00    +0.000 N 
ATOM     19  O   UNL     1      -2.795  12.394  21.788  0.00  0.00    +0.000 OA
ENDBRANCH   7  18
ENDBRANCH   6  10
ENDBRANCH   4   6
ENDBRANCH   3   4
ENDBRANCH   2   3
ENDBRANCH   1   2
BRANCH   1  20
ATOM     20  C   UNL     1       1.573   5.069  20.840  0.00  0.00    +0.000 C 
BRANCH  20  21
ATOM     21  C   UNL     1       1.254   3.991  19.806  0.00  0.00    +0.000 C 
BRANCH  21  22
ATOM     22  C   UNL     1       1.717   2.610  20.268  0.00  0.00    +0.000 C 
BRANCH  22  23
ATOM     23  N   UNL     1       2.882   2.226  19.478  0.00  0.00    +0.000 NA
ATOM     24  H   UNL     1       2.658   2.262  18.484  0.00  0.00    +0.000 HD
BRANCH  23  25
ATOM     25  C   UNL     1       4.026   3.099  19.735  0.00  0.00    +0.000 C 
BRANCH  25  26
ATOM     26  C   UNL     1       4.574   3.666  18.433  0.00  0.00    +0.000 A 
ATOM     27  C   UNL     1       3.968   3.194  17.250  0.00  0.00    +0.000 A 
ATOM     28  C   UNL     1       4.432   3.575  16.004  0.00  0.00    +0.000 A 
ATOM     29  C   UNL     1       5.537   4.425  15.934  0.00  0.00    +0.000 A 
ATOM     30  C   UNL     1       6.181   4.957  17.082  0.00  0.00    +0.000 A 
ATOM     31  C   UNL     1       7.289   5.845  17.026  0.00  0.00    +0.000 A 
ATOM     32  C   UNL     1       7.886   6.359  18.174  0.00  0.00    +0.000 A 
ATOM     33  C   UNL     1       7.379   6.018  19.414  0.00  0.00    +0.000 A 
ATOM     34  C   UNL     1       6.291   5.147  19.503  0.00  0.00    +0.000 A 
ATOM     35  C   UNL     1       5.672   4.581  18.361  0.00  0.00    +0.000 A 
BRANCH  29  36
ATOM     36  N   UNL     1       6.015   4.739  14.597  0.00  0.00    +0.000 N 
ATOM     37  O   UNL     1       6.830   5.665  14.492  0.00  0.00    +0.000 OA
ATOM     38  O   UNL     1       5.544   4.087  13.654  0.00  0.00    +0.000 OA
ENDBRANCH  29  36
ENDBRANCH  25  26
ENDBRANCH  23  25
ENDBRANCH  22  23
ENDBRANCH  21  22
ENDBRANCH  20  21
ENDBRANCH   1  20
TORSDOF 13
ENDMDL
MODEL 6
REMARK VINA RESULT:      -7.6      3.013      9.989
REMARK  Name = 
REMARK  13 active torsions:
REMARK  status: ('A' for Active; 'I' for Inactive)
REMARK    1  A    between atoms: N_2  and  C_4
REMARK    2  A    between atoms: C_7  and  C_8
REMARK    3  A    between atoms: C_8  and  N_9
REMARK    4  A    between atoms: N_9  and  C_10
REMARK    5  A    between atoms: C_10  and  C_11
REMARK    6  A    between atoms: C_11  and  C_12
REMARK    7  A    between atoms: C_12  and  C_13
REMARK    8  A    between atoms: C_13  and  C_14
REMARK    9  A    between atoms: C_14  and  C_15
REMARK   10  A    between atoms: C_15  and  N_16
REMARK   11  A    between atoms: N_16  and  C_17
REMARK   12  A    between atoms: C_17  and  C_18
REMARK   13  A    between atoms: C_21  and  N_22
REMARK                            x       y       z     vdW  Elec       q    Type
REMARK                         _______ _______ _______ _____ _____    ______ ____
ROOT
ATOM      1  C   UNL     1       2.457   3.269  21.363  0.00  0.00    +0.000 C 
ENDROOT
BRANCH   1   2
ATOM      2  C   UNL     1       2.461   4.796  21.355  0.00  0.00    +0.000 C 
BRANCH   2   3
ATOM      3  C   UNL     1       1.371   5.349  20.437  0.00  0.00    +0.000 C 
BRANCH   3   4
ATOM      4  N   UNL     1       2.000   6.081  19.342  0.00  0.00    +0.000 NA
ATOM      5  H   UNL     1       2.725   5.508  18.910  0.00  0.00    +0.000 HD
BRANCH   4   6
ATOM      6  C   UNL     1       2.588   7.336  19.802  0.00  0.00    +0.000 C 
BRANCH   6  10
ATOM      7  C   UNL     1      -0.051  10.588  18.847  0.00  0.00    +0.000 A 
ATOM      8  C   UNL     1       0.673   9.954  17.832  0.00  0.00    +0.000 A 
ATOM      9  C   UNL     1       1.525   8.912  18.167  0.00  0.00    +0.000 A 
ATOM     10  C   UNL     1       1.656   8.499  19.506  0.00  0.00    +0.000 A 
ATOM     11  C   UNL     1       0.921   9.157  20.541  0.00  0.00    +0.000 A 
ATOM     12  C   UNL     1       1.028   8.775  21.898  0.00  0.00    +0.000 A 
ATOM     13  C   UNL     1       0.284   9.393  22.901  0.00  0.00    +0.000 A 
ATOM     14  C   UNL     1      -0.584  10.422  22.581  0.00  0.00    +0.000 A 
ATOM     15  C   UNL     1      -0.706  10.831  21.256  0.00  0.00    +0.000 A 
ATOM     16  C   UNL     1       0.039  10.219  20.213  0.00  0.00    +0.000 A 
BRANCH   7  18
ATOM     17  O   UNL     1      -0.473  12.798  18.405  0.00  0.00    +0.000 OA
ATOM     18  N   UNL     1      -0.945  11.653  18.435  0.00  0.00    +0.000 N 
ATOM     19  O   UNL     1      -2.116  11.348  18.174  0.00  0.00    +0.000 OA
ENDBRANCH   7  18
ENDBRANCH   6  10
ENDBRANCH   4   6
ENDBRANCH   3   4
ENDBRANCH   2   3
ENDBRANCH   1   2
BRANCH   1  20
ATOM     20  C   UNL     1       1.069   2.725  21.022  0.00  0.00    +0.000 C 
BRANCH  20  21
ATOM     21  C   UNL     1       0.722   3.002  19.561  0.00  0.00    +0.000 C 
BRANCH  21  22
ATOM     22  C   UNL     1       1.595   2.185  18.609  0.00  0.00    +0.000 C 
BRANCH  22  23
ATOM     23  N   UNL     1       2.518   3.093  17.937  0.00  0.00    +0.000 NA
ATOM     24  H   UNL     1       2.535   3.993  18.416  0.00  0.00    +0.000 HD
BRANCH  23  25
ATOM     25  C   UNL     1       3.877   2.556  17.893  0.00  0.00    +0.000 C 
BRANCH  25  26
ATOM     26  C   UNL     1       4.899   3.682  17.822  0.00  0.00    +0.000 A 
ATOM     27  C   UNL     1       5.118   4.393  19.022  0.00  0.00    +0.000 A 
ATOM     28  C   UNL     1       5.963   5.487  19.062  0.00  0.00    +0.000 A 
ATOM     29  C   UNL     1       6.585   5.896  17.881  0.00  0.00    +0.000 A 
ATOM     30  C   UNL     1       6.430   5.213  16.647  0.00  0.00    +0.000 A 
ATOM     31  C   UNL     1       7.078   5.602  15.442  0.00  0.00    +0.000 A 
ATOM     32  C   UNL     1       6.914   4.898  14.252  0.00  0.00    +0.000 A 
ATOM     33  C   UNL     1       6.112   3.772  14.234  0.00  0.00    +0.000 A 
ATOM     34  C   UNL     1       5.461   3.365  15.400  0.00  0.00    +0.000 A 
ATOM     35  C   UNL     1       5.580   4.068  16.625  0.00  0.00    +0.000 A 
BRANCH  29  36
ATOM     36  N   UNL     1       7.412   7.088  17.977  0.00  0.00    +0.000 N 
ATOM     37  O   UNL     1       7.080   8.061  17.287  0.00  0.00    +0.000 OA
ATOM     38  O   UNL     1       8.410   7.035  18.710  0.00  0.00    +0.000 OA
ENDBRANCH  29  36
ENDBRANCH  25  26
ENDBRANCH  23  25
ENDBRANCH  22  23
ENDBRANCH  21  22
ENDBRANCH  20  21
ENDBRANCH   1  20
TORSDOF 13
ENDMDL
MODEL 7
REMARK VINA RESULT:      -7.5      1.559      2.864
REMARK  Name = 
REMARK  13 active torsions:
REMARK  status: ('A' for Active; 'I' for Inactive)
REMARK    1  A    between atoms: N_2  and  C_4
REMARK    2  A    between atoms: C_7  and  C_8
REMARK    3  A    between atoms: C_8  and  N_9
REMARK    4  A    between atoms: N_9  and  C_10
REMARK    5  A    between atoms: C_10  and  C_11
REMARK    6  A    between atoms: C_11  and  C_12
REMARK    7  A    between atoms: C_12  and  C_13
REMARK    8  A    between atoms: C_13  and  C_14
REMARK    9  A    between atoms: C_14  and  C_15
REMARK   10  A    between atoms: C_15  and  N_16
REMARK   11  A    between atoms: N_16  and  C_17
REMARK   12  A    between atoms: C_17  and  C_18
REMARK   13  A    between atoms: C_21  and  N_22
REMARK                            x       y       z     vdW  Elec       q    Type
REMARK                         _______ _______ _______ _____ _____    ______ ____
ROOT
ATOM      1  C   UNL     1      -0.138   8.824  22.645  0.00  0.00    +0.000 C 
ENDROOT
BRANCH   1   2
ATOM      2  C   UNL     1       0.449   8.846  21.236  0.00  0.00    +0.000 C 
BRANCH   2   3
ATOM      3  C   UNL     1       1.076   7.500  20.875  0.00  0.00    +0.000 C 
BRANCH   3   4
ATOM      4  N   UNL     1       2.279   7.735  20.082  0.00  0.00    +0.000 NA
ATOM      5  H   UNL     1       2.639   8.672  20.261  0.00  0.00    +0.000 HD
BRANCH   4   6
ATOM      6  C   UNL     1       2.018   7.585  18.653  0.00  0.00    +0.000 C 
BRANCH   6  10
ATOM      7  C   UNL     1       5.030   5.095  16.870  0.00  0.00    +0.000 A 
ATOM      8  C   UNL     1       5.221   6.479  16.944  0.00  0.00    +0.000 A 
ATOM      9  C   UNL     1       4.230   7.262  17.516  0.00  0.00    +0.000 A 
ATOM     10  C   UNL     1       3.053   6.673  18.016  0.00  0.00    +0.000 A 
ATOM     11  C   UNL     1       2.859   5.259  17.929  0.00  0.00    +0.000 A 
ATOM     12  C   UNL     1       1.691   4.629  18.416  0.00  0.00    +0.000 A 
ATOM     13  C   UNL     1       1.519   3.248  18.363  0.00  0.00    +0.000 A 
ATOM     14  C   UNL     1       2.506   2.451  17.811  0.00  0.00    +0.000 A 
ATOM     15  C   UNL     1       3.665   3.038  17.313  0.00  0.00    +0.000 A 
ATOM     16  C   UNL     1       3.868   4.444  17.354  0.00  0.00    +0.000 A 
BRANCH   7  18
ATOM     17  O   UNL     1       7.164   4.258  16.933  0.00  0.00    +0.000 OA
ATOM     18  N   UNL     1       6.111   4.324  16.285  0.00  0.00    +0.000 N 
ATOM     19  O   UNL     1       5.913   3.816  15.174  0.00  0.00    +0.000 OA
ENDBRANCH   7  18
ENDBRANCH   6  10
ENDBRANCH   4   6
ENDBRANCH   3   4
ENDBRANCH   2   3
ENDBRANCH   1   2
BRANCH   1  20
ATOM     20  C   UNL     1      -0.750  10.179  23.004  0.00  0.00    +0.000 C 
BRANCH  20  21
ATOM     21  C   UNL     1      -0.507  11.194  21.890  0.00  0.00    +0.000 C 
BRANCH  21  22
ATOM     22  C   UNL     1      -0.608  12.631  22.403  0.00  0.00    +0.000 C 
BRANCH  22  23
ATOM     23  N   UNL     1      -1.446  13.391  21.481  0.00  0.00    +0.000 NA
ATOM     24  H   UNL     1      -1.584  12.865  20.619  0.00  0.00    +0.000 HD
BRANCH  23  25
ATOM     25  C   UNL     1      -2.753  13.699  22.060  0.00  0.00    +0.000 C 
BRANCH  25  26
ATOM     26  C   UNL     1      -3.862  12.989  21.295  0.00  0.00    +0.000 A 
ATOM     27  C   UNL     1      -3.561  12.631  19.963  0.00  0.00    +0.000 A 
ATOM     28  C   UNL     1      -4.514  12.053  19.144  0.00  0.00    +0.000 A 
ATOM     29  C   UNL     1      -5.798  11.851  19.651  0.00  0.00    +0.000 A 
ATOM     30  C   UNL     1      -6.163  12.165  20.986  0.00  0.00    +0.000 A 
ATOM     31  C   UNL     1      -7.459  11.940  21.525  0.00  0.00    +0.000 A 
ATOM     32  C   UNL     1      -7.777  12.247  22.845  0.00  0.00    +0.000 A 
ATOM     33  C   UNL     1      -6.802  12.770  23.674  0.00  0.00    +0.000 A 
ATOM     34  C   UNL     1      -5.519  13.004  23.175  0.00  0.00    +0.000 A 
ATOM     35  C   UNL     1      -5.163  12.730  21.831  0.00  0.00    +0.000 A 
BRANCH  29  36
ATOM     36  N   UNL     1      -6.770  11.299  18.721  0.00  0.00    +0.000 N 
ATOM     37  O   UNL     1      -6.929  10.071  18.734  0.00  0.00    +0.000 OA
ATOM     38  O   UNL     1      -7.340  12.088  17.954  0.00  0.00    +0.000 OA
ENDBRANCH  29  36
ENDBRANCH  25  26
ENDBRANCH  23  25
ENDBRANCH  22  23
ENDBRANCH  21  22
ENDBRANCH  20  21
ENDBRANCH   1  20
TORSDOF 13
ENDMDL
MODEL 8
REMARK VINA RESULT:      -7.5      2.570     11.133
REMARK  Name = 
REMARK  13 active torsions:
REMARK  status: ('A' for Active; 'I' for Inactive)
REMARK    1  A    between atoms: N_2  and  C_4
REMARK    2  A    between atoms: C_7  and  C_8
REMARK    3  A    between atoms: C_8  and  N_9
REMARK    4  A    between atoms: N_9  and  C_10
REMARK    5  A    between atoms: C_10  and  C_11
REMARK    6  A    between atoms: C_11  and  C_12
REMARK    7  A    between atoms: C_12  and  C_13
REMARK    8  A    between atoms: C_13  and  C_14
REMARK    9  A    between atoms: C_14  and  C_15
REMARK   10  A    between atoms: C_15  and  N_16
REMARK   11  A    between atoms: N_16  and  C_17
REMARK   12  A    between atoms: C_17  and  C_18
REMARK   13  A    between atoms: C_21  and  N_22
REMARK                            x       y       z     vdW  Elec       q    Type
REMARK                         _______ _______ _______ _____ _____    ______ ____
ROOT
ATOM      1  C   UNL     1      -0.377   9.820  18.305  0.00  0.00    +0.000 C 
ENDROOT
BRANCH   1   2
ATOM      2  C   UNL     1      -1.888  10.035  18.265  0.00  0.00    +0.000 C 
BRANCH   2   3
ATOM      3  C   UNL     1      -2.257  11.221  17.374  0.00  0.00    +0.000 C 
BRANCH   3   4
ATOM      4  N   UNL     1      -3.165  12.099  18.107  0.00  0.00    +0.000 NA
ATOM      5  H   UNL     1      -3.235  13.001  17.637  0.00  0.00    +0.000 HD
BRANCH   4   6
ATOM      6  C   UNL     1      -2.718  12.305  19.482  0.00  0.00    +0.000 C 
BRANCH   6  10
ATOM      7  C   UNL     1      -6.156  12.668  22.032  0.00  0.00    +0.000 A 
ATOM      8  C   UNL     1      -6.315  12.300  20.692  0.00  0.00    +0.000 A 
ATOM      9  C   UNL     1      -5.191  12.198  19.887  0.00  0.00    +0.000 A 
ATOM     10  C   UNL     1      -3.911  12.459  20.411  0.00  0.00    +0.000 A 
ATOM     11  C   UNL     1      -3.755  12.845  21.779  0.00  0.00    +0.000 A 
ATOM     12  C   UNL     1      -2.488  13.119  22.343  0.00  0.00    +0.000 A 
ATOM     13  C   UNL     1      -2.333  13.460  23.684  0.00  0.00    +0.000 A 
ATOM     14  C   UNL     1      -3.444  13.548  24.505  0.00  0.00    +0.000 A 
ATOM     15  C   UNL     1      -4.708  13.296  23.981  0.00  0.00    +0.000 A 
ATOM     16  C   UNL     1      -4.895  12.945  22.617  0.00  0.00    +0.000 A 
BRANCH   7  18
ATOM     17  O   UNL     1      -7.768  11.671  23.322  0.00  0.00    +0.000 OA
ATOM     18  N   UNL     1      -7.364  12.735  22.832  0.00  0.00    +0.000 N 
ATOM     19  O   UNL     1      -7.917  13.836  22.941  0.00  0.00    +0.000 OA
ENDBRANCH   7  18
ENDBRANCH   6  10
ENDBRANCH   4   6
ENDBRANCH   3   4
ENDBRANCH   2   3
ENDBRANCH   1   2
BRANCH   1  20
ATOM     20  C   UNL     1       0.275  10.722  19.353  0.00  0.00    +0.000 C 
BRANCH  20  21
ATOM     21  C   UNL     1       1.188   9.912  20.272  0.00  0.00    +0.000 C 
BRANCH  21  22
ATOM     22  C   UNL     1       0.408   8.858  21.057  0.00  0.00    +0.000 C 
BRANCH  22  23
ATOM     23  N   UNL     1       1.121   7.589  20.958  0.00  0.00    +0.000 NA
ATOM     24  H   UNL     1       0.458   6.822  20.846  0.00  0.00    +0.000 HD
BRANCH  23  25
ATOM     25  C   UNL     1       2.055   7.574  19.833  0.00  0.00    +0.000 C 
BRANCH  25  26
ATOM     26  C   UNL     1       2.584   6.167  19.591  0.00  0.00    +0.000 A 
ATOM     27  C   UNL     1       2.155   5.181  20.504  0.00  0.00    +0.000 A 
ATOM     28  C   UNL     1       2.631   3.884  20.434  0.00  0.00    +0.000 A 
ATOM     29  C   UNL     1       3.572   3.568  19.452  0.00  0.00    +0.000 A 
ATOM     30  C   UNL     1       4.030   4.504  18.488  0.00  0.00    +0.000 A 
ATOM     31  C   UNL     1       4.967   4.191  17.466  0.00  0.00    +0.000 A 
ATOM     32  C   UNL     1       5.381   5.131  16.527  0.00  0.00    +0.000 A 
ATOM     33  C   UNL     1       4.857   6.409  16.568  0.00  0.00    +0.000 A 
ATOM     34  C   UNL     1       3.935   6.749  17.561  0.00  0.00    +0.000 A 
ATOM     35  C   UNL     1       3.507   5.830  18.551  0.00  0.00    +0.000 A 
BRANCH  29  36
ATOM     36  N   UNL     1       4.079   2.206  19.472  0.00  0.00    +0.000 N 
ATOM     37  O   UNL     1       3.480   1.371  18.781  0.00  0.00    +0.000 OA
ATOM     38  O   UNL     1       5.049   1.967  20.206  0.00  0.00    +0.000 OA
ENDBRANCH  29  36
ENDBRANCH  25  26
ENDBRANCH  23  25
ENDBRANCH  22  23
ENDBRANCH  21  22
ENDBRANCH  20  21
ENDBRANCH   1  20
TORSDOF 13
ENDMDL
MODEL 9
REMARK VINA RESULT:      -7.5      2.376     10.428
REMARK  Name = 
REMARK  13 active torsions:
REMARK  status: ('A' for Active; 'I' for Inactive)
REMARK    1  A    between atoms: N_2  and  C_4
REMARK    2  A    between atoms: C_7  and  C_8
REMARK    3  A    between atoms: C_8  and  N_9
REMARK    4  A    between atoms: N_9  and  C_10
REMARK    5  A    between atoms: C_10  and  C_11
REMARK    6  A    between atoms: C_11  and  C_12
REMARK    7  A    between atoms: C_12  and  C_13
REMARK    8  A    between atoms: C_13  and  C_14
REMARK    9  A    between atoms: C_14  and  C_15
REMARK   10  A    between atoms: C_15  and  N_16
REMARK   11  A    between atoms: N_16  and  C_17
REMARK   12  A    between atoms: C_17  and  C_18
REMARK   13  A    between atoms: C_21  and  N_22
REMARK                            x       y       z     vdW  Elec       q    Type
REMARK                         _______ _______ _______ _____ _____    ______ ____
ROOT
ATOM      1  C   UNL     1       1.944   5.343  20.455  0.00  0.00    +0.000 C 
ENDROOT
BRANCH   1   2
ATOM      2  C   UNL     1       1.157   6.624  20.721  0.00  0.00    +0.000 C 
BRANCH   2   3
ATOM      3  C   UNL     1       1.911   7.854  20.216  0.00  0.00    +0.000 C 
BRANCH   3   4
ATOM      4  N   UNL     1       1.297   8.308  18.972  0.00  0.00    +0.000 NA
ATOM      5  H   UNL     1       1.653   7.765  18.187  0.00  0.00    +0.000 HD
BRANCH   4   6
ATOM      6  C   UNL     1       1.553   9.726  18.732  0.00  0.00    +0.000 C 
BRANCH   6  10
ATOM      7  C   UNL     1      -1.571  12.185  20.358  0.00  0.00    +0.000 A 
ATOM      8  C   UNL     1      -0.336  12.102  21.010  0.00  0.00    +0.000 A 
ATOM      9  C   UNL     1       0.654  11.294  20.469  0.00  0.00    +0.000 A 
ATOM     10  C   UNL     1       0.419  10.573  19.284  0.00  0.00    +0.000 A 
ATOM     11  C   UNL     1      -0.848  10.653  18.628  0.00  0.00    +0.000 A 
ATOM     12  C   UNL     1      -1.125   9.942  17.438  0.00  0.00    +0.000 A 
ATOM     13  C   UNL     1      -2.348  10.049  16.780  0.00  0.00    +0.000 A 
ATOM     14  C   UNL     1      -3.340  10.864  17.296  0.00  0.00    +0.000 A 
ATOM     15  C   UNL     1      -3.106  11.571  18.471  0.00  0.00    +0.000 A 
ATOM     16  C   UNL     1      -1.868  11.482  19.164  0.00  0.00    +0.000 A 
BRANCH   7  18
ATOM     17  O   UNL     1      -2.508  14.259  20.634  0.00  0.00    +0.000 OA
ATOM     18  N   UNL     1      -2.559  13.064  20.955  0.00  0.00    +0.000 N 
ATOM     19  O   UNL     1      -3.356  12.564  21.758  0.00  0.00    +0.000 OA
ENDBRANCH   7  18
ENDBRANCH   6  10
ENDBRANCH   4   6
ENDBRANCH   3   4
ENDBRANCH   2   3
ENDBRANCH   1   2
BRANCH   1  20
ATOM     20  C   UNL     1       1.004   4.148  20.298  0.00  0.00    +0.000 C 
BRANCH  20  21
ATOM     21  C   UNL     1       1.194   3.484  18.936  0.00  0.00    +0.000 C 
BRANCH  21  22
ATOM     22  C   UNL     1       2.036   2.213  19.040  0.00  0.00    +0.000 C 
BRANCH  22  23
ATOM     23  N   UNL     1       3.082   2.269  18.023  0.00  0.00    +0.000 NA
ATOM     24  H   UNL     1       3.015   1.460  17.407  0.00  0.00    +0.000 HD
BRANCH  23  25
ATOM     25  C   UNL     1       2.993   3.485  17.217  0.00  0.00    +0.000 C 
BRANCH  25  26
ATOM     26  C   UNL     1       4.277   4.297  17.321  0.00  0.00    +0.000 A 
ATOM     27  C   UNL     1       4.479   4.977  18.541  0.00  0.00    +0.000 A 
ATOM     28  C   UNL     1       5.569   5.809  18.725  0.00  0.00    +0.000 A 
ATOM     29  C   UNL     1       6.461   5.987  17.667  0.00  0.00    +0.000 A 
ATOM     30  C   UNL     1       6.332   5.316  16.423  0.00  0.00    +0.000 A 
ATOM     31  C   UNL     1       7.248   5.466  15.346  0.00  0.00    +0.000 A 
ATOM     32  C   UNL     1       7.097   4.779  14.144  0.00  0.00    +0.000 A 
ATOM     33  C   UNL     1       6.038   3.906  13.989  0.00  0.00    +0.000 A 
ATOM     34  C   UNL     1       5.120   3.737  15.028  0.00  0.00    +0.000 A 
ATOM     35  C   UNL     1       5.222   4.436  16.256  0.00  0.00    +0.000 A 
BRANCH  29  36
ATOM     36  N   UNL     1       7.550   6.922  17.903  0.00  0.00    +0.000 N 
ATOM     37  O   UNL     1       7.654   7.875  17.119  0.00  0.00    +0.000 OA
ATOM     38  O   UNL     1       8.319   6.678  18.844  0.00  0.00    +0.000 OA
ENDBRANCH  29  36
ENDBRANCH  25  26
ENDBRANCH  23  25
ENDBRANCH  22  23
ENDBRANCH  21  22
ENDBRANCH  20  21
ENDBRANCH   1  20
TORSDOF 13
ENDMDL
