MODEL 1
REMARK VINA RESULT:      -9.4      0.000      0.000
REMARK  Name = 
REMARK  6 active torsions:
REMARK  status: ('A' for Active; 'I' for Inactive)
REMARK    1  A    between atoms: C_1  and  O_2
REMARK    2  A    between atoms: O_2  and  C_3
REMARK    3  A    between atoms: C_9  and  C_10
REMARK    4  A    between atoms: C_10  and  C_11
REMARK    5  A    between atoms: C_11  and  N_12
REMARK    6  A    between atoms: C_17  and  C_18
REMARK                            x       y       z     vdW  Elec       q    Type
REMARK                         _______ _______ _______ _____ _____    ______ ____
ROOT
ATOM      1  N   UNL     1       4.866   3.071  19.238  0.00  0.00    +0.000 N 
ATOM      2  C   UNL     1       3.710   3.631  19.830  0.00  0.00    +0.000 A 
ATOM      3  C   UNL     1       2.958   2.877  20.704  0.00  0.00    +0.000 A 
ATOM      4  C   UNL     1       1.842   3.487  21.236  0.00  0.00    +0.000 A 
ATOM      5  N   UNL     1       1.477   4.752  20.957  0.00  0.00    +0.000 NA
ATOM      6  C   UNL     1       2.264   5.410  20.092  0.00  0.00    +0.000 A 
ATOM      7  N   UNL     1       3.354   4.882  19.514  0.00  0.00    +0.000 NA
ATOM      8  H   UNL     1       5.485   2.753  19.979  0.00  0.00    +0.000 HD
ENDROOT
BRANCH   6   9
ATOM      9  C   UNL     1       1.967   6.820  19.772  0.00  0.00    +0.000 A 
ATOM     10  C   UNL     1       2.275   7.355  18.488  0.00  0.00    +0.000 A 
ATOM     11  C   UNL     1       2.041   8.695  18.162  0.00  0.00    +0.000 A 
ATOM     12  C   UNL     1       1.495   9.495  19.135  0.00  0.00    +0.000 A 
ATOM     13  C   UNL     1       1.182   9.004  20.381  0.00  0.00    +0.000 A 
ATOM     14  C   UNL     1       1.399   7.686  20.726  0.00  0.00    +0.000 A 
ATOM     15  O   UNL     1       0.659   9.961  21.196  0.00  0.00    +0.000 OA
ATOM     16  C   UNL     1       0.702  11.111  20.327  0.00  0.00    +0.000 C 
ATOM     17  O   UNL     1       1.209  10.818  19.009  0.00  0.00    +0.000 OA
ENDBRANCH   6   9
BRANCH   1  18
ATOM     18  C   UNL     1       5.529   4.027  18.332  0.00  0.00    +0.000 C 
BRANCH  18  19
ATOM     19  C   UNL     1       5.029   3.902  16.891  0.00  0.00    +0.000 C 
BRANCH  19  26
ATOM     20  C   UNL     1       5.998   3.254  12.298  0.00  0.00    +0.000 A 
ATOM     21  C   UNL     1       7.035   4.076  11.861  0.00  0.00    +0.000 A 
ATOM     22  C   UNL     1       7.665   4.968  12.737  0.00  0.00    +0.000 A 
ATOM     23  C   UNL     1       7.217   5.012  14.061  0.00  0.00    +0.000 A 
ATOM     24  N   UNL     1       7.657   5.777  15.113  0.00  0.00    +0.000 N 
ATOM     25  C   UNL     1       6.935   5.491  16.237  0.00  0.00    +0.000 A 
ATOM     26  C   UNL     1       5.998   4.523  15.925  0.00  0.00    +0.000 A 
ATOM     27  C   UNL     1       6.173   4.216  14.534  0.00  0.00    +0.000 A 
ATOM     28  C   UNL     1       5.552   3.328  13.628  0.00  0.00    +0.000 A 
ATOM     29  H   UNL     1       8.413   6.445  15.058  0.00  0.00    +0.000 HD
BRANCH  20  31
ATOM     30  C   UNL     1       6.038   1.182  11.151  0.00  0.00    +0.000 C 
ATOM     31  O   UNL     1       5.322   2.359  11.511  0.00  0.00    +0.000 OA
ENDBRANCH  20  31
ENDBRANCH  19  26
ENDBRANCH  18  19
ENDBRANCH   1  18
TORSDOF 5
ENDMDL
MODEL 2
REMARK VINA RESULT:      -9.4      0.765      1.397
REMARK  Name = 
REMARK  6 active torsions:
REMARK  status: ('A' for Active; 'I' for Inactive)
REMARK    1  A    between atoms: C_1  and  O_2
REMARK    2  A    between atoms: O_2  and  C_3
REMARK    3  A    between atoms: C_9  and  C_10
REMARK    4  A    between atoms: C_10  and  C_11
REMARK    5  A    between atoms: C_11  and  N_12
REMARK    6  A    between atoms: C_17  and  C_18
REMARK                            x       y       z     vdW  Elec       q    Type
REMARK                         _______ _______ _______ _____ _____    ______ ____
ROOT
ATOM      1  N   UNL     1       4.611   2.850  19.106  0.00  0.00    +0.000 N 
ATOM      2  C   UNL     1       3.467   3.403  19.723  0.00  0.00    +0.000 A 
ATOM      3  C   UNL     1       2.656   2.603  20.500  0.00  0.00    +0.000 A 
ATOM      4  C   UNL     1       1.556   3.210  21.065  0.00  0.00    +0.000 A 
ATOM      5  N   UNL     1       1.256   4.512  20.906  0.00  0.00    +0.000 NA
ATOM      6  C   UNL     1       2.096   5.215  20.130  0.00  0.00    +0.000 A 
ATOM      7  N   UNL     1       3.177   4.694  19.528  0.00  0.00    +0.000 NA
ATOM      8  H   UNL     1       5.195   2.430  19.825  0.00  0.00    +0.000 HD
ENDROOT
BRANCH   6   9
ATOM      9  C   UNL     1       1.873   6.662  19.947  0.00  0.00    +0.000 A 
ATOM     10  C   UNL     1       1.250   7.437  20.967  0.00  0.00    +0.000 A 
ATOM     11  C   UNL     1       0.991   8.802  20.814  0.00  0.00    +0.000 A 
ATOM     12  C   UNL     1       1.362   9.386  19.628  0.00  0.00    +0.000 A 
ATOM     13  C   UNL     1       1.971   8.665  18.629  0.00  0.00    +0.000 A 
ATOM     14  C   UNL     1       2.241   7.317  18.756  0.00  0.00    +0.000 A 
ATOM     15  O   UNL     1       2.250   9.428  17.537  0.00  0.00    +0.000 OA
ATOM     16  C   UNL     1       1.725  10.704  17.957  0.00  0.00    +0.000 C 
ATOM     17  O   UNL     1       1.182  10.691  19.293  0.00  0.00    +0.000 OA
ENDBRANCH   6   9
BRANCH   1  18
ATOM     18  C   UNL     1       5.342   3.858  18.316  0.00  0.00    +0.000 C 
BRANCH  18  19
ATOM     19  C   UNL     1       4.820   3.961  16.881  0.00  0.00    +0.000 C 
BRANCH  19  26
ATOM     20  C   UNL     1       5.895   3.394  12.301  0.00  0.00    +0.000 A 
ATOM     21  C   UNL     1       6.997   4.158  11.924  0.00  0.00    +0.000 A 
ATOM     22  C   UNL     1       7.654   4.979  12.847  0.00  0.00    +0.000 A 
ATOM     23  C   UNL     1       7.167   5.011  14.158  0.00  0.00    +0.000 A 
ATOM     24  N   UNL     1       7.621   5.712  15.247  0.00  0.00    +0.000 N 
ATOM     25  C   UNL     1       6.846   5.440  16.339  0.00  0.00    +0.000 A 
ATOM     26  C   UNL     1       5.858   4.546  15.967  0.00  0.00    +0.000 A 
ATOM     27  C   UNL     1       6.058   4.272  14.572  0.00  0.00    +0.000 A 
ATOM     28  C   UNL     1       5.411   3.456  13.618  0.00  0.00    +0.000 A 
ATOM     29  H   UNL     1       8.421   6.330  15.238  0.00  0.00    +0.000 HD
BRANCH  20  31
ATOM     30  C   UNL     1       3.925   3.064  11.027  0.00  0.00    +0.000 C 
ATOM     31  O   UNL     1       5.187   2.571  11.464  0.00  0.00    +0.000 OA
ENDBRANCH  20  31
ENDBRANCH  19  26
ENDBRANCH  18  19
ENDBRANCH   1  18
TORSDOF 5
ENDMDL
MODEL 3
REMARK VINA RESULT:      -9.2      2.287      9.260
REMARK  Name = 
REMARK  6 active torsions:
REMARK  status: ('A' for Active; 'I' for Inactive)
REMARK    1  A    between atoms: C_1  and  O_2
REMARK    2  A    between atoms: O_2  and  C_3
REMARK    3  A    between atoms: C_9  and  C_10
REMARK    4  A    between atoms: C_10  and  C_11
REMARK    5  A    between atoms: C_11  and  N_12
REMARK    6  A    between atoms: C_17  and  C_18
REMARK                            x       y       z     vdW  Elec       q    Type
REMARK                         _______ _______ _______ _____ _____    ______ ____
ROOT
ATOM      1  N   UNL     1       1.636   5.919  20.967  0.00  0.00    +0.000 N 
ATOM      2  C   UNL     1       2.468   4.854  20.552  0.00  0.00    +0.000 A 
ATOM      3  C   UNL     1       2.317   3.608  21.122  0.00  0.00    +0.000 A 
ATOM      4  C   UNL     1       3.167   2.621  20.672  0.00  0.00    +0.000 A 
ATOM      5  N   UNL     1       4.099   2.813  19.719  0.00  0.00    +0.000 NA
ATOM      6  C   UNL     1       4.179   4.058  19.224  0.00  0.00    +0.000 A 
ATOM      7  N   UNL     1       3.403   5.079  19.623  0.00  0.00    +0.000 NA
ATOM      8  H   UNL     1       0.666   5.639  20.840  0.00  0.00    +0.000 HD
ENDROOT
BRANCH   6   9
ATOM      9  C   UNL     1       5.136   4.344  18.138  0.00  0.00    +0.000 A 
ATOM     10  C   UNL     1       6.383   4.975  18.414  0.00  0.00    +0.000 A 
ATOM     11  C   UNL     1       7.298   5.293  17.405  0.00  0.00    +0.000 A 
ATOM     12  C   UNL     1       6.952   4.973  16.115  0.00  0.00    +0.000 A 
ATOM     13  C   UNL     1       5.759   4.358  15.820  0.00  0.00    +0.000 A 
ATOM     14  C   UNL     1       4.841   4.031  16.797  0.00  0.00    +0.000 A 
ATOM     15  O   UNL     1       5.608   4.136  14.486  0.00  0.00    +0.000 OA
ATOM     16  C   UNL     1       6.833   4.702  13.977  0.00  0.00    +0.000 C 
ATOM     17  O   UNL     1       7.702   5.214  15.007  0.00  0.00    +0.000 OA
ENDBRANCH   6   9
BRANCH   1  18
ATOM     18  C   UNL     1       1.953   7.167  20.249  0.00  0.00    +0.000 C 
BRANCH  18  19
ATOM     19  C   UNL     1       1.379   8.401  20.950  0.00  0.00    +0.000 C 
BRANCH  19  26
ATOM     20  C   UNL     1      -1.564  12.108  21.173  0.00  0.00    +0.000 A 
ATOM     21  C   UNL     1      -1.725  12.723  19.933  0.00  0.00    +0.000 A 
ATOM     22  C   UNL     1      -1.057  12.246  18.799  0.00  0.00    +0.000 A 
ATOM     23  C   UNL     1      -0.219  11.136  18.952  0.00  0.00    +0.000 A 
ATOM     24  N   UNL     1       0.536  10.470  18.019  0.00  0.00    +0.000 N 
ATOM     25  C   UNL     1       1.202   9.431  18.607  0.00  0.00    +0.000 A 
ATOM     26  C   UNL     1       0.886   9.411  19.953  0.00  0.00    +0.000 A 
ATOM     27  C   UNL     1      -0.020  10.501  20.178  0.00  0.00    +0.000 A 
ATOM     28  C   UNL     1      -0.702  11.007  21.307  0.00  0.00    +0.000 A 
ATOM     29  H   UNL     1       0.580  10.713  17.039  0.00  0.00    +0.000 HD
BRANCH  20  31
ATOM     30  C   UNL     1      -1.400  13.363  23.175  0.00  0.00    +0.000 C 
ATOM     31  O   UNL     1      -2.171  12.512  22.333  0.00  0.00    +0.000 OA
ENDBRANCH  20  31
ENDBRANCH  19  26
ENDBRANCH  18  19
ENDBRANCH   1  18
TORSDOF 5
ENDMDL
MODEL 4
REMARK VINA RESULT:      -8.9      3.239      8.804
REMARK  Name = 
REMARK  6 active torsions:
REMARK  status: ('A' for Active; 'I' for Inactive)
REMARK    1  A    between atoms: C_1  and  O_2
REMARK    2  A    between atoms: O_2  and  C_3
REMARK    3  A    between atoms: C_9  and  C_10
REMARK    4  A    between atoms: C_10  and  C_11
REMARK    5  A    between atoms: C_11  and  N_12
REMARK    6  A    between atoms: C_17  and  C_18
REMARK                            x       y       z     vdW  Elec       q    Type
REMARK                         _______ _______ _______ _____ _____    ______ ____
ROOT
ATOM      1  N   UNL     1       1.434   7.534  20.176  0.00  0.00    +0.000 N 
ATOM      2  C   UNL     1       2.113   6.315  19.950  0.00  0.00    +0.000 A 
ATOM      3  C   UNL     1       1.722   5.179  20.625  0.00  0.00    +0.000 A 
ATOM      4  C   UNL     1       2.434   4.031  20.357  0.00  0.00    +0.000 A 
ATOM      5  N   UNL     1       3.455   3.970  19.482  0.00  0.00    +0.000 NA
ATOM      6  C   UNL     1       3.772   5.124  18.873  0.00  0.00    +0.000 A 
ATOM      7  N   UNL     1       3.141   6.289  19.094  0.00  0.00    +0.000 NA
ATOM      8  H   UNL     1       0.445   7.391  19.988  0.00  0.00    +0.000 HD
ENDROOT
BRANCH   6   9
ATOM      9  C   UNL     1       4.842   5.137  17.858  0.00  0.00    +0.000 A 
ATOM     10  C   UNL     1       6.072   5.812  18.106  0.00  0.00    +0.000 A 
ATOM     11  C   UNL     1       7.094   5.874  17.153  0.00  0.00    +0.000 A 
ATOM     12  C   UNL     1       6.872   5.254  15.948  0.00  0.00    +0.000 A 
ATOM     13  C   UNL     1       5.699   4.589  15.684  0.00  0.00    +0.000 A 
ATOM     14  C   UNL     1       4.676   4.510  16.608  0.00  0.00    +0.000 A 
ATOM     15  O   UNL     1       5.679   4.052  14.434  0.00  0.00    +0.000 OA
ATOM     16  C   UNL     1       6.965   4.475  13.937  0.00  0.00    +0.000 C 
ATOM     17  O   UNL     1       7.739   5.218  14.901  0.00  0.00    +0.000 OA
ENDBRANCH   6   9
BRANCH   1  18
ATOM     18  C   UNL     1       2.001   8.629  19.369  0.00  0.00    +0.000 C 
BRANCH  18  19
ATOM     19  C   UNL     1       1.043   9.096  18.270  0.00  0.00    +0.000 C 
BRANCH  19  26
ATOM     20  C   UNL     1      -3.224  10.543  16.801  0.00  0.00    +0.000 A 
ATOM     21  C   UNL     1      -3.786  11.478  17.668  0.00  0.00    +0.000 A 
ATOM     22  C   UNL     1      -3.110  11.888  18.823  0.00  0.00    +0.000 A 
ATOM     23  C   UNL     1      -1.855  11.327  19.081  0.00  0.00    +0.000 A 
ATOM     24  N   UNL     1      -0.987  11.553  20.120  0.00  0.00    +0.000 N 
ATOM     25  C   UNL     1       0.136  10.789  19.972  0.00  0.00    +0.000 A 
ATOM     26  C   UNL     1       0.009  10.040  18.817  0.00  0.00    +0.000 A 
ATOM     27  C   UNL     1      -1.264  10.378  18.246  0.00  0.00    +0.000 A 
ATOM     28  C   UNL     1      -1.970   9.978  17.090  0.00  0.00    +0.000 A 
ATOM     29  H   UNL     1      -1.158  12.202  20.877  0.00  0.00    +0.000 HD
BRANCH  20  31
ATOM     30  C   UNL     1      -3.010  10.112  14.482  0.00  0.00    +0.000 C 
ATOM     31  O   UNL     1      -3.816  10.080  15.655  0.00  0.00    +0.000 OA
ENDBRANCH  20  31
ENDBRANCH  19  26
ENDBRANCH  18  19
ENDBRANCH   1  18
TORSDOF 5
ENDMDL
MODEL 5
REMARK VINA RESULT:      -8.9      2.615      8.707
REMARK  Name = 
REMARK  6 active torsions:
REMARK  status: ('A' for Active; 'I' for Inactive)
REMARK    1  A    between atoms: C_1  and  O_2
REMARK    2  A    between atoms: O_2  and  C_3
REMARK    3  A    between atoms: C_9  and  C_10
REMARK    4  A    between atoms: C_10  and  C_11
REMARK    5  A    between atoms: C_11  and  N_12
REMARK    6  A    between atoms: C_17  and  C_18
REMARK                            x       y       z     vdW  Elec       q    Type
REMARK                         _______ _______ _______ _____ _____    ______ ____
ROOT
ATOM      1  N   UNL     1       1.434   6.437  20.894  0.00  0.00    +0.000 N 
ATOM      2  C   UNL     1       1.951   5.245  20.337  0.00  0.00    +0.000 A 
ATOM      3  C   UNL     1       1.362   4.038  20.645  0.00  0.00    +0.000 A 
ATOM      4  C   UNL     1       1.924   2.918  20.069  0.00  0.00    +0.000 A 
ATOM      5  N   UNL     1       2.980   2.955  19.236  0.00  0.00    +0.000 NA
ATOM      6  C   UNL     1       3.493   4.172  18.996  0.00  0.00    +0.000 A 
ATOM      7  N   UNL     1       3.018   5.308  19.533  0.00  0.00    +0.000 NA
ATOM      8  H   UNL     1       0.449   6.506  20.652  0.00  0.00    +0.000 HD
ENDROOT
BRANCH   6   9
ATOM      9  C   UNL     1       4.617   4.311  18.051  0.00  0.00    +0.000 A 
ATOM     10  C   UNL     1       5.927   4.619  18.519  0.00  0.00    +0.000 A 
ATOM     11  C   UNL     1       7.009   4.792  17.650  0.00  0.00    +0.000 A 
ATOM     12  C   UNL     1       6.766   4.654  16.305  0.00  0.00    +0.000 A 
ATOM     13  C   UNL     1       5.514   4.350  15.825  0.00  0.00    +0.000 A 
ATOM     14  C   UNL     1       4.431   4.171  16.663  0.00  0.00    +0.000 A 
ATOM     15  O   UNL     1       5.488   4.266  14.468  0.00  0.00    +0.000 OA
ATOM     16  C   UNL     1       6.860   4.573  14.150  0.00  0.00    +0.000 C 
ATOM     17  O   UNL     1       7.684   4.797  15.313  0.00  0.00    +0.000 OA
ENDBRANCH   6   9
BRANCH   1  18
ATOM     18  C   UNL     1       2.199   7.618  20.453  0.00  0.00    +0.000 C 
BRANCH  18  19
ATOM     19  C   UNL     1       1.463   8.416  19.373  0.00  0.00    +0.000 C 
BRANCH  19  26
ATOM     20  C   UNL     1      -1.979  11.228  17.731  0.00  0.00    +0.000 A 
ATOM     21  C   UNL     1      -2.450  12.103  18.708  0.00  0.00    +0.000 A 
ATOM     22  C   UNL     1      -1.922  12.088  20.004  0.00  0.00    +0.000 A 
ATOM     23  C   UNL     1      -0.910  11.166  20.287  0.00  0.00    +0.000 A 
ATOM     24  N   UNL     1      -0.221  10.947  21.455  0.00  0.00    +0.000 N 
ATOM     25  C   UNL     1       0.692   9.945  21.284  0.00  0.00    +0.000 A 
ATOM     26  C   UNL     1       0.605   9.488  19.981  0.00  0.00    +0.000 A 
ATOM     27  C   UNL     1      -0.420  10.264  19.342  0.00  0.00    +0.000 A 
ATOM     28  C   UNL     1      -0.975  10.296  18.044  0.00  0.00    +0.000 A 
ATOM     29  H   UNL     1      -0.367  11.465  22.311  0.00  0.00    +0.000 HD
BRANCH  20  31
ATOM     30  C   UNL     1      -2.817   9.874  15.976  0.00  0.00    +0.000 C 
ATOM     31  O   UNL     1      -2.443  11.167  16.443  0.00  0.00    +0.000 OA
ENDBRANCH  20  31
ENDBRANCH  19  26
ENDBRANCH  18  19
ENDBRANCH   1  18
TORSDOF 5
ENDMDL
MODEL 6
REMARK VINA RESULT:      -8.5      2.141      9.158
REMARK  Name = 
REMARK  6 active torsions:
REMARK  status: ('A' for Active; 'I' for Inactive)
REMARK    1  A    between atoms: C_1  and  O_2
REMARK    2  A    between atoms: O_2  and  C_3
REMARK    3  A    between atoms: C_9  and  C_10
REMARK    4  A    between atoms: C_10  and  C_11
REMARK    5  A    between atoms: C_11  and  N_12
REMARK    6  A    between atoms: C_17  and  C_18
REMARK                            x       y       z     vdW  Elec       q    Type
REMARK                         _______ _______ _______ _____ _____    ______ ____
ROOT
ATOM      1  N   UNL     1       1.570   5.335  20.253  0.00  0.00    +0.000 N 
ATOM      2  C   UNL     1       2.231   4.334  19.506  0.00  0.00    +0.000 A 
ATOM      3  C   UNL     1       1.810   3.025  19.597  0.00  0.00    +0.000 A 
ATOM      4  C   UNL     1       2.507   2.104  18.844  0.00  0.00    +0.000 A 
ATOM      5  N   UNL     1       3.537   2.422  18.039  0.00  0.00    +0.000 NA
ATOM      6  C   UNL     1       3.883   3.719  18.016  0.00  0.00    +0.000 A 
ATOM      7  N   UNL     1       3.270   4.673  18.734  0.00  0.00    +0.000 NA
ATOM      8  H   UNL     1       0.581   5.314  20.017  0.00  0.00    +0.000 HD
ENDROOT
BRANCH   6   9
ATOM      9  C   UNL     1       4.967   4.163  17.120  0.00  0.00    +0.000 A 
ATOM     10  C   UNL     1       5.974   5.058  17.584  0.00  0.00    +0.000 A 
ATOM     11  C   UNL     1       6.995   5.528  16.752  0.00  0.00    +0.000 A 
ATOM     12  C   UNL     1       6.999   5.093  15.449  0.00  0.00    +0.000 A 
ATOM     13  C   UNL     1       6.044   4.224  14.976  0.00  0.00    +0.000 A 
ATOM     14  C   UNL     1       5.028   3.743  15.777  0.00  0.00    +0.000 A 
ATOM     15  O   UNL     1       6.225   3.925  13.661  0.00  0.00    +0.000 OA
ATOM     16  C   UNL     1       7.388   4.723  13.358  0.00  0.00    +0.000 C 
ATOM     17  O   UNL     1       7.899   5.448  14.495  0.00  0.00    +0.000 OA
ENDBRANCH   6   9
BRANCH   1  18
ATOM     18  C   UNL     1       2.166   6.664  20.028  0.00  0.00    +0.000 C 
BRANCH  18  19
ATOM     19  C   UNL     1       1.393   7.776  20.742  0.00  0.00    +0.000 C 
BRANCH  19  26
ATOM     20  C   UNL     1      -0.313  12.149  21.387  0.00  0.00    +0.000 A 
ATOM     21  C   UNL     1      -0.261  12.909  20.219  0.00  0.00    +0.000 A 
ATOM     22  C   UNL     1       0.256  12.373  19.034  0.00  0.00    +0.000 A 
ATOM     23  C   UNL     1       0.722  11.054  19.060  0.00  0.00    +0.000 A 
ATOM     24  N   UNL     1       1.262  10.293  18.053  0.00  0.00    +0.000 N 
ATOM     25  C   UNL     1       1.576   9.048  18.521  0.00  0.00    +0.000 A 
ATOM     26  C   UNL     1       1.243   8.984  19.862  0.00  0.00    +0.000 A 
ATOM     27  C   UNL     1       0.700  10.266  20.211  0.00  0.00    +0.000 A 
ATOM     28  C   UNL     1       0.177  10.833  21.395  0.00  0.00    +0.000 A 
ATOM     29  H   UNL     1       1.394  10.611  17.103  0.00  0.00    +0.000 HD
BRANCH  20  31
ATOM     30  C   UNL     1      -0.708  13.998  22.814  0.00  0.00    +0.000 C 
ATOM     31  O   UNL     1      -0.795  12.594  22.590  0.00  0.00    +0.000 OA
ENDBRANCH  20  31
ENDBRANCH  19  26
ENDBRANCH  18  19
ENDBRANCH   1  18
TORSDOF 5
ENDMDL
MODEL 7
REMARK VINA RESULT:      -8.5      2.195      8.925
REMARK  Name = 
REMARK  6 active torsions:
REMARK  status: ('A' for Active; 'I' for Inactive)
REMARK    1  A    between atoms: C_1  and  O_2
REMARK    2  A    between atoms: O_2  and  C_3
REMARK    3  A    between atoms: C_9  and  C_10
REMARK    4  A    between atoms: C_10  and  C_11
REMARK    5  A    between atoms: C_11  and  N_12
REMARK    6  A    between atoms: C_17  and  C_18
REMARK                            x       y       z     vdW  Elec       q    Type
REMARK                         _______ _______ _______ _____ _____    ______ ____
ROOT
ATOM      1  N   UNL     1       1.657   6.409  20.842  0.00  0.00    +0.000 N 
ATOM      2  C   UNL     1       2.351   5.261  20.395  0.00  0.00    +0.000 A 
ATOM      3  C   UNL     1       2.019   4.023  20.901  0.00  0.00    +0.000 A 
ATOM      4  C   UNL     1       2.743   2.952  20.423  0.00  0.00    +0.000 A 
ATOM      5  N   UNL     1       3.719   3.059  19.502  0.00  0.00    +0.000 NA
ATOM      6  C   UNL     1       3.979   4.303  19.069  0.00  0.00    +0.000 A 
ATOM      7  N   UNL     1       3.335   5.400  19.499  0.00  0.00    +0.000 NA
ATOM      8  H   UNL     1       0.663   6.268  20.680  0.00  0.00    +0.000 HD
ENDROOT
BRANCH   6   9
ATOM      9  C   UNL     1       4.996   4.506  18.020  0.00  0.00    +0.000 A 
ATOM     10  C   UNL     1       6.275   5.046  18.340  0.00  0.00    +0.000 A 
ATOM     11  C   UNL     1       7.250   5.285  17.366  0.00  0.00    +0.000 A 
ATOM     12  C   UNL     1       6.931   4.977  16.066  0.00  0.00    +0.000 A 
ATOM     13  C   UNL     1       5.708   4.448  15.729  0.00  0.00    +0.000 A 
ATOM     14  C   UNL     1       4.731   4.200  16.671  0.00  0.00    +0.000 A 
ATOM     15  O   UNL     1       5.594   4.223  14.391  0.00  0.00    +0.000 OA
ATOM     16  C   UNL     1       6.877   4.692  13.927  0.00  0.00    +0.000 C 
ATOM     17  O   UNL     1       7.740   5.150  14.988  0.00  0.00    +0.000 OA
ENDBRANCH   6   9
BRANCH   1  18
ATOM     18  C   UNL     1       2.158   7.634  20.192  0.00  0.00    +0.000 C 
BRANCH  18  19
ATOM     19  C   UNL     1       1.169   8.190  19.164  0.00  0.00    +0.000 C 
BRANCH  19  26
ATOM     20  C   UNL     1      -0.079  12.105  21.523  0.00  0.00    +0.000 A 
ATOM     21  C   UNL     1       0.344  13.264  20.875  0.00  0.00    +0.000 A 
ATOM     22  C   UNL     1       1.056  13.197  19.672  0.00  0.00    +0.000 A 
ATOM     23  C   UNL     1       1.333  11.932  19.144  0.00  0.00    +0.000 A 
ATOM     24  N   UNL     1       1.997  11.585  17.994  0.00  0.00    +0.000 N 
ATOM     25  C   UNL     1       2.033  10.226  17.861  0.00  0.00    +0.000 A 
ATOM     26  C   UNL     1       1.385   9.661  18.945  0.00  0.00    +0.000 A 
ATOM     27  C   UNL     1       0.939  10.748  19.769  0.00  0.00    +0.000 A 
ATOM     28  C   UNL     1       0.227  10.844  20.985  0.00  0.00    +0.000 A 
ATOM     29  H   UNL     1       2.390  12.247  17.338  0.00  0.00    +0.000 HD
BRANCH  20  31
ATOM     30  C   UNL     1      -1.210  10.791  23.138  0.00  0.00    +0.000 C 
ATOM     31  O   UNL     1      -0.773  12.076  22.705  0.00  0.00    +0.000 OA
ENDBRANCH  20  31
ENDBRANCH  19  26
ENDBRANCH  18  19
ENDBRANCH   1  18
TORSDOF 5
ENDMDL
MODEL 8
REMARK VINA RESULT:      -8.4      2.531      9.372
REMARK  Name = 
REMARK  6 active torsions:
REMARK  status: ('A' for Active; 'I' for Inactive)
REMARK    1  A    between atoms: C_1  and  O_2
REMARK    2  A    between atoms: O_2  and  C_3
REMARK    3  A    between atoms: C_9  and  C_10
REMARK    4  A    between atoms: C_10  and  C_11
REMARK    5  A    between atoms: C_11  and  N_12
REMARK    6  A    between atoms: C_17  and  C_18
REMARK                            x       y       z     vdW  Elec       q    Type
REMARK                         _______ _______ _______ _____ _____    ______ ____
ROOT
ATOM      1  N   UNL     1       1.425   6.351  21.237  0.00  0.00    +0.000 N 
ATOM      2  C   UNL     1       2.108   5.288  20.603  0.00  0.00    +0.000 A 
ATOM      3  C   UNL     1       1.965   4.003  21.082  0.00  0.00    +0.000 A 
ATOM      4  C   UNL     1       2.666   3.020  20.417  0.00  0.00    +0.000 A 
ATOM      5  N   UNL     1       3.446   3.252  19.346  0.00  0.00    +0.000 NA
ATOM      6  C   UNL     1       3.531   4.532  18.951  0.00  0.00    +0.000 A 
ATOM      7  N   UNL     1       2.898   5.550  19.556  0.00  0.00    +0.000 NA
ATOM      8  H   UNL     1       0.431   6.136  21.246  0.00  0.00    +0.000 HD
ENDROOT
BRANCH   6   9
ATOM      9  C   UNL     1       4.322   4.868  17.752  0.00  0.00    +0.000 A 
ATOM     10  C   UNL     1       4.518   6.226  17.367  0.00  0.00    +0.000 A 
ATOM     11  C   UNL     1       5.232   6.580  16.217  0.00  0.00    +0.000 A 
ATOM     12  C   UNL     1       5.746   5.561  15.454  0.00  0.00    +0.000 A 
ATOM     13  C   UNL     1       5.578   4.242  15.805  0.00  0.00    +0.000 A 
ATOM     14  C   UNL     1       4.882   3.867  16.936  0.00  0.00    +0.000 A 
ATOM     15  O   UNL     1       6.159   3.393  14.914  0.00  0.00    +0.000 OA
ATOM     16  C   UNL     1       6.690   4.329  13.954  0.00  0.00    +0.000 C 
ATOM     17  O   UNL     1       6.453   5.708  14.303  0.00  0.00    +0.000 OA
ENDBRANCH   6   9
BRANCH   1  18
ATOM     18  C   UNL     1       1.708   7.643  20.585  0.00  0.00    +0.000 C 
BRANCH  18  19
ATOM     19  C   UNL     1       0.865   8.782  21.165  0.00  0.00    +0.000 C 
BRANCH  19  26
ATOM     20  C   UNL     1      -1.660  12.790  21.108  0.00  0.00    +0.000 A 
ATOM     21  C   UNL     1      -1.612  13.422  19.867  0.00  0.00    +0.000 A 
ATOM     22  C   UNL     1      -0.875  12.876  18.810  0.00  0.00    +0.000 A 
ATOM     23  C   UNL     1      -0.187  11.680  19.040  0.00  0.00    +0.000 A 
ATOM     24  N   UNL     1       0.593  10.937  18.188  0.00  0.00    +0.000 N 
ATOM     25  C   UNL     1       1.070   9.830  18.832  0.00  0.00    +0.000 A 
ATOM     26  C   UNL     1       0.603   9.842  20.134  0.00  0.00    +0.000 A 
ATOM     27  C   UNL     1      -0.198  11.025  20.272  0.00  0.00    +0.000 A 
ATOM     28  C   UNL     1      -0.945  11.600  21.323  0.00  0.00    +0.000 A 
ATOM     29  H   UNL     1       0.774  11.175  17.223  0.00  0.00    +0.000 HD
BRANCH  20  31
ATOM     30  C   UNL     1      -3.590  12.614  22.472  0.00  0.00    +0.000 C 
ATOM     31  O   UNL     1      -2.348  13.256  22.199  0.00  0.00    +0.000 OA
ENDBRANCH  20  31
ENDBRANCH  19  26
ENDBRANCH  18  19
ENDBRANCH   1  18
TORSDOF 5
ENDMDL
MODEL 9
REMARK VINA RESULT:      -8.4      2.470      9.211
REMARK  Name = 
REMARK  6 active torsions:
REMARK  status: ('A' for Active; 'I' for Inactive)
REMARK    1  A    between atoms: C_1  and  O_2
REMARK    2  A    between atoms: O_2  and  C_3
REMARK    3  A    between atoms: C_9  and  C_10
REMARK    4  A    between atoms: C_10  and  C_11
REMARK    5  A    between atoms: C_11  and  N_12
REMARK    6  A    between atoms: C_17  and  C_18
REMARK                            x       y       z     vdW  Elec       q    Type
REMARK                         _______ _______ _______ _____ _____    ______ ____
ROOT
ATOM      1  N   UNL     1       1.434   6.545  20.969  0.00  0.00    +0.000 N 
ATOM      2  C   UNL     1       2.198   5.421  20.581  0.00  0.00    +0.000 A 
ATOM      3  C   UNL     1       1.933   4.190  21.142  0.00  0.00    +0.000 A 
ATOM      4  C   UNL     1       2.723   3.143  20.719  0.00  0.00    +0.000 A 
ATOM      5  N   UNL     1       3.700   3.264  19.802  0.00  0.00    +0.000 NA
ATOM      6  C   UNL     1       3.892   4.500  19.314  0.00  0.00    +0.000 A 
ATOM      7  N   UNL     1       3.181   5.576  19.687  0.00  0.00    +0.000 NA
ATOM      8  H   UNL     1       0.451   6.339  20.806  0.00  0.00    +0.000 HD
ENDROOT
BRANCH   6   9
ATOM      9  C   UNL     1       4.907   4.714  18.264  0.00  0.00    +0.000 A 
ATOM     10  C   UNL     1       6.130   5.382  18.559  0.00  0.00    +0.000 A 
ATOM     11  C   UNL     1       7.098   5.634  17.582  0.00  0.00    +0.000 A 
ATOM     12  C   UNL     1       6.829   5.209  16.303  0.00  0.00    +0.000 A 
ATOM     13  C   UNL     1       5.661   4.555  15.991  0.00  0.00    +0.000 A 
ATOM     14  C   UNL     1       4.692   4.292  16.938  0.00  0.00    +0.000 A 
ATOM     15  O   UNL     1       5.590   4.227  14.672  0.00  0.00    +0.000 OA
ATOM     16  C   UNL     1       6.836   4.769  14.190  0.00  0.00    +0.000 C 
ATOM     17  O   UNL     1       7.639   5.373  15.224  0.00  0.00    +0.000 OA
ENDBRANCH   6   9
BRANCH   1  18
ATOM     18  C   UNL     1       1.869   7.766  20.267  0.00  0.00    +0.000 C 
BRANCH  18  19
ATOM     19  C   UNL     1       1.260   9.033  20.874  0.00  0.00    +0.000 C 
BRANCH  19  26
ATOM     20  C   UNL     1       0.273  13.663  20.676  0.00  0.00    +0.000 A 
ATOM     21  C   UNL     1      -0.233  14.038  19.433  0.00  0.00    +0.000 A 
ATOM     22  C   UNL     1      -0.397  13.098  18.409  0.00  0.00    +0.000 A 
ATOM     23  C   UNL     1      -0.033  11.773  18.672  0.00  0.00    +0.000 A 
ATOM     24  N   UNL     1      -0.097  10.667  17.862  0.00  0.00    +0.000 N 
ATOM     25  C   UNL     1       0.361   9.566  18.530  0.00  0.00    +0.000 A 
ATOM     26  C   UNL     1       0.738   9.950  19.804  0.00  0.00    +0.000 A 
ATOM     27  C   UNL     1       0.491  11.361  19.898  0.00  0.00    +0.000 A 
ATOM     28  C   UNL     1       0.651  12.331  20.911  0.00  0.00    +0.000 A 
ATOM     29  H   UNL     1      -0.443  10.671  16.912  0.00  0.00    +0.000 HD
BRANCH  20  31
ATOM     30  C   UNL     1       1.812  14.968  21.919  0.00  0.00    +0.000 C 
ATOM     31  O   UNL     1       0.474  14.516  21.730  0.00  0.00    +0.000 OA
ENDBRANCH  20  31
ENDBRANCH  19  26
ENDBRANCH  18  19
ENDBRANCH   1  18
TORSDOF 5
ENDMDL
