MODEL 1
REMARK VINA RESULT:      -7.5      0.000      0.000
REMARK  Name = 
REMARK  15 active torsions:
REMARK  status: ('A' for Active; 'I' for Inactive)
REMARK    1  A    between atoms: C_1  and  C_2
REMARK    2  A    between atoms: C_2  and  C_3
REMARK    3  A    between atoms: C_3  and  C_4
REMARK    4  A    between atoms: C_4  and  C_5
REMARK    5  A    between atoms: C_5  and  C_6
REMARK    6  A    between atoms: C_6  and  O_7
REMARK    7  A    between atoms: C_6  and  C_8
REMARK    8  A    between atoms: C_9  and  C_10
REMARK    9  A    between atoms: C_16  and  C_17
REMARK   10  A    between atoms: C_17  and  C_18
REMARK   11  A    between atoms: C_19  and  C_20
REMARK   12  A    between atoms: C_20  and  C_21
REMARK   13  A    between atoms: C_21  and  C_22
REMARK   14  A    between atoms: C_22  and  C_23
REMARK   15  A    between atoms: C_23  and  O_25
REMARK                            x       y       z     vdW  Elec       q    Type
REMARK                         _______ _______ _______ _____ _____    ______ ____
ROOT
ATOM      1  C   UNL     1       6.662   4.463  16.870  0.00  0.00    +0.000 C 
ATOM      2  C   UNL     1       7.605   5.094  17.914  0.00  0.00    +0.000 C 
ATOM      3  C   UNL     1       7.272   6.566  17.912  0.00  0.00    +0.000 C 
ATOM      4  C   UNL     1       5.814   6.283  18.182  0.00  0.00    +0.000 C 
ATOM      5  O   UNL     1       5.891   5.511  19.392  0.00  0.00    +0.000 OA
ATOM      6  O   UNL     1       7.109   4.687  19.207  0.00  0.00    +0.000 OA
ATOM      7  C   UNL     1       5.392   5.348  17.033  0.00  0.00    +0.000 C 
ENDROOT
BRANCH   1   9
ATOM      8  C   UNL     1       6.510   4.983  14.420  0.00  0.00    +0.000 C 
ATOM      9  C   UNL     1       7.206   4.498  15.462  0.00  0.00    +0.000 C 
BRANCH   8  10
ATOM     10  C   UNL     1       7.048   5.118  13.025  0.00  0.00    +0.000 C 
BRANCH  10  11
ATOM     11  O   UNL     1       8.426   5.459  13.120  0.00  0.00    +0.000 OA
ATOM     12  H   UNL     1       8.499   6.247  13.682  0.00  0.00    +0.000 HD
ENDBRANCH  10  11
BRANCH  10  13
ATOM     13  C   UNL     1       6.905   3.820  12.220  0.00  0.00    +0.000 C 
BRANCH  13  14
ATOM     14  C   UNL     1       5.622   3.052  12.552  0.00  0.00    +0.000 C 
BRANCH  14  15
ATOM     15  C   UNL     1       4.788   2.781  11.300  0.00  0.00    +0.000 C 
BRANCH  15  17
ATOM     16  C   UNL     1       3.028   3.707   9.754  0.00  0.00    +0.000 C 
ATOM     17  C   UNL     1       3.913   3.987  10.956  0.00  0.00    +0.000 C 
ENDBRANCH  15  17
ENDBRANCH  14  15
ENDBRANCH  13  14
ENDBRANCH  10  13
ENDBRANCH   8  10
ENDBRANCH   1   9
BRANCH   7  18
ATOM     18  C   UNL     1       4.157   4.491  17.335  0.00  0.00    +0.000 C 
BRANCH  18  19
ATOM     19  C   UNL     1       2.944   5.307  17.687  0.00  0.00    +0.000 C 
ATOM     20  C   UNL     1       1.722   4.819  17.953  0.00  0.00    +0.000 C 
BRANCH  20  21
ATOM     21  C   UNL     1       1.361   3.360  17.907  0.00  0.00    +0.000 C 
BRANCH  21  22
ATOM     22  C   UNL     1       1.647   2.608  19.207  0.00  0.00    +0.000 C 
BRANCH  22  23
ATOM     23  C   UNL     1       1.009   3.267  20.429  0.00  0.00    +0.000 C 
BRANCH  23  24
ATOM     24  C   UNL     1       2.037   3.607  21.481  0.00  0.00    +0.000 C 
ATOM     25  O   UNL     1       2.421   2.860  22.365  0.00  0.00    +0.000 OA
BRANCH  24  26
ATOM     26  O   UNL     1       2.507   4.870  21.344  0.00  0.00    +0.000 OA
ATOM     27  H   UNL     1       2.490   5.198  20.425  0.00  0.00    +0.000 HD
ENDBRANCH  24  26
ENDBRANCH  23  24
ENDBRANCH  22  23
ENDBRANCH  21  22
ENDBRANCH  20  21
ENDBRANCH  18  19
ENDBRANCH   7  18
TORSDOF 14
ENDMDL
MODEL 2
REMARK VINA RESULT:      -7.4      3.147      6.206
REMARK  Name = 
REMARK  15 active torsions:
REMARK  status: ('A' for Active; 'I' for Inactive)
REMARK    1  A    between atoms: C_1  and  C_2
REMARK    2  A    between atoms: C_2  and  C_3
REMARK    3  A    between atoms: C_3  and  C_4
REMARK    4  A    between atoms: C_4  and  C_5
REMARK    5  A    between atoms: C_5  and  C_6
REMARK    6  A    between atoms: C_6  and  O_7
REMARK    7  A    between atoms: C_6  and  C_8
REMARK    8  A    between atoms: C_9  and  C_10
REMARK    9  A    between atoms: C_16  and  C_17
REMARK   10  A    between atoms: C_17  and  C_18
REMARK   11  A    between atoms: C_19  and  C_20
REMARK   12  A    between atoms: C_20  and  C_21
REMARK   13  A    between atoms: C_21  and  C_22
REMARK   14  A    between atoms: C_22  and  C_23
REMARK   15  A    between atoms: C_23  and  O_25
REMARK                            x       y       z     vdW  Elec       q    Type
REMARK                         _______ _______ _______ _____ _____    ______ ____
ROOT
ATOM      1  C   UNL     1       5.556   4.980  17.988  0.00  0.00    +0.000 C 
ATOM      2  C   UNL     1       6.986   4.766  17.452  0.00  0.00    +0.000 C 
ATOM      3  C   UNL     1       6.827   4.581  15.962  0.00  0.00    +0.000 C 
ATOM      4  C   UNL     1       6.086   5.889  15.833  0.00  0.00    +0.000 C 
ATOM      5  O   UNL     1       7.030   6.812  16.400  0.00  0.00    +0.000 OA
ATOM      6  O   UNL     1       7.640   6.050  17.517  0.00  0.00    +0.000 OA
ATOM      7  C   UNL     1       4.899   5.748  16.804  0.00  0.00    +0.000 C 
ENDROOT
BRANCH   1   9
ATOM      8  C   UNL     1       3.748   3.278  17.631  0.00  0.00    +0.000 C 
ATOM      9  C   UNL     1       4.829   3.696  18.309  0.00  0.00    +0.000 C 
BRANCH   8  10
ATOM     10  C   UNL     1       3.054   1.966  17.860  0.00  0.00    +0.000 C 
BRANCH  10  11
ATOM     11  O   UNL     1       3.838   1.211  18.776  0.00  0.00    +0.000 OA
ATOM     12  H   UNL     1       4.583   0.829  18.285  0.00  0.00    +0.000 HD
ENDBRANCH  10  11
BRANCH  10  13
ATOM     13  C   UNL     1       1.644   2.150  18.437  0.00  0.00    +0.000 C 
BRANCH  13  14
ATOM     14  C   UNL     1       1.259   3.622  18.611  0.00  0.00    +0.000 C 
BRANCH  14  15
ATOM     15  C   UNL     1       0.897   3.942  20.061  0.00  0.00    +0.000 C 
BRANCH  15  17
ATOM     16  C   UNL     1       2.358   2.888  21.822  0.00  0.00    +0.000 C 
ATOM     17  C   UNL     1       2.155   4.091  20.917  0.00  0.00    +0.000 C 
ENDBRANCH  15  17
ENDBRANCH  14  15
ENDBRANCH  13  14
ENDBRANCH  10  13
ENDBRANCH   8  10
ENDBRANCH   1   9
BRANCH   7  18
ATOM     18  C   UNL     1       4.303   7.080  17.273  0.00  0.00    +0.000 C 
BRANCH  18  19
ATOM     19  C   UNL     1       3.152   6.910  18.228  0.00  0.00    +0.000 C 
ATOM     20  C   UNL     1       2.151   7.783  18.410  0.00  0.00    +0.000 C 
BRANCH  20  21
ATOM     21  C   UNL     1       2.035   9.105  17.703  0.00  0.00    +0.000 C 
BRANCH  21  22
ATOM     22  C   UNL     1       1.559  10.249  18.599  0.00  0.00    +0.000 C 
BRANCH  22  23
ATOM     23  C   UNL     1       0.307   9.896  19.402  0.00  0.00    +0.000 C 
BRANCH  23  24
ATOM     24  C   UNL     1       0.451  10.276  20.855  0.00  0.00    +0.000 C 
ATOM     25  O   UNL     1       1.161  11.168  21.289  0.00  0.00    +0.000 OA
BRANCH  24  26
ATOM     26  O   UNL     1      -0.311   9.500  21.662  0.00  0.00    +0.000 OA
ATOM     27  H   UNL     1      -0.663   8.703  21.223  0.00  0.00    +0.000 HD
ENDBRANCH  24  26
ENDBRANCH  23  24
ENDBRANCH  22  23
ENDBRANCH  21  22
ENDBRANCH  20  21
ENDBRANCH  18  19
ENDBRANCH   7  18
TORSDOF 14
ENDMDL
MODEL 3
REMARK VINA RESULT:      -7.3      3.176      6.155
REMARK  Name = 
REMARK  15 active torsions:
REMARK  status: ('A' for Active; 'I' for Inactive)
REMARK    1  A    between atoms: C_1  and  C_2
REMARK    2  A    between atoms: C_2  and  C_3
REMARK    3  A    between atoms: C_3  and  C_4
REMARK    4  A    between atoms: C_4  and  C_5
REMARK    5  A    between atoms: C_5  and  C_6
REMARK    6  A    between atoms: C_6  and  O_7
REMARK    7  A    between atoms: C_6  and  C_8
REMARK    8  A    between atoms: C_9  and  C_10
REMARK    9  A    between atoms: C_16  and  C_17
REMARK   10  A    between atoms: C_17  and  C_18
REMARK   11  A    between atoms: C_19  and  C_20
REMARK   12  A    between atoms: C_20  and  C_21
REMARK   13  A    between atoms: C_21  and  C_22
REMARK   14  A    between atoms: C_22  and  C_23
REMARK   15  A    between atoms: C_23  and  O_25
REMARK                            x       y       z     vdW  Elec       q    Type
REMARK                         _______ _______ _______ _____ _____    ______ ____
ROOT
ATOM      1  C   UNL     1       5.130   4.949  17.753  0.00  0.00    +0.000 C 
ATOM      2  C   UNL     1       6.345   4.783  16.818  0.00  0.00    +0.000 C 
ATOM      3  C   UNL     1       5.801   4.979  15.423  0.00  0.00    +0.000 C 
ATOM      4  C   UNL     1       5.220   6.323  15.790  0.00  0.00    +0.000 C 
ATOM      5  O   UNL     1       6.382   7.018  16.270  0.00  0.00    +0.000 OA
ATOM      6  O   UNL     1       7.149   5.970  16.984  0.00  0.00    +0.000 OA
ATOM      7  C   UNL     1       4.301   6.023  16.990  0.00  0.00    +0.000 C 
ENDROOT
BRANCH   1   9
ATOM      8  C   UNL     1       3.066   3.530  17.603  0.00  0.00    +0.000 C 
ATOM      9  C   UNL     1       4.351   3.673  17.967  0.00  0.00    +0.000 C 
BRANCH   8  10
ATOM     10  C   UNL     1       2.286   2.251  17.717  0.00  0.00    +0.000 C 
BRANCH  10  11
ATOM     11  O   UNL     1       3.187   1.224  18.114  0.00  0.00    +0.000 OA
ATOM     12  H   UNL     1       3.113   1.120  19.076  0.00  0.00    +0.000 HD
ENDBRANCH  10  11
BRANCH  10  13
ATOM     13  C   UNL     1       1.154   2.353  18.747  0.00  0.00    +0.000 C 
BRANCH  13  14
ATOM     14  C   UNL     1       1.582   1.910  20.149  0.00  0.00    +0.000 C 
BRANCH  14  15
ATOM     15  C   UNL     1       1.333   3.005  21.186  0.00  0.00    +0.000 C 
BRANCH  15  17
ATOM     16  C   UNL     1       2.289   5.286  20.711  0.00  0.00    +0.000 C 
ATOM     17  C   UNL     1       1.105   4.356  20.509  0.00  0.00    +0.000 C 
ENDBRANCH  15  17
ENDBRANCH  14  15
ENDBRANCH  13  14
ENDBRANCH  10  13
ENDBRANCH   8  10
ENDBRANCH   1   9
BRANCH   7  18
ATOM     18  C   UNL     1       4.010   7.234  17.883  0.00  0.00    +0.000 C 
BRANCH  18  19
ATOM     19  C   UNL     1       2.882   8.088  17.372  0.00  0.00    +0.000 C 
ATOM     20  C   UNL     1       1.896   8.609  18.117  0.00  0.00    +0.000 C 
BRANCH  20  21
ATOM     21  C   UNL     1       1.741   8.392  19.597  0.00  0.00    +0.000 C 
BRANCH  21  22
ATOM     22  C   UNL     1       0.607   9.202  20.228  0.00  0.00    +0.000 C 
BRANCH  22  23
ATOM     23  C   UNL     1       0.146   8.634  21.570  0.00  0.00    +0.000 C 
BRANCH  23  24
ATOM     24  C   UNL     1       0.650   9.459  22.728  0.00  0.00    +0.000 C 
ATOM     25  O   UNL     1      -0.036  10.159  23.454  0.00  0.00    +0.000 OA
BRANCH  24  26
ATOM     26  O   UNL     1       1.991   9.346  22.888  0.00  0.00    +0.000 OA
ATOM     27  H   UNL     1       2.457  10.202  22.916  0.00  0.00    +0.000 HD
ENDBRANCH  24  26
ENDBRANCH  23  24
ENDBRANCH  22  23
ENDBRANCH  21  22
ENDBRANCH  20  21
ENDBRANCH  18  19
ENDBRANCH   7  18
TORSDOF 14
ENDMDL
MODEL 4
REMARK VINA RESULT:      -7.2      1.261      1.569
REMARK  Name = 
REMARK  15 active torsions:
REMARK  status: ('A' for Active; 'I' for Inactive)
REMARK    1  A    between atoms: C_1  and  C_2
REMARK    2  A    between atoms: C_2  and  C_3
REMARK    3  A    between atoms: C_3  and  C_4
REMARK    4  A    between atoms: C_4  and  C_5
REMARK    5  A    between atoms: C_5  and  C_6
REMARK    6  A    between atoms: C_6  and  O_7
REMARK    7  A    between atoms: C_6  and  C_8
REMARK    8  A    between atoms: C_9  and  C_10
REMARK    9  A    between atoms: C_16  and  C_17
REMARK   10  A    between atoms: C_17  and  C_18
REMARK   11  A    between atoms: C_19  and  C_20
REMARK   12  A    between atoms: C_20  and  C_21
REMARK   13  A    between atoms: C_21  and  C_22
REMARK   14  A    between atoms: C_22  and  C_23
REMARK   15  A    between atoms: C_23  and  O_25
REMARK                            x       y       z     vdW  Elec       q    Type
REMARK                         _______ _______ _______ _____ _____    ______ ____
ROOT
ATOM      1  C   UNL     1       6.230   4.287  16.065  0.00  0.00    +0.000 C 
ATOM      2  C   UNL     1       7.426   4.819  16.881  0.00  0.00    +0.000 C 
ATOM      3  C   UNL     1       7.211   6.311  16.972  0.00  0.00    +0.000 C 
ATOM      4  C   UNL     1       5.832   6.122  17.557  0.00  0.00    +0.000 C 
ATOM      5  O   UNL     1       6.116   5.310  18.709  0.00  0.00    +0.000 OA
ATOM      6  O   UNL     1       7.199   4.409  18.246  0.00  0.00    +0.000 OA
ATOM      7  C   UNL     1       5.097   5.253  16.518  0.00  0.00    +0.000 C 
ENDROOT
BRANCH   1   9
ATOM      8  C   UNL     1       5.992   3.375  13.739  0.00  0.00    +0.000 C 
ATOM      9  C   UNL     1       6.449   4.326  14.571  0.00  0.00    +0.000 C 
BRANCH   8  10
ATOM     10  C   UNL     1       6.111   3.425  12.243  0.00  0.00    +0.000 C 
BRANCH  10  11
ATOM     11  O   UNL     1       6.298   2.094  11.776  0.00  0.00    +0.000 OA
ATOM     12  H   UNL     1       5.421   1.693  11.661  0.00  0.00    +0.000 HD
ENDBRANCH  10  11
BRANCH  10  13
ATOM     13  C   UNL     1       4.861   4.020  11.581  0.00  0.00    +0.000 C 
BRANCH  13  14
ATOM     14  C   UNL     1       3.749   2.987  11.373  0.00  0.00    +0.000 C 
BRANCH  14  15
ATOM     15  C   UNL     1       3.089   3.139  10.004  0.00  0.00    +0.000 C 
BRANCH  15  17
ATOM     16  C   UNL     1       1.946   5.113   8.934  0.00  0.00    +0.000 C 
ATOM     17  C   UNL     1       3.255   4.563   9.473  0.00  0.00    +0.000 C 
ENDBRANCH  15  17
ENDBRANCH  14  15
ENDBRANCH  13  14
ENDBRANCH  10  13
ENDBRANCH   8  10
ENDBRANCH   1   9
BRANCH   7  18
ATOM     18  C   UNL     1       3.899   4.476  17.076  0.00  0.00    +0.000 C 
BRANCH  18  19
ATOM     19  C   UNL     1       2.958   5.335  17.875  0.00  0.00    +0.000 C 
ATOM     20  C   UNL     1       1.739   4.972  18.302  0.00  0.00    +0.000 C 
BRANCH  20  21
ATOM     21  C   UNL     1       1.098   3.642  18.017  0.00  0.00    +0.000 C 
BRANCH  21  22
ATOM     22  C   UNL     1       1.735   2.473  18.768  0.00  0.00    +0.000 C 
BRANCH  22  23
ATOM     23  C   UNL     1       1.384   2.457  20.256  0.00  0.00    +0.000 C 
BRANCH  23  24
ATOM     24  C   UNL     1       2.570   2.825  21.113  0.00  0.00    +0.000 C 
ATOM     25  O   UNL     1       3.711   2.426  20.955  0.00  0.00    +0.000 OA
BRANCH  24  26
ATOM     26  O   UNL     1       2.230   3.670  22.116  0.00  0.00    +0.000 OA
ATOM     27  H   UNL     1       2.410   4.608  21.917  0.00  0.00    +0.000 HD
ENDBRANCH  24  26
ENDBRANCH  23  24
ENDBRANCH  22  23
ENDBRANCH  21  22
ENDBRANCH  20  21
ENDBRANCH  18  19
ENDBRANCH   7  18
TORSDOF 14
ENDMDL
MODEL 5
REMARK VINA RESULT:      -7.2      3.133      6.049
REMARK  Name = 
REMARK  15 active torsions:
REMARK  status: ('A' for Active; 'I' for Inactive)
REMARK    1  A    between atoms: C_1  and  C_2
REMARK    2  A    between atoms: C_2  and  C_3
REMARK    3  A    between atoms: C_3  and  C_4
REMARK    4  A    between atoms: C_4  and  C_5
REMARK    5  A    between atoms: C_5  and  C_6
REMARK    6  A    between atoms: C_6  and  O_7
REMARK    7  A    between atoms: C_6  and  C_8
REMARK    8  A    between atoms: C_9  and  C_10
REMARK    9  A    between atoms: C_16  and  C_17
REMARK   10  A    between atoms: C_17  and  C_18
REMARK   11  A    between atoms: C_19  and  C_20
REMARK   12  A    between atoms: C_20  and  C_21
REMARK   13  A    between atoms: C_21  and  C_22
REMARK   14  A    between atoms: C_22  and  C_23
REMARK   15  A    between atoms: C_23  and  O_25
REMARK                            x       y       z     vdW  Elec       q    Type
REMARK                         _______ _______ _______ _____ _____    ______ ____
ROOT
ATOM      1  C   UNL     1       5.329   6.102  16.749  0.00  0.00    +0.000 C 
ATOM      2  C   UNL     1       6.758   6.672  16.839  0.00  0.00    +0.000 C 
ATOM      3  C   UNL     1       7.252   6.290  18.213  0.00  0.00    +0.000 C 
ATOM      4  C   UNL     1       6.961   4.831  17.962  0.00  0.00    +0.000 C 
ATOM      5  O   UNL     1       7.727   4.586  16.770  0.00  0.00    +0.000 OA
ATOM      6  O   UNL     1       7.581   5.840  15.994  0.00  0.00    +0.000 OA
ATOM      7  C   UNL     1       5.465   4.801  17.594  0.00  0.00    +0.000 C 
ENDROOT
BRANCH   1   9
ATOM      8  C   UNL     1       3.208   6.596  17.995  0.00  0.00    +0.000 C 
ATOM      9  C   UNL     1       4.270   7.029  17.296  0.00  0.00    +0.000 C 
BRANCH   8  10
ATOM     10  C   UNL     1       2.184   7.492  18.631  0.00  0.00    +0.000 C 
BRANCH  10  11
ATOM     11  O   UNL     1       2.443   7.528  20.029  0.00  0.00    +0.000 OA
ATOM     12  H   UNL     1       2.424   8.456  20.312  0.00  0.00    +0.000 HD
ENDBRANCH  10  11
BRANCH  10  13
ATOM     13  C   UNL     1       2.237   8.920  18.073  0.00  0.00    +0.000 C 
BRANCH  13  14
ATOM     14  C   UNL     1       0.858   9.584  18.005  0.00  0.00    +0.000 C 
BRANCH  14  15
ATOM     15  C   UNL     1       0.646  10.563  19.159  0.00  0.00    +0.000 C 
BRANCH  15  17
ATOM     16  C   UNL     1      -0.084  10.156  21.535  0.00  0.00    +0.000 C 
ATOM     17  C   UNL     1      -0.486  10.093  20.072  0.00  0.00    +0.000 C 
ENDBRANCH  15  17
ENDBRANCH  14  15
ENDBRANCH  13  14
ENDBRANCH  10  13
ENDBRANCH   8  10
ENDBRANCH   1   9
BRANCH   7  18
ATOM     18  C   UNL     1       5.035   3.571  16.787  0.00  0.00    +0.000 C 
BRANCH  18  19
ATOM     19  C   UNL     1       3.548   3.343  16.805  0.00  0.00    +0.000 C 
ATOM     20  C   UNL     1       2.882   2.598  17.700  0.00  0.00    +0.000 C 
BRANCH  20  21
ATOM     21  C   UNL     1       3.528   1.835  18.822  0.00  0.00    +0.000 C 
BRANCH  21  22
ATOM     22  C   UNL     1       3.751   2.664  20.088  0.00  0.00    +0.000 C 
BRANCH  22  23
ATOM     23  C   UNL     1       2.510   2.740  20.977  0.00  0.00    +0.000 C 
BRANCH  23  24
ATOM     24  C   UNL     1       1.800   4.064  20.831  0.00  0.00    +0.000 C 
ATOM     25  O   UNL     1       0.721   4.236  20.289  0.00  0.00    +0.000 OA
BRANCH  24  26
ATOM     26  O   UNL     1       2.506   5.083  21.378  0.00  0.00    +0.000 OA
ATOM     27  H   UNL     1       3.466   5.027  21.216  0.00  0.00    +0.000 HD
ENDBRANCH  24  26
ENDBRANCH  23  24
ENDBRANCH  22  23
ENDBRANCH  21  22
ENDBRANCH  20  21
ENDBRANCH  18  19
ENDBRANCH   7  18
TORSDOF 14
ENDMDL
MODEL 6
REMARK VINA RESULT:      -7.2      3.158      6.297
REMARK  Name = 
REMARK  15 active torsions:
REMARK  status: ('A' for Active; 'I' for Inactive)
REMARK    1  A    between atoms: C_1  and  C_2
REMARK    2  A    between atoms: C_2  and  C_3
REMARK    3  A    between atoms: C_3  and  C_4
REMARK    4  A    between atoms: C_4  and  C_5
REMARK    5  A    between atoms: C_5  and  C_6
REMARK    6  A    between atoms: C_6  and  O_7
REMARK    7  A    between atoms: C_6  and  C_8
REMARK    8  A    between atoms: C_9  and  C_10
REMARK    9  A    between atoms: C_16  and  C_17
REMARK   10  A    between atoms: C_17  and  C_18
REMARK   11  A    between atoms: C_19  and  C_20
REMARK   12  A    between atoms: C_20  and  C_21
REMARK   13  A    between atoms: C_21  and  C_22
REMARK   14  A    between atoms: C_22  and  C_23
REMARK   15  A    between atoms: C_23  and  O_25
REMARK                            x       y       z     vdW  Elec       q    Type
REMARK                         _______ _______ _______ _____ _____    ______ ____
ROOT
ATOM      1  C   UNL     1       5.635   4.864  17.977  0.00  0.00    +0.000 C 
ATOM      2  C   UNL     1       7.011   4.616  17.328  0.00  0.00    +0.000 C 
ATOM      3  C   UNL     1       6.711   4.216  15.903  0.00  0.00    +0.000 C 
ATOM      4  C   UNL     1       5.905   5.471  15.673  0.00  0.00    +0.000 C 
ATOM      5  O   UNL     1       6.861   6.492  16.003  0.00  0.00    +0.000 OA
ATOM      6  O   UNL     1       7.613   5.914  17.143  0.00  0.00    +0.000 OA
ATOM      7  C   UNL     1       4.829   5.437  16.775  0.00  0.00    +0.000 C 
ENDROOT
BRANCH   1   9
ATOM      8  C   UNL     1       4.700   3.482  19.851  0.00  0.00    +0.000 C 
ATOM      9  C   UNL     1       5.000   3.619  18.549  0.00  0.00    +0.000 C 
BRANCH   8  10
ATOM     10  C   UNL     1       3.987   2.300  20.441  0.00  0.00    +0.000 C 
BRANCH  10  11
ATOM     11  O   UNL     1       4.882   1.653  21.339  0.00  0.00    +0.000 OA
ATOM     12  H   UNL     1       5.093   0.780  20.971  0.00  0.00    +0.000 HD
ENDBRANCH  10  11
BRANCH  10  13
ATOM     13  C   UNL     1       2.719   2.707  21.202  0.00  0.00    +0.000 C 
BRANCH  13  14
ATOM     14  C   UNL     1       2.420   4.206  21.102  0.00  0.00    +0.000 C 
BRANCH  14  15
ATOM     15  C   UNL     1       1.158   4.476  20.284  0.00  0.00    +0.000 C 
BRANCH  15  17
ATOM     16  C   UNL     1       1.387   3.870  17.849  0.00  0.00    +0.000 C 
ATOM     17  C   UNL     1       0.953   3.393  19.225  0.00  0.00    +0.000 C 
ENDBRANCH  15  17
ENDBRANCH  14  15
ENDBRANCH  13  14
ENDBRANCH  10  13
ENDBRANCH   8  10
ENDBRANCH   1   9
BRANCH   7  18
ATOM     18  C   UNL     1       4.227   6.805  17.115  0.00  0.00    +0.000 C 
BRANCH  18  19
ATOM     19  C   UNL     1       3.348   6.777  18.335  0.00  0.00    +0.000 C 
ATOM     20  C   UNL     1       2.350   7.633  18.601  0.00  0.00    +0.000 C 
BRANCH  20  21
ATOM     21  C   UNL     1       1.967   8.792  17.724  0.00  0.00    +0.000 C 
BRANCH  21  22
ATOM     22  C   UNL     1       0.772   9.594  18.240  0.00  0.00    +0.000 C 
BRANCH  22  23
ATOM     23  C   UNL     1       1.182  10.763  19.137  0.00  0.00    +0.000 C 
BRANCH  23  24
ATOM     24  C   UNL     1       0.730  10.556  20.562  0.00  0.00    +0.000 C 
ATOM     25  O   UNL     1       1.009  11.277  21.506  0.00  0.00    +0.000 OA
BRANCH  24  26
ATOM     26  O   UNL     1      -0.039   9.450  20.698  0.00  0.00    +0.000 OA
ATOM     27  H   UNL     1      -0.866   9.481  20.181  0.00  0.00    +0.000 HD
ENDBRANCH  24  26
ENDBRANCH  23  24
ENDBRANCH  22  23
ENDBRANCH  21  22
ENDBRANCH  20  21
ENDBRANCH  18  19
ENDBRANCH   7  18
TORSDOF 14
ENDMDL
MODEL 7
REMARK VINA RESULT:      -7.2      2.857      6.435
REMARK  Name = 
REMARK  15 active torsions:
REMARK  status: ('A' for Active; 'I' for Inactive)
REMARK    1  A    between atoms: C_1  and  C_2
REMARK    2  A    between atoms: C_2  and  C_3
REMARK    3  A    between atoms: C_3  and  C_4
REMARK    4  A    between atoms: C_4  and  C_5
REMARK    5  A    between atoms: C_5  and  C_6
REMARK    6  A    between atoms: C_6  and  O_7
REMARK    7  A    between atoms: C_6  and  C_8
REMARK    8  A    between atoms: C_9  and  C_10
REMARK    9  A    between atoms: C_16  and  C_17
REMARK   10  A    between atoms: C_17  and  C_18
REMARK   11  A    between atoms: C_19  and  C_20
REMARK   12  A    between atoms: C_20  and  C_21
REMARK   13  A    between atoms: C_21  and  C_22
REMARK   14  A    between atoms: C_22  and  C_23
REMARK   15  A    between atoms: C_23  and  O_25
REMARK                            x       y       z     vdW  Elec       q    Type
REMARK                         _______ _______ _______ _____ _____    ______ ____
ROOT
ATOM      1  C   UNL     1       5.389   4.286  16.457  0.00  0.00    +0.000 C 
ATOM      2  C   UNL     1       6.585   3.645  15.724  0.00  0.00    +0.000 C 
ATOM      3  C   UNL     1       6.382   3.980  14.266  0.00  0.00    +0.000 C 
ATOM      4  C   UNL     1       6.298   5.456  14.571  0.00  0.00    +0.000 C 
ATOM      5  O   UNL     1       7.545   5.682  15.249  0.00  0.00    +0.000 OA
ATOM      6  O   UNL     1       7.738   4.448  16.049  0.00  0.00    +0.000 OA
ATOM      7  C   UNL     1       5.156   5.565  15.600  0.00  0.00    +0.000 C 
ENDROOT
BRANCH   1   9
ATOM      8  C   UNL     1       3.580   3.032  17.661  0.00  0.00    +0.000 C 
ATOM      9  C   UNL     1       4.165   3.404  16.510  0.00  0.00    +0.000 C 
BRANCH   8  10
ATOM     10  C   UNL     1       2.312   2.232  17.752  0.00  0.00    +0.000 C 
BRANCH  10  11
ATOM     11  O   UNL     1       2.515   1.200  18.709  0.00  0.00    +0.000 OA
ATOM     12  H   UNL     1       1.693   1.099  19.216  0.00  0.00    +0.000 HD
ENDBRANCH  10  11
BRANCH  10  13
ATOM     13  C   UNL     1       1.115   3.090  18.182  0.00  0.00    +0.000 C 
BRANCH  13  14
ATOM     14  C   UNL     1       0.828   3.000  19.684  0.00  0.00    +0.000 C 
BRANCH  14  15
ATOM     15  C   UNL     1       1.088   4.331  20.389  0.00  0.00    +0.000 C 
BRANCH  15  17
ATOM     16  C   UNL     1       2.502   2.738  21.734  0.00  0.00    +0.000 C 
ATOM     17  C   UNL     1       2.215   4.195  21.413  0.00  0.00    +0.000 C 
ENDBRANCH  15  17
ENDBRANCH  14  15
ENDBRANCH  13  14
ENDBRANCH  10  13
ENDBRANCH   8  10
ENDBRANCH   1   9
BRANCH   7  18
ATOM     18  C   UNL     1       5.204   6.828  16.467  0.00  0.00    +0.000 C 
BRANCH  18  19
ATOM     19  C   UNL     1       5.158   6.534  17.942  0.00  0.00    +0.000 C 
ATOM     20  C   UNL     1       4.051   6.500  18.699  0.00  0.00    +0.000 C 
BRANCH  20  21
ATOM     21  C   UNL     1       2.664   6.787  18.193  0.00  0.00    +0.000 C 
BRANCH  21  22
ATOM     22  C   UNL     1       2.002   7.999  18.849  0.00  0.00    +0.000 C 
BRANCH  22  23
ATOM     23  C   UNL     1       1.957   9.222  17.933  0.00  0.00    +0.000 C 
BRANCH  23  24
ATOM     24  C   UNL     1       0.892  10.201  18.362  0.00  0.00    +0.000 C 
ATOM     25  O   UNL     1      -0.307  10.070  18.181  0.00  0.00    +0.000 OA
BRANCH  24  26
ATOM     26  O   UNL     1       1.417  11.282  18.987  0.00  0.00    +0.000 OA
ATOM     27  H   UNL     1       1.155  12.132  18.587  0.00  0.00    +0.000 HD
ENDBRANCH  24  26
ENDBRANCH  23  24
ENDBRANCH  22  23
ENDBRANCH  21  22
ENDBRANCH  20  21
ENDBRANCH  18  19
ENDBRANCH   7  18
TORSDOF 14
ENDMDL
MODEL 8
REMARK VINA RESULT:      -7.1      3.106      5.874
REMARK  Name = 
REMARK  15 active torsions:
REMARK  status: ('A' for Active; 'I' for Inactive)
REMARK    1  A    between atoms: C_1  and  C_2
REMARK    2  A    between atoms: C_2  and  C_3
REMARK    3  A    between atoms: C_3  and  C_4
REMARK    4  A    between atoms: C_4  and  C_5
REMARK    5  A    between atoms: C_5  and  C_6
REMARK    6  A    between atoms: C_6  and  O_7
REMARK    7  A    between atoms: C_6  and  C_8
REMARK    8  A    between atoms: C_9  and  C_10
REMARK    9  A    between atoms: C_16  and  C_17
REMARK   10  A    between atoms: C_17  and  C_18
REMARK   11  A    between atoms: C_19  and  C_20
REMARK   12  A    between atoms: C_20  and  C_21
REMARK   13  A    between atoms: C_21  and  C_22
REMARK   14  A    between atoms: C_22  and  C_23
REMARK   15  A    between atoms: C_23  and  O_25
REMARK                            x       y       z     vdW  Elec       q    Type
REMARK                         _______ _______ _______ _____ _____    ______ ____
ROOT
ATOM      1  C   UNL     1       5.225   6.208  16.954  0.00  0.00    +0.000 C 
ATOM      2  C   UNL     1       6.696   6.670  16.963  0.00  0.00    +0.000 C 
ATOM      3  C   UNL     1       7.261   6.166  18.270  0.00  0.00    +0.000 C 
ATOM      4  C   UNL     1       6.844   4.750  17.956  0.00  0.00    +0.000 C 
ATOM      5  O   UNL     1       7.498   4.530  16.695  0.00  0.00    +0.000 OA
ATOM      6  O   UNL     1       7.389   5.839  16.008  0.00  0.00    +0.000 OA
ATOM      7  C   UNL     1       5.326   4.850  17.706  0.00  0.00    +0.000 C 
ENDROOT
BRANCH   1   9
ATOM      8  C   UNL     1       2.946   7.041  17.591  0.00  0.00    +0.000 C 
ATOM      9  C   UNL     1       4.282   7.170  17.636  0.00  0.00    +0.000 C 
BRANCH   8  10
ATOM     10  C   UNL     1       1.980   7.922  18.330  0.00  0.00    +0.000 C 
BRANCH  10  11
ATOM     11  O   UNL     1       2.182   7.720  19.723  0.00  0.00    +0.000 OA
ATOM     12  H   UNL     1       3.139   7.691  19.883  0.00  0.00    +0.000 HD
ENDBRANCH  10  11
BRANCH  10  13
ATOM     13  C   UNL     1       2.182   9.407  18.002  0.00  0.00    +0.000 C 
BRANCH  13  14
ATOM     14  C   UNL     1       1.033  10.289  18.501  0.00  0.00    +0.000 C 
BRANCH  14  15
ATOM     15  C   UNL     1      -0.299   9.891  17.866  0.00  0.00    +0.000 C 
BRANCH  15  17
ATOM     16  C   UNL     1      -1.892  11.813  18.202  0.00  0.00    +0.000 C 
ATOM     17  C   UNL     1      -1.475  10.433  18.680  0.00  0.00    +0.000 C 
ENDBRANCH  15  17
ENDBRANCH  14  15
ENDBRANCH  13  14
ENDBRANCH  10  13
ENDBRANCH   8  10
ENDBRANCH   1   9
BRANCH   7  18
ATOM     18  C   UNL     1       4.747   3.707  16.865  0.00  0.00    +0.000 C 
BRANCH  18  19
ATOM     19  C   UNL     1       4.300   2.532  17.692  0.00  0.00    +0.000 C 
ATOM     20  C   UNL     1       3.040   2.281  18.078  0.00  0.00    +0.000 C 
BRANCH  20  21
ATOM     21  C   UNL     1       1.863   3.165  17.770  0.00  0.00    +0.000 C 
BRANCH  21  22
ATOM     22  C   UNL     1       1.592   4.231  18.832  0.00  0.00    +0.000 C 
BRANCH  22  23
ATOM     23  C   UNL     1       1.066   3.647  20.143  0.00  0.00    +0.000 C 
BRANCH  23  24
ATOM     24  C   UNL     1       1.988   3.948  21.299  0.00  0.00    +0.000 C 
ATOM     25  O   UNL     1       2.313   3.161  22.172  0.00  0.00    +0.000 OA
BRANCH  24  26
ATOM     26  O   UNL     1       2.434   5.227  21.274  0.00  0.00    +0.000 OA
ATOM     27  H   UNL     1       2.090   5.777  22.003  0.00  0.00    +0.000 HD
ENDBRANCH  24  26
ENDBRANCH  23  24
ENDBRANCH  22  23
ENDBRANCH  21  22
ENDBRANCH  20  21
ENDBRANCH  18  19
ENDBRANCH   7  18
TORSDOF 14
ENDMDL
MODEL 9
REMARK VINA RESULT:      -7.1      3.100      6.020
REMARK  Name = 
REMARK  15 active torsions:
REMARK  status: ('A' for Active; 'I' for Inactive)
REMARK    1  A    between atoms: C_1  and  C_2
REMARK    2  A    between atoms: C_2  and  C_3
REMARK    3  A    between atoms: C_3  and  C_4
REMARK    4  A    between atoms: C_4  and  C_5
REMARK    5  A    between atoms: C_5  and  C_6
REMARK    6  A    between atoms: C_6  and  O_7
REMARK    7  A    between atoms: C_6  and  C_8
REMARK    8  A    between atoms: C_9  and  C_10
REMARK    9  A    between atoms: C_16  and  C_17
REMARK   10  A    between atoms: C_17  and  C_18
REMARK   11  A    between atoms: C_19  and  C_20
REMARK   12  A    between atoms: C_20  and  C_21
REMARK   13  A    between atoms: C_21  and  C_22
REMARK   14  A    between atoms: C_22  and  C_23
REMARK   15  A    between atoms: C_23  and  O_25
REMARK                            x       y       z     vdW  Elec       q    Type
REMARK                         _______ _______ _______ _____ _____    ______ ____
ROOT
ATOM      1  C   UNL     1       5.177   6.098  17.154  0.00  0.00    +0.000 C 
ATOM      2  C   UNL     1       6.507   6.765  16.747  0.00  0.00    +0.000 C 
ATOM      3  C   UNL     1       7.315   6.845  18.020  0.00  0.00    +0.000 C 
ATOM      4  C   UNL     1       7.174   5.361  18.256  0.00  0.00    +0.000 C 
ATOM      5  O   UNL     1       7.709   4.823  17.035  0.00  0.00    +0.000 OA
ATOM      6  O   UNL     1       7.244   5.776  15.998  0.00  0.00    +0.000 OA
ATOM      7  C   UNL     1       5.652   5.122  18.269  0.00  0.00    +0.000 C 
ENDROOT
BRANCH   1   9
ATOM      8  C   UNL     1       3.019   6.688  18.291  0.00  0.00    +0.000 C 
ATOM      9  C   UNL     1       4.137   7.073  17.653  0.00  0.00    +0.000 C 
BRANCH   8  10
ATOM     10  C   UNL     1       2.009   7.629  18.881  0.00  0.00    +0.000 C 
BRANCH  10  11
ATOM     11  O   UNL     1       2.235   7.688  20.285  0.00  0.00    +0.000 OA
ATOM     12  H   UNL     1       2.390   8.617  20.522  0.00  0.00    +0.000 HD
ENDBRANCH  10  11
BRANCH  10  13
ATOM     13  C   UNL     1       2.119   9.041  18.293  0.00  0.00    +0.000 C 
BRANCH  13  14
ATOM     14  C   UNL     1       0.756   9.652  17.950  0.00  0.00    +0.000 C 
BRANCH  14  15
ATOM     15  C   UNL     1       0.117  10.322  19.166  0.00  0.00    +0.000 C 
BRANCH  15  17
ATOM     16  C   UNL     1       0.930  12.692  18.899  0.00  0.00    +0.000 C 
ATOM     17  C   UNL     1       1.024  11.419  19.723  0.00  0.00    +0.000 C 
ENDBRANCH  15  17
ENDBRANCH  14  15
ENDBRANCH  13  14
ENDBRANCH  10  13
ENDBRANCH   8  10
ENDBRANCH   1   9
BRANCH   7  18
ATOM     18  C   UNL     1       5.235   3.681  17.957  0.00  0.00    +0.000 C 
BRANCH  18  19
ATOM     19  C   UNL     1       4.196   3.588  16.873  0.00  0.00    +0.000 C 
ATOM     20  C   UNL     1       2.944   3.131  17.025  0.00  0.00    +0.000 C 
BRANCH  20  21
ATOM     21  C   UNL     1       2.383   2.602  18.315  0.00  0.00    +0.000 C 
BRANCH  21  22
ATOM     22  C   UNL     1       1.259   3.457  18.900  0.00  0.00    +0.000 C 
BRANCH  22  23
ATOM     23  C   UNL     1       0.958   3.126  20.362  0.00  0.00    +0.000 C 
BRANCH  23  24
ATOM     24  C   UNL     1       1.980   3.733  21.293  0.00  0.00    +0.000 C 
ATOM     25  O   UNL     1       2.325   4.903  21.303  0.00  0.00    +0.000 OA
BRANCH  24  26
ATOM     26  O   UNL     1       2.499   2.817  22.146  0.00  0.00    +0.000 OA
ATOM     27  H   UNL     1       3.276   3.137  22.640  0.00  0.00    +0.000 HD
ENDBRANCH  24  26
ENDBRANCH  23  24
ENDBRANCH  22  23
ENDBRANCH  21  22
ENDBRANCH  20  21
ENDBRANCH  18  19
ENDBRANCH   7  18
TORSDOF 14
ENDMDL
