MODEL 1
REMARK VINA RESULT:      -7.7      0.000      0.000
REMARK  Name = 
REMARK  12 active torsions:
REMARK  status: ('A' for Active; 'I' for Inactive)
REMARK    1  A    between atoms: C_1  and  C_2
REMARK    2  A    between atoms: C_2  and  O_3
REMARK    3  A    between atoms: O_3  and  C_4
REMARK    4  A    between atoms: C_9  and  C_10
REMARK    5  A    between atoms: C_10  and  C_11
REMARK    6  A    between atoms: C_10  and  C_12
REMARK    7  A    between atoms: C_14  and  O_15
REMARK    8  A    between atoms: O_15  and  C_16
REMARK    9  A    between atoms: C_17  and  O_18
REMARK   10  A    between atoms: O_18  and  C_19
REMARK   11  A    between atoms: C_20  and  O_21
REMARK   12  A    between atoms: O_21  and  C_22
REMARK                            x       y       z     vdW  Elec       q    Type
REMARK                         _______ _______ _______ _____ _____    ______ ____
ROOT
ATOM      1  C   UNL     1       3.652   4.424  17.753  0.00  0.00    +0.000 C 
ATOM      2  C   UNL     1       2.579   3.518  17.118  0.00  0.00    +0.000 C 
ENDROOT
BRANCH   1   8
ATOM      3  C   UNL     1       2.716   5.720  19.784  0.00  0.00    +0.000 A 
ATOM      4  C   UNL     1       2.049   6.839  20.318  0.00  0.00    +0.000 A 
ATOM      5  C   UNL     1       1.827   7.921  19.499  0.00  0.00    +0.000 A 
ATOM      6  C   UNL     1       2.179   7.909  18.179  0.00  0.00    +0.000 A 
ATOM      7  C   UNL     1       2.743   6.798  17.597  0.00  0.00    +0.000 A 
ATOM      8  C   UNL     1       3.036   5.671  18.396  0.00  0.00    +0.000 A 
ATOM      9  O   UNL     1       1.898   9.079  17.551  0.00  0.00    +0.000 OA
ATOM     10  C   UNL     1       1.358   9.846  18.646  0.00  0.00    +0.000 C 
ATOM     11  O   UNL     1       1.262   9.097  19.877  0.00  0.00    +0.000 OA
BRANCH   3  12
ATOM     12  O   UNL     1       3.068   4.639  20.560  0.00  0.00    +0.000 OA
BRANCH  12  14
ATOM     13  C   UNL     1       1.050   3.318  20.550  0.00  0.00    +0.000 C 
ATOM     14  C   UNL     1       2.022   4.119  21.394  0.00  0.00    +0.000 C 
ENDBRANCH  12  14
ENDBRANCH   3  12
ENDBRANCH   1   8
BRANCH   1  15
ATOM     15  C   UNL     1       4.769   4.684  16.738  0.00  0.00    +0.000 A 
ATOM     16  C   UNL     1       5.746   5.642  17.033  0.00  0.00    +0.000 A 
ATOM     17  C   UNL     1       6.868   5.813  16.209  0.00  0.00    +0.000 A 
ATOM     18  C   UNL     1       7.007   5.048  15.031  0.00  0.00    +0.000 A 
ATOM     19  C   UNL     1       6.008   4.116  14.691  0.00  0.00    +0.000 A 
ATOM     20  C   UNL     1       4.921   3.935  15.561  0.00  0.00    +0.000 A 
BRANCH  17  21
ATOM     21  O   UNL     1       7.873   6.710  16.494  0.00  0.00    +0.000 OA
ATOM     22  C   UNL     1       7.588   7.664  17.511  0.00  0.00    +0.000 C 
ENDBRANCH  17  21
BRANCH  18  23
ATOM     23  O   UNL     1       8.130   5.321  14.282  0.00  0.00    +0.000 OA
ATOM     24  C   UNL     1       7.938   5.561  12.893  0.00  0.00    +0.000 C 
ENDBRANCH  18  23
BRANCH  19  25
ATOM     25  O   UNL     1       6.148   3.419  13.518  0.00  0.00    +0.000 OA
ATOM     26  C   UNL     1       5.079   3.444  12.581  0.00  0.00    +0.000 C 
ENDBRANCH  19  25
ENDBRANCH   1  15
TORSDOF 7
ENDMDL
MODEL 2
REMARK VINA RESULT:      -7.4      0.464      2.553
REMARK  Name = 
REMARK  12 active torsions:
REMARK  status: ('A' for Active; 'I' for Inactive)
REMARK    1  A    between atoms: C_1  and  C_2
REMARK    2  A    between atoms: C_2  and  O_3
REMARK    3  A    between atoms: O_3  and  C_4
REMARK    4  A    between atoms: C_9  and  C_10
REMARK    5  A    between atoms: C_10  and  C_11
REMARK    6  A    between atoms: C_10  and  C_12
REMARK    7  A    between atoms: C_14  and  O_15
REMARK    8  A    between atoms: O_15  and  C_16
REMARK    9  A    between atoms: C_17  and  O_18
REMARK   10  A    between atoms: O_18  and  C_19
REMARK   11  A    between atoms: C_20  and  O_21
REMARK   12  A    between atoms: O_21  and  C_22
REMARK                            x       y       z     vdW  Elec       q    Type
REMARK                         _______ _______ _______ _____ _____    ______ ____
ROOT
ATOM      1  C   UNL     1       3.550   4.618  17.925  0.00  0.00    +0.000 C 
ATOM      2  C   UNL     1       2.508   3.782  17.158  0.00  0.00    +0.000 C 
ENDROOT
BRANCH   1   8
ATOM      3  C   UNL     1       2.468   6.057  19.780  0.00  0.00    +0.000 A 
ATOM      4  C   UNL     1       1.827   7.241  20.191  0.00  0.00    +0.000 A 
ATOM      5  C   UNL     1       1.792   8.303  19.318  0.00  0.00    +0.000 A 
ATOM      6  C   UNL     1       2.305   8.214  18.054  0.00  0.00    +0.000 A 
ATOM      7  C   UNL     1       2.851   7.043  17.583  0.00  0.00    +0.000 A 
ATOM      8  C   UNL     1       2.955   5.931  18.447  0.00  0.00    +0.000 A 
ATOM      9  O   UNL     1       2.195   9.376  17.361  0.00  0.00    +0.000 OA
ATOM     10  C   UNL     1       1.581  10.222  18.355  0.00  0.00    +0.000 C 
ATOM     11  O   UNL     1       1.276   9.531  19.585  0.00  0.00    +0.000 OA
BRANCH   3  12
ATOM     12  O   UNL     1       2.637   4.985  20.627  0.00  0.00    +0.000 OA
BRANCH  12  14
ATOM     13  C   UNL     1       1.857   2.910  21.577  0.00  0.00    +0.000 C 
ATOM     14  C   UNL     1       1.478   4.159  20.806  0.00  0.00    +0.000 C 
ENDBRANCH  12  14
ENDBRANCH   3  12
ENDBRANCH   1   8
BRANCH   1  15
ATOM     15  C   UNL     1       4.820   4.755  17.080  0.00  0.00    +0.000 A 
ATOM     16  C   UNL     1       4.984   3.930  15.961  0.00  0.00    +0.000 A 
ATOM     17  C   UNL     1       6.053   4.116  15.072  0.00  0.00    +0.000 A 
ATOM     18  C   UNL     1       7.018   5.116  15.321  0.00  0.00    +0.000 A 
ATOM     19  C   UNL     1       6.896   5.922  16.468  0.00  0.00    +0.000 A 
ATOM     20  C   UNL     1       5.790   5.742  17.314  0.00  0.00    +0.000 A 
BRANCH  17  21
ATOM     21  O   UNL     1       6.219   3.356  13.936  0.00  0.00    +0.000 OA
ATOM     22  C   UNL     1       5.228   3.517  12.927  0.00  0.00    +0.000 C 
ENDBRANCH  17  21
BRANCH  18  23
ATOM     23  O   UNL     1       8.040   5.188  14.401  0.00  0.00    +0.000 OA
ATOM     24  C   UNL     1       7.735   5.776  13.141  0.00  0.00    +0.000 C 
ENDBRANCH  18  23
BRANCH  19  25
ATOM     25  O   UNL     1       7.872   6.855  16.708  0.00  0.00    +0.000 OA
ATOM     26  C   UNL     1       7.577   7.941  17.577  0.00  0.00    +0.000 C 
ENDBRANCH  19  25
ENDBRANCH   1  15
TORSDOF 7
ENDMDL
MODEL 3
REMARK VINA RESULT:      -6.9      1.883      6.784
REMARK  Name = 
REMARK  12 active torsions:
REMARK  status: ('A' for Active; 'I' for Inactive)
REMARK    1  A    between atoms: C_1  and  C_2
REMARK    2  A    between atoms: C_2  and  O_3
REMARK    3  A    between atoms: O_3  and  C_4
REMARK    4  A    between atoms: C_9  and  C_10
REMARK    5  A    between atoms: C_10  and  C_11
REMARK    6  A    between atoms: C_10  and  C_12
REMARK    7  A    between atoms: C_14  and  O_15
REMARK    8  A    between atoms: O_15  and  C_16
REMARK    9  A    between atoms: C_17  and  O_18
REMARK   10  A    between atoms: O_18  and  C_19
REMARK   11  A    between atoms: C_20  and  O_21
REMARK   12  A    between atoms: O_21  and  C_22
REMARK                            x       y       z     vdW  Elec       q    Type
REMARK                         _______ _______ _______ _____ _____    ______ ____
ROOT
ATOM      1  C   UNL     1       4.815   6.339  17.221  0.00  0.00    +0.000 C 
ATOM      2  C   UNL     1       4.036   7.564  16.708  0.00  0.00    +0.000 C 
ENDROOT
BRANCH   1   8
ATOM      3  C   UNL     1       6.913   5.406  16.035  0.00  0.00    +0.000 A 
ATOM      4  C   UNL     1       7.519   4.803  14.916  0.00  0.00    +0.000 A 
ATOM      5  C   UNL     1       6.708   4.285  13.934  0.00  0.00    +0.000 A 
ATOM      6  C   UNL     1       5.347   4.396  13.989  0.00  0.00    +0.000 A 
ATOM      7  C   UNL     1       4.724   5.064  15.018  0.00  0.00    +0.000 A 
ATOM      8  C   UNL     1       5.500   5.581  16.078  0.00  0.00    +0.000 A 
ATOM      9  O   UNL     1       4.729   3.799  12.939  0.00  0.00    +0.000 OA
ATOM     10  C   UNL     1       5.865   3.264  12.230  0.00  0.00    +0.000 C 
ATOM     11  O   UNL     1       7.130   3.614  12.830  0.00  0.00    +0.000 OA
BRANCH   3  12
ATOM     12  O   UNL     1       7.647   5.857  17.109  0.00  0.00    +0.000 OA
BRANCH  12  14
ATOM     13  C   UNL     1       7.712   5.685  19.514  0.00  0.00    +0.000 C 
ATOM     14  C   UNL     1       7.766   4.932  18.199  0.00  0.00    +0.000 C 
ENDBRANCH  12  14
ENDBRANCH   3  12
ENDBRANCH   1   8
BRANCH   1  15
ATOM     15  C   UNL     1       3.910   5.498  18.125  0.00  0.00    +0.000 A 
ATOM     16  C   UNL     1       3.180   6.133  19.137  0.00  0.00    +0.000 A 
ATOM     17  C   UNL     1       2.227   5.435  19.894  0.00  0.00    +0.000 A 
ATOM     18  C   UNL     1       2.022   4.055  19.679  0.00  0.00    +0.000 A 
ATOM     19  C   UNL     1       2.783   3.388  18.700  0.00  0.00    +0.000 A 
ATOM     20  C   UNL     1       3.695   4.125  17.927  0.00  0.00    +0.000 A 
BRANCH  17  21
ATOM     21  O   UNL     1       1.457   6.037  20.863  0.00  0.00    +0.000 OA
ATOM     22  C   UNL     1       1.461   7.461  20.867  0.00  0.00    +0.000 C 
ENDBRANCH  17  21
BRANCH  18  23
ATOM     23  O   UNL     1       1.086   3.464  20.499  0.00  0.00    +0.000 OA
ATOM     24  C   UNL     1       1.577   2.718  21.606  0.00  0.00    +0.000 C 
ENDBRANCH  18  23
BRANCH  19  25
ATOM     25  O   UNL     1       2.594   2.039  18.543  0.00  0.00    +0.000 OA
ATOM     26  C   UNL     1       3.733   1.188  18.532  0.00  0.00    +0.000 C 
ENDBRANCH  19  25
ENDBRANCH   1  15
TORSDOF 7
ENDMDL
MODEL 4
REMARK VINA RESULT:      -6.8      3.635      8.595
REMARK  Name = 
REMARK  12 active torsions:
REMARK  status: ('A' for Active; 'I' for Inactive)
REMARK    1  A    between atoms: C_1  and  C_2
REMARK    2  A    between atoms: C_2  and  O_3
REMARK    3  A    between atoms: O_3  and  C_4
REMARK    4  A    between atoms: C_9  and  C_10
REMARK    5  A    between atoms: C_10  and  C_11
REMARK    6  A    between atoms: C_10  and  C_12
REMARK    7  A    between atoms: C_14  and  O_15
REMARK    8  A    between atoms: O_15  and  C_16
REMARK    9  A    between atoms: C_17  and  O_18
REMARK   10  A    between atoms: O_18  and  C_19
REMARK   11  A    between atoms: C_20  and  O_21
REMARK   12  A    between atoms: O_21  and  C_22
REMARK                            x       y       z     vdW  Elec       q    Type
REMARK                         _______ _______ _______ _____ _____    ______ ____
ROOT
ATOM      1  C   UNL     1       1.091  10.442  19.086  0.00  0.00    +0.000 C 
ATOM      2  C   UNL     1       1.943  11.304  18.135  0.00  0.00    +0.000 C 
ENDROOT
BRANCH   1   8
ATOM      3  C   UNL     1       1.262   8.129  20.227  0.00  0.00    +0.000 A 
ATOM      4  C   UNL     1       1.830   6.843  20.305  0.00  0.00    +0.000 A 
ATOM      5  C   UNL     1       2.607   6.407  19.258  0.00  0.00    +0.000 A 
ATOM      6  C   UNL     1       2.887   7.207  18.186  0.00  0.00    +0.000 A 
ATOM      7  C   UNL     1       2.431   8.503  18.120  0.00  0.00    +0.000 A 
ATOM      8  C   UNL     1       1.592   8.995  19.145  0.00  0.00    +0.000 A 
ATOM      9  O   UNL     1       3.646   6.583  17.250  0.00  0.00    +0.000 OA
ATOM     10  C   UNL     1       3.784   5.277  17.846  0.00  0.00    +0.000 C 
ATOM     11  O   UNL     1       3.168   5.174  19.147  0.00  0.00    +0.000 OA
BRANCH   3  12
ATOM     12  O   UNL     1       0.391   8.603  21.183  0.00  0.00    +0.000 OA
BRANCH  12  14
ATOM     13  C   UNL     1      -0.058   9.580  23.342  0.00  0.00    +0.000 C 
ATOM     14  C   UNL     1       1.010   9.165  22.348  0.00  0.00    +0.000 C 
ENDBRANCH  12  14
ENDBRANCH   3  12
ENDBRANCH   1   8
BRANCH   1  15
ATOM     15  C   UNL     1      -0.392  10.617  18.746  0.00  0.00    +0.000 A 
ATOM     16  C   UNL     1      -1.166  11.494  19.515  0.00  0.00    +0.000 A 
ATOM     17  C   UNL     1      -2.487  11.802  19.156  0.00  0.00    +0.000 A 
ATOM     18  C   UNL     1      -3.078  11.189  18.030  0.00  0.00    +0.000 A 
ATOM     19  C   UNL     1      -2.331  10.266  17.275  0.00  0.00    +0.000 A 
ATOM     20  C   UNL     1      -0.996  10.014  17.633  0.00  0.00    +0.000 A 
BRANCH  17  21
ATOM     21  O   UNL     1      -3.262  12.697  19.859  0.00  0.00    +0.000 OA
ATOM     22  C   UNL     1      -2.557  13.625  20.676  0.00  0.00    +0.000 C 
ENDBRANCH  17  21
BRANCH  18  23
ATOM     23  O   UNL     1      -4.388  11.540  17.789  0.00  0.00    +0.000 OA
ATOM     24  C   UNL     1      -5.393  10.661  18.279  0.00  0.00    +0.000 C 
ENDBRANCH  18  23
BRANCH  19  25
ATOM     25  O   UNL     1      -2.945   9.652  16.213  0.00  0.00    +0.000 OA
ATOM     26  C   UNL     1      -2.904  10.288  14.942  0.00  0.00    +0.000 C 
ENDBRANCH  19  25
ENDBRANCH   1  15
TORSDOF 7
ENDMDL
MODEL 5
REMARK VINA RESULT:      -6.7      1.985      7.182
REMARK  Name = 
REMARK  12 active torsions:
REMARK  status: ('A' for Active; 'I' for Inactive)
REMARK    1  A    between atoms: C_1  and  C_2
REMARK    2  A    between atoms: C_2  and  O_3
REMARK    3  A    between atoms: O_3  and  C_4
REMARK    4  A    between atoms: C_9  and  C_10
REMARK    5  A    between atoms: C_10  and  C_11
REMARK    6  A    between atoms: C_10  and  C_12
REMARK    7  A    between atoms: C_14  and  O_15
REMARK    8  A    between atoms: O_15  and  C_16
REMARK    9  A    between atoms: C_17  and  O_18
REMARK   10  A    between atoms: O_18  and  C_19
REMARK   11  A    between atoms: C_20  and  O_21
REMARK   12  A    between atoms: O_21  and  C_22
REMARK                            x       y       z     vdW  Elec       q    Type
REMARK                         _______ _______ _______ _____ _____    ______ ____
ROOT
ATOM      1  C   UNL     1       2.051   5.753  19.630  0.00  0.00    +0.000 C 
ATOM      2  C   UNL     1       2.209   4.966  20.944  0.00  0.00    +0.000 C 
ENDROOT
BRANCH   1   8
ATOM      3  C   UNL     1       3.088   4.451  17.653  0.00  0.00    +0.000 A 
ATOM      4  C   UNL     1       4.196   4.135  16.844  0.00  0.00    +0.000 A 
ATOM      5  C   UNL     1       5.332   4.902  16.961  0.00  0.00    +0.000 A 
ATOM      6  C   UNL     1       5.427   5.912  17.877  0.00  0.00    +0.000 A 
ATOM      7  C   UNL     1       4.401   6.187  18.751  0.00  0.00    +0.000 A 
ATOM      8  C   UNL     1       3.194   5.462  18.651  0.00  0.00    +0.000 A 
ATOM      9  O   UNL     1       6.616   6.564  17.816  0.00  0.00    +0.000 OA
ATOM     10  C   UNL     1       7.248   5.864  16.725  0.00  0.00    +0.000 C 
ATOM     11  O   UNL     1       6.456   4.773  16.210  0.00  0.00    +0.000 OA
BRANCH   3  12
ATOM     12  O   UNL     1       1.882   3.800  17.526  0.00  0.00    +0.000 OA
BRANCH  12  14
ATOM     13  C   UNL     1       0.679   2.261  18.940  0.00  0.00    +0.000 C 
ATOM     14  C   UNL     1       1.862   2.451  18.011  0.00  0.00    +0.000 C 
ENDBRANCH  12  14
ENDBRANCH   3  12
ENDBRANCH   1   8
BRANCH   1  15
ATOM     15  C   UNL     1       1.807   7.232  19.944  0.00  0.00    +0.000 A 
ATOM     16  C   UNL     1       1.732   8.148  18.887  0.00  0.00    +0.000 A 
ATOM     17  C   UNL     1       1.364   9.484  19.109  0.00  0.00    +0.000 A 
ATOM     18  C   UNL     1       1.109   9.942  20.420  0.00  0.00    +0.000 A 
ATOM     19  C   UNL     1       1.229   9.047  21.499  0.00  0.00    +0.000 A 
ATOM     20  C   UNL     1       1.554   7.706  21.240  0.00  0.00    +0.000 A 
BRANCH  17  21
ATOM     21  O   UNL     1       1.233  10.400  18.089  0.00  0.00    +0.000 OA
ATOM     22  C   UNL     1       2.380  11.196  17.815  0.00  0.00    +0.000 C 
ENDBRANCH  17  21
BRANCH  18  23
ATOM     23  O   UNL     1       0.788  11.277  20.523  0.00  0.00    +0.000 OA
ATOM     24  C   UNL     1      -0.594  11.613  20.492  0.00  0.00    +0.000 C 
ENDBRANCH  18  23
BRANCH  19  25
ATOM     25  O   UNL     1       1.019   9.531  22.765  0.00  0.00    +0.000 OA
ATOM     26  C   UNL     1      -0.291   9.462  23.312  0.00  0.00    +0.000 C 
ENDBRANCH  19  25
ENDBRANCH   1  15
TORSDOF 7
ENDMDL
MODEL 6
REMARK VINA RESULT:      -6.6      3.139      7.305
REMARK  Name = 
REMARK  12 active torsions:
REMARK  status: ('A' for Active; 'I' for Inactive)
REMARK    1  A    between atoms: C_1  and  C_2
REMARK    2  A    between atoms: C_2  and  O_3
REMARK    3  A    between atoms: O_3  and  C_4
REMARK    4  A    between atoms: C_9  and  C_10
REMARK    5  A    between atoms: C_10  and  C_11
REMARK    6  A    between atoms: C_10  and  C_12
REMARK    7  A    between atoms: C_14  and  O_15
REMARK    8  A    between atoms: O_15  and  C_16
REMARK    9  A    between atoms: C_17  and  O_18
REMARK   10  A    between atoms: O_18  and  C_19
REMARK   11  A    between atoms: C_20  and  O_21
REMARK   12  A    between atoms: O_21  and  C_22
REMARK                            x       y       z     vdW  Elec       q    Type
REMARK                         _______ _______ _______ _____ _____    ______ ____
ROOT
ATOM      1  C   UNL     1       3.410   7.204  18.360  0.00  0.00    +0.000 C 
ATOM      2  C   UNL     1       3.711   7.570  16.894  0.00  0.00    +0.000 C 
ENDROOT
BRANCH   1   8
ATOM      3  C   UNL     1       4.425   4.911  18.989  0.00  0.00    +0.000 A 
ATOM      4  C   UNL     1       4.330   3.508  19.053  0.00  0.00    +0.000 A 
ATOM      5  C   UNL     1       3.109   2.924  18.808  0.00  0.00    +0.000 A 
ATOM      6  C   UNL     1       2.017   3.661  18.447  0.00  0.00    +0.000 A 
ATOM      7  C   UNL     1       2.095   5.024  18.279  0.00  0.00    +0.000 A 
ATOM      8  C   UNL     1       3.310   5.687  18.558  0.00  0.00    +0.000 A 
ATOM      9  O   UNL     1       0.905   2.901  18.275  0.00  0.00    +0.000 OA
ATOM     10  C   UNL     1       1.421   1.596  18.606  0.00  0.00    +0.000 C 
ATOM     11  O   UNL     1       2.835   1.596  18.896  0.00  0.00    +0.000 OA
BRANCH   3  12
ATOM     12  O   UNL     1       5.581   5.581  19.320  0.00  0.00    +0.000 OA
BRANCH  12  14
ATOM     13  C   UNL     1       7.550   6.513  18.286  0.00  0.00    +0.000 C 
ATOM     14  C   UNL     1       6.724   5.263  18.514  0.00  0.00    +0.000 C 
ENDBRANCH  12  14
ENDBRANCH   3  12
ENDBRANCH   1   8
BRANCH   1  15
ATOM     15  C   UNL     1       2.212   8.017  18.857  0.00  0.00    +0.000 A 
ATOM     16  C   UNL     1       1.874   7.970  20.215  0.00  0.00    +0.000 A 
ATOM     17  C   UNL     1       0.883   8.808  20.746  0.00  0.00    +0.000 A 
ATOM     18  C   UNL     1       0.168   9.686  19.903  0.00  0.00    +0.000 A 
ATOM     19  C   UNL     1       0.460   9.711  18.526  0.00  0.00    +0.000 A 
ATOM     20  C   UNL     1       1.489   8.894  18.033  0.00  0.00    +0.000 A 
BRANCH  17  21
ATOM     21  O   UNL     1       0.558   8.824  22.084  0.00  0.00    +0.000 OA
ATOM     22  C   UNL     1       1.563   9.315  22.964  0.00  0.00    +0.000 C 
ENDBRANCH  17  21
BRANCH  18  23
ATOM     23  O   UNL     1      -0.803  10.439  20.525  0.00  0.00    +0.000 OA
ATOM     24  C   UNL     1      -0.471  11.784  20.847  0.00  0.00    +0.000 C 
ENDBRANCH  18  23
BRANCH  19  25
ATOM     25  O   UNL     1      -0.281  10.541  17.724  0.00  0.00    +0.000 OA
ATOM     26  C   UNL     1      -1.547  10.090  17.262  0.00  0.00    +0.000 C 
ENDBRANCH  19  25
ENDBRANCH   1  15
TORSDOF 7
ENDMDL
MODEL 7
REMARK VINA RESULT:      -6.6      1.883      7.099
REMARK  Name = 
REMARK  12 active torsions:
REMARK  status: ('A' for Active; 'I' for Inactive)
REMARK    1  A    between atoms: C_1  and  C_2
REMARK    2  A    between atoms: C_2  and  O_3
REMARK    3  A    between atoms: O_3  and  C_4
REMARK    4  A    between atoms: C_9  and  C_10
REMARK    5  A    between atoms: C_10  and  C_11
REMARK    6  A    between atoms: C_10  and  C_12
REMARK    7  A    between atoms: C_14  and  O_15
REMARK    8  A    between atoms: O_15  and  C_16
REMARK    9  A    between atoms: C_17  and  O_18
REMARK   10  A    between atoms: O_18  and  C_19
REMARK   11  A    between atoms: C_20  and  O_21
REMARK   12  A    between atoms: O_21  and  C_22
REMARK                            x       y       z     vdW  Elec       q    Type
REMARK                         _______ _______ _______ _____ _____    ______ ____
ROOT
ATOM      1  C   UNL     1       4.843   6.348  17.254  0.00  0.00    +0.000 C 
ATOM      2  C   UNL     1       4.277   7.700  16.782  0.00  0.00    +0.000 C 
ENDROOT
BRANCH   1   8
ATOM      3  C   UNL     1       6.901   5.366  16.038  0.00  0.00    +0.000 A 
ATOM      4  C   UNL     1       7.475   4.745  14.912  0.00  0.00    +0.000 A 
ATOM      5  C   UNL     1       6.637   4.239  13.946  0.00  0.00    +0.000 A 
ATOM      6  C   UNL     1       5.279   4.379  14.024  0.00  0.00    +0.000 A 
ATOM      7  C   UNL     1       4.688   5.065  15.060  0.00  0.00    +0.000 A 
ATOM      8  C   UNL     1       5.492   5.570  16.104  0.00  0.00    +0.000 A 
ATOM      9  O   UNL     1       4.631   3.789  12.988  0.00  0.00    +0.000 OA
ATOM     10  C   UNL     1       5.743   3.228  12.262  0.00  0.00    +0.000 C 
ATOM     11  O   UNL     1       7.026   3.554  12.839  0.00  0.00    +0.000 OA
BRANCH   3  12
ATOM     12  O   UNL     1       7.663   5.807  17.096  0.00  0.00    +0.000 OA
BRANCH  12  14
ATOM     13  C   UNL     1       7.729   5.661  19.503  0.00  0.00    +0.000 C 
ATOM     14  C   UNL     1       7.766   4.893  18.197  0.00  0.00    +0.000 C 
ENDBRANCH  12  14
ENDBRANCH   3  12
ENDBRANCH   1   8
BRANCH   1  15
ATOM     15  C   UNL     1       3.771   5.591  18.044  0.00  0.00    +0.000 A 
ATOM     16  C   UNL     1       3.612   4.216  17.830  0.00  0.00    +0.000 A 
ATOM     17  C   UNL     1       2.751   3.451  18.630  0.00  0.00    +0.000 A 
ATOM     18  C   UNL     1       1.985   4.070  19.642  0.00  0.00    +0.000 A 
ATOM     19  C   UNL     1       2.094   5.459  19.838  0.00  0.00    +0.000 A 
ATOM     20  C   UNL     1       3.000   6.189  19.052  0.00  0.00    +0.000 A 
BRANCH  17  21
ATOM     21  O   UNL     1       2.606   2.090  18.480  0.00  0.00    +0.000 OA
ATOM     22  C   UNL     1       3.803   1.358  18.242  0.00  0.00    +0.000 C 
ENDBRANCH  17  21
BRANCH  18  23
ATOM     23  O   UNL     1       1.151   3.229  20.344  0.00  0.00    +0.000 OA
ATOM     24  C   UNL     1       1.634   2.727  21.585  0.00  0.00    +0.000 C 
ENDBRANCH  18  23
BRANCH  19  25
ATOM     25  O   UNL     1       1.306   6.039  20.799  0.00  0.00    +0.000 OA
ATOM     26  C   UNL     1       1.359   7.450  20.962  0.00  0.00    +0.000 C 
ENDBRANCH  19  25
ENDBRANCH   1  15
TORSDOF 7
ENDMDL
MODEL 8
REMARK VINA RESULT:      -6.4      1.194      1.335
REMARK  Name = 
REMARK  12 active torsions:
REMARK  status: ('A' for Active; 'I' for Inactive)
REMARK    1  A    between atoms: C_1  and  C_2
REMARK    2  A    between atoms: C_2  and  O_3
REMARK    3  A    between atoms: O_3  and  C_4
REMARK    4  A    between atoms: C_9  and  C_10
REMARK    5  A    between atoms: C_10  and  C_11
REMARK    6  A    between atoms: C_10  and  C_12
REMARK    7  A    between atoms: C_14  and  O_15
REMARK    8  A    between atoms: O_15  and  C_16
REMARK    9  A    between atoms: C_17  and  O_18
REMARK   10  A    between atoms: O_18  and  C_19
REMARK   11  A    between atoms: C_20  and  O_21
REMARK   12  A    between atoms: O_21  and  C_22
REMARK                            x       y       z     vdW  Elec       q    Type
REMARK                         _______ _______ _______ _____ _____    ______ ____
ROOT
ATOM      1  C   UNL     1       3.758   3.587  17.440  0.00  0.00    +0.000 C 
ATOM      2  C   UNL     1       2.696   2.825  16.625  0.00  0.00    +0.000 C 
ENDROOT
BRANCH   1   8
ATOM      3  C   UNL     1       2.516   4.238  19.611  0.00  0.00    +0.000 A 
ATOM      4  C   UNL     1       1.844   5.194  20.396  0.00  0.00    +0.000 A 
ATOM      5  C   UNL     1       1.892   6.511  20.004  0.00  0.00    +0.000 A 
ATOM      6  C   UNL     1       2.518   6.899  18.853  0.00  0.00    +0.000 A 
ATOM      7  C   UNL     1       3.101   5.981  18.010  0.00  0.00    +0.000 A 
ATOM      8  C   UNL     1       3.122   4.618  18.379  0.00  0.00    +0.000 A 
ATOM      9  O   UNL     1       2.475   8.241  18.659  0.00  0.00    +0.000 OA
ATOM     10  C   UNL     1       1.776   8.660  19.849  0.00  0.00    +0.000 C 
ATOM     11  O   UNL     1       1.358   7.560  20.683  0.00  0.00    +0.000 OA
BRANCH   3  12
ATOM     12  O   UNL     1       2.603   2.916  19.986  0.00  0.00    +0.000 OA
BRANCH  12  14
ATOM     13  C   UNL     1       4.733   1.890  20.467  0.00  0.00    +0.000 C 
ATOM     14  C   UNL     1       3.543   2.639  21.034  0.00  0.00    +0.000 C 
ENDBRANCH  12  14
ENDBRANCH   3  12
ENDBRANCH   1   8
BRANCH   1  15
ATOM     15  C   UNL     1       4.838   4.127  16.497  0.00  0.00    +0.000 A 
ATOM     16  C   UNL     1       5.714   5.115  16.962  0.00  0.00    +0.000 A 
ATOM     17  C   UNL     1       6.809   5.535  16.193  0.00  0.00    +0.000 A 
ATOM     18  C   UNL     1       7.020   4.997  14.905  0.00  0.00    +0.000 A 
ATOM     19  C   UNL     1       6.121   4.039  14.401  0.00  0.00    +0.000 A 
ATOM     20  C   UNL     1       5.061   3.606  15.214  0.00  0.00    +0.000 A 
BRANCH  17  21
ATOM     21  O   UNL     1       7.718   6.469  16.637  0.00  0.00    +0.000 OA
ATOM     22  C   UNL     1       7.218   7.442  17.547  0.00  0.00    +0.000 C 
ENDBRANCH  17  21
BRANCH  18  23
ATOM     23  O   UNL     1       8.106   5.505  14.227  0.00  0.00    +0.000 OA
ATOM     24  C   UNL     1       7.985   5.631  12.815  0.00  0.00    +0.000 C 
ENDBRANCH  18  23
BRANCH  19  25
ATOM     25  O   UNL     1       6.325   3.567  13.129  0.00  0.00    +0.000 OA
ATOM     26  C   UNL     1       5.194   3.316  12.306  0.00  0.00    +0.000 C 
ENDBRANCH  19  25
ENDBRANCH   1  15
TORSDOF 7
ENDMDL
MODEL 9
REMARK VINA RESULT:      -6.4      4.713      9.885
REMARK  Name = 
REMARK  12 active torsions:
REMARK  status: ('A' for Active; 'I' for Inactive)
REMARK    1  A    between atoms: C_1  and  C_2
REMARK    2  A    between atoms: C_2  and  O_3
REMARK    3  A    between atoms: O_3  and  C_4
REMARK    4  A    between atoms: C_9  and  C_10
REMARK    5  A    between atoms: C_10  and  C_11
REMARK    6  A    between atoms: C_10  and  C_12
REMARK    7  A    between atoms: C_14  and  O_15
REMARK    8  A    between atoms: O_15  and  C_16
REMARK    9  A    between atoms: C_17  and  O_18
REMARK   10  A    between atoms: O_18  and  C_19
REMARK   11  A    between atoms: C_20  and  O_21
REMARK   12  A    between atoms: O_21  and  C_22
REMARK                            x       y       z     vdW  Elec       q    Type
REMARK                         _______ _______ _______ _____ _____    ______ ____
ROOT
ATOM      1  C   UNL     1      -0.429  11.875  19.334  0.00  0.00    +0.000 C 
ATOM      2  C   UNL     1       0.283  12.929  18.464  0.00  0.00    +0.000 C 
ENDROOT
BRANCH   1   8
ATOM      3  C   UNL     1       0.202   9.622  20.432  0.00  0.00    +0.000 A 
ATOM      4  C   UNL     1       1.001   8.464  20.474  0.00  0.00    +0.000 A 
ATOM      5  C   UNL     1       1.817   8.193  19.401  0.00  0.00    +0.000 A 
ATOM      6  C   UNL     1       1.913   9.044  18.335  0.00  0.00    +0.000 A 
ATOM      7  C   UNL     1       1.222  10.232  18.303  0.00  0.00    +0.000 A 
ATOM      8  C   UNL     1       0.335  10.546  19.356  0.00  0.00    +0.000 A 
ATOM      9  O   UNL     1       2.750   8.584  17.371  0.00  0.00    +0.000 OA
ATOM     10  C   UNL     1       3.145   7.319  17.941  0.00  0.00    +0.000 C 
ATOM     11  O   UNL     1       2.594   7.088  19.255  0.00  0.00    +0.000 OA
BRANCH   3  12
ATOM     12  O   UNL     1      -0.716   9.913  21.416  0.00  0.00    +0.000 OA
BRANCH  12  14
ATOM     13  C   UNL     1      -1.114  11.704  22.982  0.00  0.00    +0.000 C 
ATOM     14  C   UNL     1      -0.184  10.580  22.569  0.00  0.00    +0.000 C 
ENDBRANCH  12  14
ENDBRANCH   3  12
ENDBRANCH   1   8
BRANCH   1  15
ATOM     15  C   UNL     1      -1.903  11.786  18.928  0.00  0.00    +0.000 A 
ATOM     16  C   UNL     1      -2.873  12.358  19.760  0.00  0.00    +0.000 A 
ATOM     17  C   UNL     1      -4.216  12.434  19.364  0.00  0.00    +0.000 A 
ATOM     18  C   UNL     1      -4.624  11.886  18.128  0.00  0.00    +0.000 A 
ATOM     19  C   UNL     1      -3.671  11.263  17.301  0.00  0.00    +0.000 A 
ATOM     20  C   UNL     1      -2.327  11.244  17.705  0.00  0.00    +0.000 A 
BRANCH  17  21
ATOM     21  O   UNL     1      -5.188  13.032  20.134  0.00  0.00    +0.000 OA
ATOM     22  C   UNL     1      -5.320  12.542  21.464  0.00  0.00    +0.000 C 
ENDBRANCH  17  21
BRANCH  18  23
ATOM     23  O   UNL     1      -5.970  11.989  17.855  0.00  0.00    +0.000 OA
ATOM     24  C   UNL     1      -6.806  10.935  18.319  0.00  0.00    +0.000 C 
ENDBRANCH  18  23
BRANCH  19  25
ATOM     25  O   UNL     1      -4.104  10.700  16.127  0.00  0.00    +0.000 OA
ATOM     26  C   UNL     1      -3.160  10.485  15.087  0.00  0.00    +0.000 C 
ENDBRANCH  19  25
ENDBRANCH   1  15
TORSDOF 7
ENDMDL
