MODEL 1
REMARK VINA RESULT:      -8.9      0.000      0.000
REMARK  Name = 
REMARK  7 active torsions:
REMARK  status: ('A' for Active; 'I' for Inactive)
REMARK    1  A    between atoms: C_1  and  C_2
REMARK    2  A    between atoms: C_5  and  O_6
REMARK    3  A    between atoms: O_6  and  C_7
REMARK    4  A    between atoms: C_10  and  S_11
REMARK    5  A    between atoms: S_11  and  N_14
REMARK    6  A    between atoms: C_23  and  C_24
REMARK    7  A    between atoms: C_28  and  C_29
REMARK                            x       y       z     vdW  Elec       q    Type
REMARK                         _______ _______ _______ _____ _____    ______ ____
ROOT
ATOM      1  C   UNL     1       2.244   7.634  19.317  0.00  0.00    +0.000 A 
ATOM      2  C   UNL     1       2.163   8.219  18.049  0.00  0.00    +0.000 A 
ATOM      3  C   UNL     1       1.318   9.318  17.831  0.00  0.00    +0.000 A 
ATOM      4  C   UNL     1       0.566   9.835  18.893  0.00  0.00    +0.000 A 
ATOM      5  C   UNL     1       0.715   9.315  20.179  0.00  0.00    +0.000 A 
ATOM      6  C   UNL     1       1.583   8.247  20.389  0.00  0.00    +0.000 A 
ATOM      7  F   UNL     1       1.705   7.773  21.635  0.00  0.00    +0.000 F 
ENDROOT
BRANCH   4   8
ATOM      8  S   UNL     1      -0.755  10.982  18.584  0.00  0.00    +0.000 S 
ATOM      9  O   UNL     1      -1.535  10.452  17.487  0.00  0.00    +0.000 OA
ATOM     10  O   UNL     1      -1.375  11.273  19.861  0.00  0.00    +0.000 OA
BRANCH   8  11
ATOM     11  N   UNL     1       0.052  12.332  17.961  0.00  0.00    +0.000 N 
ATOM     12  C   UNL     1       0.346  13.274  18.972  0.00  0.00    +0.000 A 
ATOM     13  N   UNL     1      -0.410  14.335  19.095  0.00  0.00    +0.000 NA
ATOM     14  C   UNL     1       0.060  15.094  20.153  0.00  0.00    +0.000 A 
ATOM     15  C   UNL     1       1.231  14.649  20.731  0.00  0.00    +0.000 A 
ATOM     16  S   UNL     1       1.731  13.195  19.969  0.00  0.00    +0.000 S 
ATOM     17  H   UNL     1      -0.611  12.765  17.313  0.00  0.00    +0.000 HD
ENDBRANCH   8  11
ENDBRANCH   4   8
BRANCH   1  18
ATOM     18  O   UNL     1       2.967   6.457  19.420  0.00  0.00    +0.000 OA
BRANCH  18  23
ATOM     19  C   UNL     1       5.770   4.748  14.750  0.00  0.00    +0.000 C 
ATOM     20  C   UNL     1       5.070   5.193  16.000  0.00  0.00    +0.000 A 
ATOM     21  C   UNL     1       5.331   6.433  16.564  0.00  0.00    +0.000 A 
ATOM     22  C   UNL     1       4.665   6.820  17.725  0.00  0.00    +0.000 A 
ATOM     23  C   UNL     1       3.677   6.005  18.317  0.00  0.00    +0.000 A 
ATOM     24  C   UNL     1       3.456   4.706  17.811  0.00  0.00    +0.000 A 
ATOM     25  C   UNL     1       4.157   4.341  16.635  0.00  0.00    +0.000 A 
BRANCH  24  26
ATOM     26  C   UNL     1       2.570   3.681  18.411  0.00  0.00    +0.000 A 
ATOM     27  N   UNL     1       1.318   4.017  18.891  0.00  0.00    +0.000 N 
ATOM     28  N   UNL     1       0.649   3.020  19.481  0.00  0.00    +0.000 NA
ATOM     29  C   UNL     1       1.467   1.981  19.339  0.00  0.00    +0.000 A 
ATOM     30  C   UNL     1       2.669   2.318  18.667  0.00  0.00    +0.000 A 
ATOM     31  C   UNL     1       3.764   1.368  18.373  0.00  0.00    +0.000 C 
ATOM     32  H   UNL     1       0.870   4.926  18.863  0.00  0.00    +0.000 HD
ENDBRANCH  24  26
ENDBRANCH  18  23
ENDBRANCH   1  18
TORSDOF 5
ENDMDL
MODEL 2
REMARK VINA RESULT:      -8.9      3.107      8.860
REMARK  Name = 
REMARK  7 active torsions:
REMARK  status: ('A' for Active; 'I' for Inactive)
REMARK    1  A    between atoms: C_1  and  C_2
REMARK    2  A    between atoms: C_5  and  O_6
REMARK    3  A    between atoms: O_6  and  C_7
REMARK    4  A    between atoms: C_10  and  S_11
REMARK    5  A    between atoms: S_11  and  N_14
REMARK    6  A    between atoms: C_23  and  C_24
REMARK    7  A    between atoms: C_28  and  C_29
REMARK                            x       y       z     vdW  Elec       q    Type
REMARK                         _______ _______ _______ _____ _____    ______ ____
ROOT
ATOM      1  C   UNL     1       1.241   9.385  19.185  0.00  0.00    +0.000 A 
ATOM      2  C   UNL     1       1.846   9.303  17.926  0.00  0.00    +0.000 A 
ATOM      3  C   UNL     1       2.678   8.217  17.612  0.00  0.00    +0.000 A 
ATOM      4  C   UNL     1       2.889   7.209  18.560  0.00  0.00    +0.000 A 
ATOM      5  C   UNL     1       2.214   7.238  19.781  0.00  0.00    +0.000 A 
ATOM      6  C   UNL     1       1.364   8.304  20.067  0.00  0.00    +0.000 A 
ATOM      7  F   UNL     1       0.729   8.301  21.246  0.00  0.00    +0.000 F 
ENDROOT
BRANCH   4   8
ATOM      8  S   UNL     1       4.189   6.019  18.333  0.00  0.00    +0.000 S 
ATOM      9  O   UNL     1       5.248   6.676  17.598  0.00  0.00    +0.000 OA
ATOM     10  O   UNL     1       4.448   5.418  19.626  0.00  0.00    +0.000 OA
BRANCH   8  11
ATOM     11  N   UNL     1       3.504   4.910  17.255  0.00  0.00    +0.000 N 
ATOM     12  C   UNL     1       3.063   3.744  17.921  0.00  0.00    +0.000 A 
ATOM     13  N   UNL     1       3.800   2.664  17.872  0.00  0.00    +0.000 NA
ATOM     14  C   UNL     1       3.177   1.668  18.603  0.00  0.00    +0.000 A 
ATOM     15  C   UNL     1       1.924   1.982  19.090  0.00  0.00    +0.000 A 
ATOM     16  S   UNL     1       1.537   3.601  18.675  0.00  0.00    +0.000 S 
ATOM     17  H   UNL     1       4.266   4.642  16.626  0.00  0.00    +0.000 HD
ENDBRANCH   8  11
ENDBRANCH   4   8
BRANCH   1  18
ATOM     18  O   UNL     1       0.570  10.560  19.483  0.00  0.00    +0.000 OA
BRANCH  18  23
ATOM     19  C   UNL     1      -4.604  11.445  17.242  0.00  0.00    +0.000 C 
ATOM     20  C   UNL     1      -3.258  11.174  17.845  0.00  0.00    +0.000 A 
ATOM     21  C   UNL     1      -2.406  10.224  17.299  0.00  0.00    +0.000 A 
ATOM     22  C   UNL     1      -1.161   9.994  17.880  0.00  0.00    +0.000 A 
ATOM     23  C   UNL     1      -0.709  10.749  18.983  0.00  0.00    +0.000 A 
ATOM     24  C   UNL     1      -1.590  11.659  19.607  0.00  0.00    +0.000 A 
ATOM     25  C   UNL     1      -2.852  11.863  18.996  0.00  0.00    +0.000 A 
BRANCH  24  26
ATOM     26  C   UNL     1      -1.320  12.408  20.856  0.00  0.00    +0.000 A 
ATOM     27  N   UNL     1      -1.293  13.791  20.864  0.00  0.00    +0.000 N 
ATOM     28  N   UNL     1      -0.959  14.346  22.035  0.00  0.00    +0.000 NA
ATOM     29  C   UNL     1      -0.812  13.295  22.837  0.00  0.00    +0.000 A 
ATOM     30  C   UNL     1      -1.040  12.063  22.174  0.00  0.00    +0.000 A 
ATOM     31  C   UNL     1      -0.943  10.733  22.812  0.00  0.00    +0.000 C 
ATOM     32  H   UNL     1      -1.474  14.416  20.087  0.00  0.00    +0.000 HD
ENDBRANCH  24  26
ENDBRANCH  18  23
ENDBRANCH   1  18
TORSDOF 5
ENDMDL
MODEL 3
REMARK VINA RESULT:      -8.9      2.087      2.862
REMARK  Name = 
REMARK  7 active torsions:
REMARK  status: ('A' for Active; 'I' for Inactive)
REMARK    1  A    between atoms: C_1  and  C_2
REMARK    2  A    between atoms: C_5  and  O_6
REMARK    3  A    between atoms: O_6  and  C_7
REMARK    4  A    between atoms: C_10  and  S_11
REMARK    5  A    between atoms: S_11  and  N_14
REMARK    6  A    between atoms: C_23  and  C_24
REMARK    7  A    between atoms: C_28  and  C_29
REMARK                            x       y       z     vdW  Elec       q    Type
REMARK                         _______ _______ _______ _____ _____    ______ ____
ROOT
ATOM      1  C   UNL     1       1.967   7.665  18.637  0.00  0.00    +0.000 A 
ATOM      2  C   UNL     1       2.025   8.704  17.701  0.00  0.00    +0.000 A 
ATOM      3  C   UNL     1       1.553   9.983  18.035  0.00  0.00    +0.000 A 
ATOM      4  C   UNL     1       1.035  10.218  19.314  0.00  0.00    +0.000 A 
ATOM      5  C   UNL     1       1.062   9.211  20.280  0.00  0.00    +0.000 A 
ATOM      6  C   UNL     1       1.565   7.957  19.947  0.00  0.00    +0.000 A 
ATOM      7  F   UNL     1       1.580   7.013  20.897  0.00  0.00    +0.000 F 
ENDROOT
BRANCH   4   8
ATOM      8  S   UNL     1       0.123  11.703  19.656  0.00  0.00    +0.000 S 
ATOM      9  O   UNL     1      -0.967  11.343  20.538  0.00  0.00    +0.000 OA
ATOM     10  O   UNL     1       1.084  12.716  20.041  0.00  0.00    +0.000 OA
BRANCH   8  11
ATOM     11  N   UNL     1      -0.595  12.060  18.166  0.00  0.00    +0.000 N 
ATOM     12  C   UNL     1      -1.808  11.356  17.993  0.00  0.00    +0.000 A 
ATOM     13  N   UNL     1      -1.821  10.284  17.242  0.00  0.00    +0.000 NA
ATOM     14  C   UNL     1      -3.103   9.763  17.235  0.00  0.00    +0.000 A 
ATOM     15  C   UNL     1      -4.057  10.518  17.887  0.00  0.00    +0.000 A 
ATOM     16  S   UNL     1      -3.315  11.898  18.587  0.00  0.00    +0.000 S 
ATOM     17  H   UNL     1       0.066  11.723  17.462  0.00  0.00    +0.000 HD
ENDBRANCH   8  11
ENDBRANCH   4   8
BRANCH   1  18
ATOM     18  O   UNL     1       2.294   6.396  18.187  0.00  0.00    +0.000 OA
BRANCH  18  23
ATOM     19  C   UNL     1       7.735   4.671  18.109  0.00  0.00    +0.000 C 
ATOM     20  C   UNL     1       6.317   5.157  18.155  0.00  0.00    +0.000 A 
ATOM     21  C   UNL     1       5.936   6.317  17.495  0.00  0.00    +0.000 A 
ATOM     22  C   UNL     1       4.611   6.744  17.554  0.00  0.00    +0.000 A 
ATOM     23  C   UNL     1       3.621   5.993  18.222  0.00  0.00    +0.000 A 
ATOM     24  C   UNL     1       4.000   4.857  18.971  0.00  0.00    +0.000 A 
ATOM     25  C   UNL     1       5.357   4.455  18.896  0.00  0.00    +0.000 A 
BRANCH  24  26
ATOM     26  C   UNL     1       3.110   4.058  19.844  0.00  0.00    +0.000 A 
ATOM     27  N   UNL     1       2.975   4.358  21.187  0.00  0.00    +0.000 N 
ATOM     28  N   UNL     1       2.206   3.514  21.884  0.00  0.00    +0.000 NA
ATOM     29  C   UNL     1       1.779   2.659  20.958  0.00  0.00    +0.000 A 
ATOM     30  C   UNL     1       2.288   2.950  19.667  0.00  0.00    +0.000 A 
ATOM     31  C   UNL     1       1.988   2.169  18.448  0.00  0.00    +0.000 C 
ATOM     32  H   UNL     1       3.406   5.122  21.695  0.00  0.00    +0.000 HD
ENDBRANCH  24  26
ENDBRANCH  18  23
ENDBRANCH   1  18
TORSDOF 5
ENDMDL
MODEL 4
REMARK VINA RESULT:      -8.9      1.657      1.836
REMARK  Name = 
REMARK  7 active torsions:
REMARK  status: ('A' for Active; 'I' for Inactive)
REMARK    1  A    between atoms: C_1  and  C_2
REMARK    2  A    between atoms: C_5  and  O_6
REMARK    3  A    between atoms: O_6  and  C_7
REMARK    4  A    between atoms: C_10  and  S_11
REMARK    5  A    between atoms: S_11  and  N_14
REMARK    6  A    between atoms: C_23  and  C_24
REMARK    7  A    between atoms: C_28  and  C_29
REMARK                            x       y       z     vdW  Elec       q    Type
REMARK                         _______ _______ _______ _____ _____    ______ ____
ROOT
ATOM      1  C   UNL     1       1.932   7.738  18.680  0.00  0.00    +0.000 A 
ATOM      2  C   UNL     1       1.957   8.818  17.791  0.00  0.00    +0.000 A 
ATOM      3  C   UNL     1       1.516  10.084  18.207  0.00  0.00    +0.000 A 
ATOM      4  C   UNL     1       1.063  10.264  19.519  0.00  0.00    +0.000 A 
ATOM      5  C   UNL     1       1.126   9.214  20.435  0.00  0.00    +0.000 A 
ATOM      6  C   UNL     1       1.598   7.972  20.020  0.00  0.00    +0.000 A 
ATOM      7  F   UNL     1       1.647   6.985  20.925  0.00  0.00    +0.000 F 
ENDROOT
BRANCH   4   8
ATOM      8  S   UNL     1       0.185  11.741  19.972  0.00  0.00    +0.000 S 
ATOM      9  O   UNL     1      -1.200  11.370  20.174  0.00  0.00    +0.000 OA
ATOM     10  O   UNL     1       0.942  12.380  21.029  0.00  0.00    +0.000 OA
BRANCH   8  11
ATOM     11  N   UNL     1       0.211  12.652  18.547  0.00  0.00    +0.000 N 
ATOM     12  C   UNL     1       1.057  13.777  18.667  0.00  0.00    +0.000 A 
ATOM     13  N   UNL     1       0.526  14.953  18.885  0.00  0.00    +0.000 NA
ATOM     14  C   UNL     1       1.542  15.888  18.980  0.00  0.00    +0.000 A 
ATOM     15  C   UNL     1       2.812  15.417  18.714  0.00  0.00    +0.000 A 
ATOM     16  S   UNL     1       2.743  13.732  18.396  0.00  0.00    +0.000 S 
ATOM     17  H   UNL     1      -0.747  12.990  18.428  0.00  0.00    +0.000 HD
ENDBRANCH   8  11
ENDBRANCH   4   8
BRANCH   1  18
ATOM     18  O   UNL     1       2.224   6.488  18.158  0.00  0.00    +0.000 OA
BRANCH  18  23
ATOM     19  C   UNL     1       7.607   4.600  17.980  0.00  0.00    +0.000 C 
ATOM     20  C   UNL     1       6.206   5.128  18.051  0.00  0.00    +0.000 A 
ATOM     21  C   UNL     1       5.847   6.299  17.397  0.00  0.00    +0.000 A 
ATOM     22  C   UNL     1       4.538   6.766  17.481  0.00  0.00    +0.000 A 
ATOM     23  C   UNL     1       3.538   6.045  18.168  0.00  0.00    +0.000 A 
ATOM     24  C   UNL     1       3.897   4.899  18.911  0.00  0.00    +0.000 A 
ATOM     25  C   UNL     1       5.239   4.457  18.812  0.00  0.00    +0.000 A 
BRANCH  24  26
ATOM     26  C   UNL     1       3.000   4.128  19.802  0.00  0.00    +0.000 A 
ATOM     27  N   UNL     1       2.991   4.349  21.167  0.00  0.00    +0.000 N 
ATOM     28  N   UNL     1       2.197   3.534  21.870  0.00  0.00    +0.000 NA
ATOM     29  C   UNL     1       1.625   2.785  20.931  0.00  0.00    +0.000 A 
ATOM     30  C   UNL     1       2.065   3.113  19.624  0.00  0.00    +0.000 A 
ATOM     31  C   UNL     1       1.606   2.444  18.388  0.00  0.00    +0.000 C 
ATOM     32  H   UNL     1       3.528   5.036  21.684  0.00  0.00    +0.000 HD
ENDBRANCH  24  26
ENDBRANCH  18  23
ENDBRANCH   1  18
TORSDOF 5
ENDMDL
MODEL 5
REMARK VINA RESULT:      -8.8      2.404      2.658
REMARK  Name = 
REMARK  7 active torsions:
REMARK  status: ('A' for Active; 'I' for Inactive)
REMARK    1  A    between atoms: C_1  and  C_2
REMARK    2  A    between atoms: C_5  and  O_6
REMARK    3  A    between atoms: O_6  and  C_7
REMARK    4  A    between atoms: C_10  and  S_11
REMARK    5  A    between atoms: S_11  and  N_14
REMARK    6  A    between atoms: C_23  and  C_24
REMARK    7  A    between atoms: C_28  and  C_29
REMARK                            x       y       z     vdW  Elec       q    Type
REMARK                         _______ _______ _______ _____ _____    ______ ____
ROOT
ATOM      1  C   UNL     1       1.813   7.833  18.787  0.00  0.00    +0.000 A 
ATOM      2  C   UNL     1       1.761   8.950  17.946  0.00  0.00    +0.000 A 
ATOM      3  C   UNL     1       1.280  10.176  18.430  0.00  0.00    +0.000 A 
ATOM      4  C   UNL     1       0.865  10.281  19.763  0.00  0.00    +0.000 A 
ATOM      5  C   UNL     1       1.004   9.196  20.630  0.00  0.00    +0.000 A 
ATOM      6  C   UNL     1       1.515   7.995  20.146  0.00  0.00    +0.000 A 
ATOM      7  F   UNL     1       1.637   6.974  21.004  0.00  0.00    +0.000 F 
ENDROOT
BRANCH   4   8
ATOM      8  S   UNL     1      -0.060  11.696  20.309  0.00  0.00    +0.000 S 
ATOM      9  O   UNL     1       0.812  12.846  20.199  0.00  0.00    +0.000 OA
ATOM     10  O   UNL     1      -1.334  11.664  19.620  0.00  0.00    +0.000 OA
BRANCH   8  11
ATOM     11  N   UNL     1      -0.240  11.416  21.967  0.00  0.00    +0.000 N 
ATOM     12  C   UNL     1      -1.018  12.423  22.582  0.00  0.00    +0.000 A 
ATOM     13  N   UNL     1      -0.418  13.369  23.256  0.00  0.00    +0.000 NA
ATOM     14  C   UNL     1      -1.375  14.239  23.748  0.00  0.00    +0.000 A 
ATOM     15  C   UNL     1      -2.686  13.865  23.532  0.00  0.00    +0.000 A 
ATOM     16  S   UNL     1      -2.726  12.407  22.629  0.00  0.00    +0.000 S 
ATOM     17  H   UNL     1       0.706  11.471  22.352  0.00  0.00    +0.000 HD
ENDBRANCH   8  11
ENDBRANCH   4   8
BRANCH   1  18
ATOM     18  O   UNL     1       2.140   6.621  18.201  0.00  0.00    +0.000 OA
BRANCH  18  23
ATOM     19  C   UNL     1       7.544   4.783  18.134  0.00  0.00    +0.000 C 
ATOM     20  C   UNL     1       6.136   5.298  18.176  0.00  0.00    +0.000 A 
ATOM     21  C   UNL     1       5.780   6.465  17.514  0.00  0.00    +0.000 A 
ATOM     22  C   UNL     1       4.464   6.920  17.571  0.00  0.00    +0.000 A 
ATOM     23  C   UNL     1       3.458   6.190  18.239  0.00  0.00    +0.000 A 
ATOM     24  C   UNL     1       3.813   5.048  18.989  0.00  0.00    +0.000 A 
ATOM     25  C   UNL     1       5.161   4.618  18.917  0.00  0.00    +0.000 A 
BRANCH  24  26
ATOM     26  C   UNL     1       2.905   4.269  19.863  0.00  0.00    +0.000 A 
ATOM     27  N   UNL     1       3.018   4.327  21.240  0.00  0.00    +0.000 N 
ATOM     28  N   UNL     1       2.194   3.517  21.913  0.00  0.00    +0.000 NA
ATOM     29  C   UNL     1       1.480   2.943  20.949  0.00  0.00    +0.000 A 
ATOM     30  C   UNL     1       1.857   3.378  19.654  0.00  0.00    +0.000 A 
ATOM     31  C   UNL     1       1.240   2.908  18.395  0.00  0.00    +0.000 C 
ATOM     32  H   UNL     1       3.662   4.893  21.782  0.00  0.00    +0.000 HD
ENDBRANCH  24  26
ENDBRANCH  18  23
ENDBRANCH   1  18
TORSDOF 5
ENDMDL
MODEL 6
REMARK VINA RESULT:      -8.8      3.189      8.941
REMARK  Name = 
REMARK  7 active torsions:
REMARK  status: ('A' for Active; 'I' for Inactive)
REMARK    1  A    between atoms: C_1  and  C_2
REMARK    2  A    between atoms: C_5  and  O_6
REMARK    3  A    between atoms: O_6  and  C_7
REMARK    4  A    between atoms: C_10  and  S_11
REMARK    5  A    between atoms: S_11  and  N_14
REMARK    6  A    between atoms: C_23  and  C_24
REMARK    7  A    between atoms: C_28  and  C_29
REMARK                            x       y       z     vdW  Elec       q    Type
REMARK                         _______ _______ _______ _____ _____    ______ ____
ROOT
ATOM      1  C   UNL     1       1.270   9.421  19.077  0.00  0.00    +0.000 A 
ATOM      2  C   UNL     1       1.873   9.276  17.822  0.00  0.00    +0.000 A 
ATOM      3  C   UNL     1       2.689   8.166  17.556  0.00  0.00    +0.000 A 
ATOM      4  C   UNL     1       2.886   7.197  18.546  0.00  0.00    +0.000 A 
ATOM      5  C   UNL     1       2.212   7.289  19.765  0.00  0.00    +0.000 A 
ATOM      6  C   UNL     1       1.378   8.377  20.004  0.00  0.00    +0.000 A 
ATOM      7  F   UNL     1       0.744   8.435  21.183  0.00  0.00    +0.000 F 
ENDROOT
BRANCH   4   8
ATOM      8  S   UNL     1       4.168   5.979  18.370  0.00  0.00    +0.000 S 
ATOM      9  O   UNL     1       5.265   6.610  17.669  0.00  0.00    +0.000 OA
ATOM     10  O   UNL     1       4.369   5.380  19.674  0.00  0.00    +0.000 OA
BRANCH   8  11
ATOM     11  N   UNL     1       3.498   4.878  17.275  0.00  0.00    +0.000 N 
ATOM     12  C   UNL     1       3.038   3.712  17.927  0.00  0.00    +0.000 A 
ATOM     13  N   UNL     1       3.770   2.628  17.888  0.00  0.00    +0.000 NA
ATOM     14  C   UNL     1       3.128   1.632  18.602  0.00  0.00    +0.000 A 
ATOM     15  C   UNL     1       1.868   1.951  19.067  0.00  0.00    +0.000 A 
ATOM     16  S   UNL     1       1.497   3.574  18.651  0.00  0.00    +0.000 S 
ATOM     17  H   UNL     1       4.270   4.609  16.659  0.00  0.00    +0.000 HD
ENDBRANCH   8  11
ENDBRANCH   4   8
BRANCH   1  18
ATOM     18  O   UNL     1       0.617  10.618  19.324  0.00  0.00    +0.000 OA
BRANCH  18  23
ATOM     19  C   UNL     1      -4.643  11.426  17.260  0.00  0.00    +0.000 C 
ATOM     20  C   UNL     1      -3.272  11.174  17.813  0.00  0.00    +0.000 A 
ATOM     21  C   UNL     1      -2.378  10.338  17.157  0.00  0.00    +0.000 A 
ATOM     22  C   UNL     1      -1.111  10.122  17.694  0.00  0.00    +0.000 A 
ATOM     23  C   UNL     1      -0.681  10.783  18.865  0.00  0.00    +0.000 A 
ATOM     24  C   UNL     1      -1.600  11.569  19.593  0.00  0.00    +0.000 A 
ATOM     25  C   UNL     1      -2.884  11.760  19.025  0.00  0.00    +0.000 A 
BRANCH  24  26
ATOM     26  C   UNL     1      -1.349  12.197  20.911  0.00  0.00    +0.000 A 
ATOM     27  N   UNL     1      -0.834  11.462  21.963  0.00  0.00    +0.000 N 
ATOM     28  N   UNL     1      -0.729  12.123  23.122  0.00  0.00    +0.000 NA
ATOM     29  C   UNL     1      -1.141  13.348  22.809  0.00  0.00    +0.000 A 
ATOM     30  C   UNL     1      -1.522  13.468  21.448  0.00  0.00    +0.000 A 
ATOM     31  C   UNL     1      -2.024  14.710  20.821  0.00  0.00    +0.000 C 
ATOM     32  H   UNL     1      -0.554  10.488  21.956  0.00  0.00    +0.000 HD
ENDBRANCH  24  26
ENDBRANCH  18  23
ENDBRANCH   1  18
TORSDOF 5
ENDMDL
MODEL 7
REMARK VINA RESULT:      -8.8      1.977      2.490
REMARK  Name = 
REMARK  7 active torsions:
REMARK  status: ('A' for Active; 'I' for Inactive)
REMARK    1  A    between atoms: C_1  and  C_2
REMARK    2  A    between atoms: C_5  and  O_6
REMARK    3  A    between atoms: O_6  and  C_7
REMARK    4  A    between atoms: C_10  and  S_11
REMARK    5  A    between atoms: S_11  and  N_14
REMARK    6  A    between atoms: C_23  and  C_24
REMARK    7  A    between atoms: C_28  and  C_29
REMARK                            x       y       z     vdW  Elec       q    Type
REMARK                         _______ _______ _______ _____ _____    ______ ____
ROOT
ATOM      1  C   UNL     1       2.043   7.678  18.454  0.00  0.00    +0.000 A 
ATOM      2  C   UNL     1       1.911   8.905  17.796  0.00  0.00    +0.000 A 
ATOM      3  C   UNL     1       1.448  10.033  18.492  0.00  0.00    +0.000 A 
ATOM      4  C   UNL     1       1.133   9.927  19.852  0.00  0.00    +0.000 A 
ATOM      5  C   UNL     1       1.353   8.730  20.534  0.00  0.00    +0.000 A 
ATOM      6  C   UNL     1       1.845   7.628  19.840  0.00  0.00    +0.000 A 
ATOM      7  F   UNL     1       2.047   6.495  20.524  0.00  0.00    +0.000 F 
ENDROOT
BRANCH   4   8
ATOM      8  S   UNL     1       0.230  11.221  20.669  0.00  0.00    +0.000 S 
ATOM      9  O   UNL     1      -0.950  10.618  21.251  0.00  0.00    +0.000 OA
ATOM     10  O   UNL     1       1.175  11.946  21.494  0.00  0.00    +0.000 OA
BRANCH   8  11
ATOM     11  N   UNL     1      -0.328  12.166  19.382  0.00  0.00    +0.000 N 
ATOM     12  C   UNL     1      -1.701  11.942  19.131  0.00  0.00    +0.000 A 
ATOM     13  N   UNL     1      -2.049  11.169  18.135  0.00  0.00    +0.000 NA
ATOM     14  C   UNL     1      -3.430  11.088  18.097  0.00  0.00    +0.000 A 
ATOM     15  C   UNL     1      -4.098  11.897  18.993  0.00  0.00    +0.000 A 
ATOM     16  S   UNL     1      -2.962  12.741  19.962  0.00  0.00    +0.000 S 
ATOM     17  H   UNL     1       0.197  11.844  18.565  0.00  0.00    +0.000 HD
ENDBRANCH   8  11
ENDBRANCH   4   8
BRANCH   1  18
ATOM     18  O   UNL     1       2.343   6.575  17.671  0.00  0.00    +0.000 OA
BRANCH  18  23
ATOM     19  C   UNL     1       7.675   4.546  17.472  0.00  0.00    +0.000 C 
ATOM     20  C   UNL     1       6.284   5.101  17.560  0.00  0.00    +0.000 A 
ATOM     21  C   UNL     1       6.031   6.442  17.310  0.00  0.00    +0.000 A 
ATOM     22  C   UNL     1       4.729   6.929  17.399  0.00  0.00    +0.000 A 
ATOM     23  C   UNL     1       3.638   6.079  17.679  0.00  0.00    +0.000 A 
ATOM     24  C   UNL     1       3.882   4.730  18.020  0.00  0.00    +0.000 A 
ATOM     25  C   UNL     1       5.219   4.269  17.929  0.00  0.00    +0.000 A 
BRANCH  24  26
ATOM     26  C   UNL     1       2.866   3.757  18.484  0.00  0.00    +0.000 A 
ATOM     27  N   UNL     1       1.648   3.639  17.841  0.00  0.00    +0.000 N 
ATOM     28  N   UNL     1       0.787   2.783  18.405  0.00  0.00    +0.000 NA
ATOM     29  C   UNL     1       1.481   2.284  19.423  0.00  0.00    +0.000 A 
ATOM     30  C   UNL     1       2.786   2.831  19.519  0.00  0.00    +0.000 A 
ATOM     31  C   UNL     1       3.777   2.468  20.554  0.00  0.00    +0.000 C 
ATOM     32  H   UNL     1       1.335   4.139  17.016  0.00  0.00    +0.000 HD
ENDBRANCH  24  26
ENDBRANCH  18  23
ENDBRANCH   1  18
TORSDOF 5
ENDMDL
MODEL 8
REMARK VINA RESULT:      -8.8      2.572      3.217
REMARK  Name = 
REMARK  7 active torsions:
REMARK  status: ('A' for Active; 'I' for Inactive)
REMARK    1  A    between atoms: C_1  and  C_2
REMARK    2  A    between atoms: C_5  and  O_6
REMARK    3  A    between atoms: O_6  and  C_7
REMARK    4  A    between atoms: C_10  and  S_11
REMARK    5  A    between atoms: S_11  and  N_14
REMARK    6  A    between atoms: C_23  and  C_24
REMARK    7  A    between atoms: C_28  and  C_29
REMARK                            x       y       z     vdW  Elec       q    Type
REMARK                         _______ _______ _______ _____ _____    ______ ____
ROOT
ATOM      1  C   UNL     1       3.708   6.632  18.724  0.00  0.00    +0.000 A 
ATOM      2  C   UNL     1       2.940   6.607  19.893  0.00  0.00    +0.000 A 
ATOM      3  C   UNL     1       1.917   7.548  20.086  0.00  0.00    +0.000 A 
ATOM      4  C   UNL     1       1.660   8.504  19.097  0.00  0.00    +0.000 A 
ATOM      5  C   UNL     1       2.359   8.474  17.890  0.00  0.00    +0.000 A 
ATOM      6  C   UNL     1       3.348   7.514  17.697  0.00  0.00    +0.000 A 
ATOM      7  F   UNL     1       3.999   7.510  16.526  0.00  0.00    +0.000 F 
ENDROOT
BRANCH   4   8
ATOM      8  S   UNL     1       0.626   9.906  19.449  0.00  0.00    +0.000 S 
ATOM      9  O   UNL     1      -0.548   9.411  20.135  0.00  0.00    +0.000 OA
ATOM     10  O   UNL     1       1.468  10.916  20.057  0.00  0.00    +0.000 OA
BRANCH   8  11
ATOM     11  N   UNL     1       0.092  10.379  17.915  0.00  0.00    +0.000 N 
ATOM     12  C   UNL     1      -1.309  10.561  17.886  0.00  0.00    +0.000 A 
ATOM     13  N   UNL     1      -2.063   9.623  17.373  0.00  0.00    +0.000 NA
ATOM     14  C   UNL     1      -3.387  10.015  17.470  0.00  0.00    +0.000 A 
ATOM     15  C   UNL     1      -3.596  11.293  17.947  0.00  0.00    +0.000 A 
ATOM     16  S   UNL     1      -2.089  12.008  18.350  0.00  0.00    +0.000 S 
ATOM     17  H   UNL     1       0.319   9.595  17.298  0.00  0.00    +0.000 HD
ENDBRANCH   8  11
ENDBRANCH   4   8
BRANCH   1  18
ATOM     18  O   UNL     1       4.802   5.784  18.673  0.00  0.00    +0.000 OA
BRANCH  18  23
ATOM     19  C   UNL     1       6.404   3.947  13.512  0.00  0.00    +0.000 C 
ATOM     20  C   UNL     1       6.020   4.417  14.883  0.00  0.00    +0.000 A 
ATOM     21  C   UNL     1       6.629   5.524  15.458  0.00  0.00    +0.000 A 
ATOM     22  C   UNL     1       6.253   5.938  16.733  0.00  0.00    +0.000 A 
ATOM     23  C   UNL     1       5.217   5.294  17.444  0.00  0.00    +0.000 A 
ATOM     24  C   UNL     1       4.643   4.116  16.917  0.00  0.00    +0.000 A 
ATOM     25  C   UNL     1       5.056   3.718  15.621  0.00  0.00    +0.000 A 
BRANCH  24  26
ATOM     26  C   UNL     1       3.662   3.247  17.606  0.00  0.00    +0.000 A 
ATOM     27  N   UNL     1       4.047   2.040  18.160  0.00  0.00    +0.000 N 
ATOM     28  N   UNL     1       3.054   1.311  18.683  0.00  0.00    +0.000 NA
ATOM     29  C   UNL     1       1.988   2.087  18.512  0.00  0.00    +0.000 A 
ATOM     30  C   UNL     1       2.297   3.311  17.867  0.00  0.00    +0.000 A 
ATOM     31  C   UNL     1       1.312   4.365  17.542  0.00  0.00    +0.000 C 
ATOM     32  H   UNL     1       4.981   1.646  18.193  0.00  0.00    +0.000 HD
ENDBRANCH  24  26
ENDBRANCH  18  23
ENDBRANCH   1  18
TORSDOF 5
ENDMDL
MODEL 9
REMARK VINA RESULT:      -8.8      2.084      2.834
REMARK  Name = 
REMARK  7 active torsions:
REMARK  status: ('A' for Active; 'I' for Inactive)
REMARK    1  A    between atoms: C_1  and  C_2
REMARK    2  A    between atoms: C_5  and  O_6
REMARK    3  A    between atoms: O_6  and  C_7
REMARK    4  A    between atoms: C_10  and  S_11
REMARK    5  A    between atoms: S_11  and  N_14
REMARK    6  A    between atoms: C_23  and  C_24
REMARK    7  A    between atoms: C_28  and  C_29
REMARK                            x       y       z     vdW  Elec       q    Type
REMARK                         _______ _______ _______ _____ _____    ______ ____
ROOT
ATOM      1  C   UNL     1       2.761   7.088  19.296  0.00  0.00    +0.000 A 
ATOM      2  C   UNL     1       2.005   7.315  20.451  0.00  0.00    +0.000 A 
ATOM      3  C   UNL     1       1.177   8.445  20.542  0.00  0.00    +0.000 A 
ATOM      4  C   UNL     1       1.102   9.337  19.466  0.00  0.00    +0.000 A 
ATOM      5  C   UNL     1       1.781   9.065  18.277  0.00  0.00    +0.000 A 
ATOM      6  C   UNL     1       2.571   7.923  18.188  0.00  0.00    +0.000 A 
ATOM      7  F   UNL     1       3.207   7.689  17.032  0.00  0.00    +0.000 F 
ENDROOT
BRANCH   4   8
ATOM      8  S   UNL     1       0.350  10.934  19.673  0.00  0.00    +0.000 S 
ATOM      9  O   UNL     1      -0.836  10.747  20.480  0.00  0.00    +0.000 OA
ATOM     10  O   UNL     1       1.395  11.846  20.092  0.00  0.00    +0.000 OA
BRANCH   8  11
ATOM     11  N   UNL     1      -0.207  11.296  18.118  0.00  0.00    +0.000 N 
ATOM     12  C   UNL     1      -1.553  10.902  17.944  0.00  0.00    +0.000 A 
ATOM     13  N   UNL     1      -1.815   9.793  17.301  0.00  0.00    +0.000 NA
ATOM     14  C   UNL     1      -3.186   9.610  17.272  0.00  0.00    +0.000 A 
ATOM     15  C   UNL     1      -3.937  10.645  17.792  0.00  0.00    +0.000 A 
ATOM     16  S   UNL     1      -2.891  11.863  18.398  0.00  0.00    +0.000 S 
ATOM     17  H   UNL     1       0.368  10.731  17.488  0.00  0.00    +0.000 HD
ENDBRANCH   8  11
ENDBRANCH   4   8
BRANCH   1  18
ATOM     18  O   UNL     1       3.677   6.049  19.340  0.00  0.00    +0.000 OA
BRANCH  18  23
ATOM     19  C   UNL     1       6.187   4.635  14.412  0.00  0.00    +0.000 C 
ATOM     20  C   UNL     1       5.561   4.991  15.728  0.00  0.00    +0.000 A 
ATOM     21  C   UNL     1       6.060   6.030  16.500  0.00  0.00    +0.000 A 
ATOM     22  C   UNL     1       5.459   6.339  17.718  0.00  0.00    +0.000 A 
ATOM     23  C   UNL     1       4.307   5.659  18.167  0.00  0.00    +0.000 A 
ATOM     24  C   UNL     1       3.833   4.545  17.441  0.00  0.00    +0.000 A 
ATOM     25  C   UNL     1       4.474   4.252  16.211  0.00  0.00    +0.000 A 
BRANCH  24  26
ATOM     26  C   UNL     1       2.737   3.640  17.859  0.00  0.00    +0.000 A 
ATOM     27  N   UNL     1       1.427   4.080  17.894  0.00  0.00    +0.000 N 
ATOM     28  N   UNL     1       0.542   3.194  18.365  0.00  0.00    +0.000 NA
ATOM     29  C   UNL     1       1.288   2.118  18.601  0.00  0.00    +0.000 A 
ATOM     30  C   UNL     1       2.656   2.321  18.291  0.00  0.00    +0.000 A 
ATOM     31  C   UNL     1       3.717   1.303  18.457  0.00  0.00    +0.000 C 
ATOM     32  H   UNL     1       1.075   4.992  17.625  0.00  0.00    +0.000 HD
ENDBRANCH  24  26
ENDBRANCH  18  23
ENDBRANCH   1  18
TORSDOF 5
ENDMDL
