MODEL 1
REMARK VINA RESULT:      -7.6      0.000      0.000
REMARK  Name = 
REMARK  7 active torsions:
REMARK  status: ('A' for Active; 'I' for Inactive)
REMARK    1  A    between atoms: C_1  and  O_2
REMARK    2  A    between atoms: O_2  and  C_3
REMARK    3  A    between atoms: C_7  and  C_8
REMARK    4  A    between atoms: N_9  and  N_10
REMARK    5  A    between atoms: C_11  and  C_13
REMARK    6  A    between atoms: C_18  and  O_19
REMARK    7  A    between atoms: C_20  and  O_21
REMARK                            x       y       z     vdW  Elec       q    Type
REMARK                         _______ _______ _______ _____ _____    ______ ____
ROOT
ATOM      1  C   UNL     1       8.516  10.433  17.854  0.00  0.00    +0.000 C 
ATOM      2  N   UNL     1       8.447   9.198  18.220  0.00  0.00    +0.000 NA
ENDROOT
BRANCH   1   7
ATOM      3  C   UNL     1      10.096  13.616  19.203  0.00  0.00    +0.000 A 
ATOM      4  C   UNL     1      10.623  13.116  20.401  0.00  0.00    +0.000 A 
ATOM      5  C   UNL     1      10.473  11.774  20.761  0.00  0.00    +0.000 A 
ATOM      6  C   UNL     1       9.784  10.903  19.920  0.00  0.00    +0.000 A 
ATOM      7  C   UNL     1       9.248  11.385  18.722  0.00  0.00    +0.000 A 
ATOM      8  C   UNL     1       9.401  12.740  18.357  0.00  0.00    +0.000 A 
BRANCH   3  10
ATOM      9  C   UNL     1      11.664  15.343  18.654  0.00  0.00    +0.000 C 
ATOM     10  O   UNL     1      10.346  14.950  19.022  0.00  0.00    +0.000 OA
ENDBRANCH   3  10
BRANCH   8  11
ATOM     11  O   UNL     1       8.877  13.217  17.182  0.00  0.00    +0.000 OA
ATOM     12  H   UNL     1       7.895  13.120  17.191  0.00  0.00    +0.000 HD
ENDBRANCH   8  11
ENDBRANCH   1   7
BRANCH   2  13
ATOM     13  N   UNL     1       7.786   8.323  17.437  0.00  0.00    +0.000 N 
ATOM     14  C   UNL     1       7.667   7.015  17.876  0.00  0.00    +0.000 C 
ATOM     15  O   UNL     1       8.128   6.613  18.943  0.00  0.00    +0.000 OA
ATOM     16  H   UNL     1       7.386   8.601  16.542  0.00  0.00    +0.000 HD
BRANCH  14  17
ATOM     17  C   UNL     1       6.929   6.068  16.989  0.00  0.00    +0.000 A 
ATOM     18  C   UNL     1       5.885   6.605  16.215  0.00  0.00    +0.000 A 
ATOM     19  C   UNL     1       5.147   5.797  15.351  0.00  0.00    +0.000 A 
ATOM     20  C   UNL     1       5.446   4.441  15.246  0.00  0.00    +0.000 A 
ATOM     21  C   UNL     1       6.477   3.891  16.011  0.00  0.00    +0.000 A 
ATOM     22  C   UNL     1       7.211   4.698  16.884  0.00  0.00    +0.000 A 
BRANCH  22  23
ATOM     23  O   UNL     1       8.205   4.122  17.636  0.00  0.00    +0.000 OA
ATOM     24  H   UNL     1       9.063   4.437  17.301  0.00  0.00    +0.000 HD
ENDBRANCH  22  23
ENDBRANCH  14  17
ENDBRANCH   2  13
TORSDOF 6
ENDMDL
MODEL 2
REMARK VINA RESULT:      -7.4      2.110      8.313
REMARK  Name = 
REMARK  7 active torsions:
REMARK  status: ('A' for Active; 'I' for Inactive)
REMARK    1  A    between atoms: C_1  and  O_2
REMARK    2  A    between atoms: O_2  and  C_3
REMARK    3  A    between atoms: C_7  and  C_8
REMARK    4  A    between atoms: N_9  and  N_10
REMARK    5  A    between atoms: C_11  and  C_13
REMARK    6  A    between atoms: C_18  and  O_19
REMARK    7  A    between atoms: C_20  and  O_21
REMARK                            x       y       z     vdW  Elec       q    Type
REMARK                         _______ _______ _______ _____ _____    ______ ____
ROOT
ATOM      1  C   UNL     1       7.895   6.595  18.652  0.00  0.00    +0.000 C 
ATOM      2  N   UNL     1       7.882   7.832  18.289  0.00  0.00    +0.000 NA
ENDROOT
BRANCH   1   7
ATOM      3  C   UNL     1       5.624   4.664  16.295  0.00  0.00    +0.000 A 
ATOM      4  C   UNL     1       4.838   3.991  17.239  0.00  0.00    +0.000 A 
ATOM      5  C   UNL     1       5.038   4.163  18.611  0.00  0.00    +0.000 A 
ATOM      6  C   UNL     1       6.040   5.020  19.065  0.00  0.00    +0.000 A 
ATOM      7  C   UNL     1       6.836   5.697  18.136  0.00  0.00    +0.000 A 
ATOM      8  C   UNL     1       6.633   5.524  16.749  0.00  0.00    +0.000 A 
BRANCH   3  10
ATOM      9  C   UNL     1       6.251   3.748  14.170  0.00  0.00    +0.000 C 
ATOM     10  O   UNL     1       5.278   4.370  15.002  0.00  0.00    +0.000 OA
ENDBRANCH   3  10
BRANCH   8  11
ATOM     11  O   UNL     1       7.412   6.187  15.835  0.00  0.00    +0.000 OA
ATOM     12  H   UNL     1       8.356   5.927  15.950  0.00  0.00    +0.000 HD
ENDBRANCH   8  11
ENDBRANCH   1   7
BRANCH   2  13
ATOM     13  N   UNL     1       8.842   8.657  18.749  0.00  0.00    +0.000 N 
ATOM     14  C   UNL     1       8.810   9.983  18.350  0.00  0.00    +0.000 C 
ATOM     15  O   UNL     1       7.949  10.446  17.603  0.00  0.00    +0.000 OA
ATOM     16  H   UNL     1       9.581   8.326  19.367  0.00  0.00    +0.000 HD
BRANCH  14  17
ATOM     17  C   UNL     1       9.886  10.874  18.876  0.00  0.00    +0.000 A 
ATOM     18  C   UNL     1      10.738  11.469  17.930  0.00  0.00    +0.000 A 
ATOM     19  C   UNL     1      11.766  12.323  18.329  0.00  0.00    +0.000 A 
ATOM     20  C   UNL     1      11.952  12.598  19.681  0.00  0.00    +0.000 A 
ATOM     21  C   UNL     1      11.117  12.012  20.635  0.00  0.00    +0.000 A 
ATOM     22  C   UNL     1      10.093  11.148  20.236  0.00  0.00    +0.000 A 
BRANCH  22  23
ATOM     23  O   UNL     1       9.303  10.574  21.201  0.00  0.00    +0.000 OA
ATOM     24  H   UNL     1       9.234   9.621  21.012  0.00  0.00    +0.000 HD
ENDBRANCH  22  23
ENDBRANCH  14  17
ENDBRANCH   2  13
TORSDOF 6
ENDMDL
MODEL 3
REMARK VINA RESULT:      -7.3      1.287      1.362
REMARK  Name = 
REMARK  7 active torsions:
REMARK  status: ('A' for Active; 'I' for Inactive)
REMARK    1  A    between atoms: C_1  and  O_2
REMARK    2  A    between atoms: O_2  and  C_3
REMARK    3  A    between atoms: C_7  and  C_8
REMARK    4  A    between atoms: N_9  and  N_10
REMARK    5  A    between atoms: C_11  and  C_13
REMARK    6  A    between atoms: C_18  and  O_19
REMARK    7  A    between atoms: C_20  and  O_21
REMARK                            x       y       z     vdW  Elec       q    Type
REMARK                         _______ _______ _______ _____ _____    ______ ____
ROOT
ATOM      1  C   UNL     1       7.994  10.071  17.834  0.00  0.00    +0.000 C 
ATOM      2  N   UNL     1       8.358   8.834  17.838  0.00  0.00    +0.000 NA
ENDROOT
BRANCH   1   7
ATOM      3  C   UNL     1       9.804  13.353  18.465  0.00  0.00    +0.000 A 
ATOM      4  C   UNL     1      10.701  12.930  19.455  0.00  0.00    +0.000 A 
ATOM      5  C   UNL     1      10.720  11.607  19.904  0.00  0.00    +0.000 A 
ATOM      6  C   UNL     1       9.832  10.678  19.366  0.00  0.00    +0.000 A 
ATOM      7  C   UNL     1       8.928  11.083  18.380  0.00  0.00    +0.000 A 
ATOM      8  C   UNL     1       8.910  12.420  17.924  0.00  0.00    +0.000 A 
BRANCH   3  10
ATOM      9  C   UNL     1       9.734  15.637  19.188  0.00  0.00    +0.000 C 
ATOM     10  O   UNL     1       9.937  14.680  18.153  0.00  0.00    +0.000 OA
ENDBRANCH   3  10
BRANCH   8  11
ATOM     11  O   UNL     1       8.024  12.822  16.956  0.00  0.00    +0.000 OA
ATOM     12  H   UNL     1       7.228  13.223  17.378  0.00  0.00    +0.000 HD
ENDBRANCH   8  11
ENDBRANCH   1   7
BRANCH   2  13
ATOM     13  N   UNL     1       7.517   7.906  17.341  0.00  0.00    +0.000 N 
ATOM     14  C   UNL     1       7.449   6.679  17.979  0.00  0.00    +0.000 C 
ATOM     15  O   UNL     1       8.111   6.395  18.976  0.00  0.00    +0.000 OA
ATOM     16  H   UNL     1       6.948   8.087  16.516  0.00  0.00    +0.000 HD
BRANCH  14  17
ATOM     17  C   UNL     1       6.509   5.671  17.407  0.00  0.00    +0.000 A 
ATOM     18  C   UNL     1       5.472   5.221  18.245  0.00  0.00    +0.000 A 
ATOM     19  C   UNL     1       4.541   4.286  17.793  0.00  0.00    +0.000 A 
ATOM     20  C   UNL     1       4.631   3.793  16.494  0.00  0.00    +0.000 A 
ATOM     21  C   UNL     1       5.656   4.226  15.650  0.00  0.00    +0.000 A 
ATOM     22  C   UNL     1       6.595   5.155  16.106  0.00  0.00    +0.000 A 
BRANCH  22  23
ATOM     23  O   UNL     1       7.601   5.545  15.257  0.00  0.00    +0.000 OA
ATOM     24  H   UNL     1       7.583   4.965  14.475  0.00  0.00    +0.000 HD
ENDBRANCH  22  23
ENDBRANCH  14  17
ENDBRANCH   2  13
TORSDOF 6
ENDMDL
MODEL 4
REMARK VINA RESULT:      -7.2      1.128      1.248
REMARK  Name = 
REMARK  7 active torsions:
REMARK  status: ('A' for Active; 'I' for Inactive)
REMARK    1  A    between atoms: C_1  and  O_2
REMARK    2  A    between atoms: O_2  and  C_3
REMARK    3  A    between atoms: C_7  and  C_8
REMARK    4  A    between atoms: N_9  and  N_10
REMARK    5  A    between atoms: C_11  and  C_13
REMARK    6  A    between atoms: C_18  and  O_19
REMARK    7  A    between atoms: C_20  and  O_21
REMARK                            x       y       z     vdW  Elec       q    Type
REMARK                         _______ _______ _______ _____ _____    ______ ____
ROOT
ATOM      1  C   UNL     1       8.197  10.200  17.791  0.00  0.00    +0.000 C 
ATOM      2  N   UNL     1       8.415   8.948  18.009  0.00  0.00    +0.000 NA
ENDROOT
BRANCH   1   7
ATOM      3  C   UNL     1       9.958  13.458  18.641  0.00  0.00    +0.000 A 
ATOM      4  C   UNL     1      10.789  13.003  19.674  0.00  0.00    +0.000 A 
ATOM      5  C   UNL     1      10.780  11.667  20.082  0.00  0.00    +0.000 A 
ATOM      6  C   UNL     1       9.931  10.756  19.458  0.00  0.00    +0.000 A 
ATOM      7  C   UNL     1       9.092  11.193  18.428  0.00  0.00    +0.000 A 
ATOM      8  C   UNL     1       9.102  12.543  18.015  0.00  0.00    +0.000 A 
BRANCH   3  10
ATOM      9  C   UNL     1      10.995  15.180  17.336  0.00  0.00    +0.000 C 
ATOM     10  O   UNL     1      10.109  14.794  18.381  0.00  0.00    +0.000 OA
ENDBRANCH   3  10
BRANCH   8  11
ATOM     11  O   UNL     1       8.280  12.976  17.004  0.00  0.00    +0.000 OA
ATOM     12  H   UNL     1       7.359  12.663  17.166  0.00  0.00    +0.000 HD
ENDBRANCH   8  11
ENDBRANCH   1   7
BRANCH   2  13
ATOM     13  N   UNL     1       7.609   8.035  17.432  0.00  0.00    +0.000 N 
ATOM     14  C   UNL     1       7.532   6.777  18.005  0.00  0.00    +0.000 C 
ATOM     15  O   UNL     1       8.157   6.451  19.014  0.00  0.00    +0.000 OA
ATOM     16  H   UNL     1       7.071   8.250  16.594  0.00  0.00    +0.000 HD
BRANCH  14  17
ATOM     17  C   UNL     1       6.630   5.788  17.345  0.00  0.00    +0.000 A 
ATOM     18  C   UNL     1       6.859   5.528  15.982  0.00  0.00    +0.000 A 
ATOM     19  C   UNL     1       6.072   4.612  15.286  0.00  0.00    +0.000 A 
ATOM     20  C   UNL     1       5.047   3.938  15.945  0.00  0.00    +0.000 A 
ATOM     21  C   UNL     1       4.803   4.186  17.298  0.00  0.00    +0.000 A 
ATOM     22  C   UNL     1       5.586   5.112  17.994  0.00  0.00    +0.000 A 
BRANCH  22  23
ATOM     23  O   UNL     1       5.307   5.347  19.317  0.00  0.00    +0.000 OA
ATOM     24  H   UNL     1       5.973   5.967  19.664  0.00  0.00    +0.000 HD
ENDBRANCH  22  23
ENDBRANCH  14  17
ENDBRANCH   2  13
TORSDOF 6
ENDMDL
MODEL 5
REMARK VINA RESULT:      -7.1      1.736      8.646
REMARK  Name = 
REMARK  7 active torsions:
REMARK  status: ('A' for Active; 'I' for Inactive)
REMARK    1  A    between atoms: C_1  and  O_2
REMARK    2  A    between atoms: O_2  and  C_3
REMARK    3  A    between atoms: C_7  and  C_8
REMARK    4  A    between atoms: N_9  and  N_10
REMARK    5  A    between atoms: C_11  and  C_13
REMARK    6  A    between atoms: C_18  and  O_19
REMARK    7  A    between atoms: C_20  and  O_21
REMARK                            x       y       z     vdW  Elec       q    Type
REMARK                         _______ _______ _______ _____ _____    ______ ____
ROOT
ATOM      1  C   UNL     1       8.082   7.506  18.335  0.00  0.00    +0.000 C 
ATOM      2  N   UNL     1       8.036   8.756  18.024  0.00  0.00    +0.000 NA
ENDROOT
BRANCH   1   7
ATOM      3  C   UNL     1       5.468   4.747  18.309  0.00  0.00    +0.000 A 
ATOM      4  C   UNL     1       4.832   5.050  17.097  0.00  0.00    +0.000 A 
ATOM      5  C   UNL     1       5.246   6.124  16.305  0.00  0.00    +0.000 A 
ATOM      6  C   UNL     1       6.312   6.921  16.716  0.00  0.00    +0.000 A 
ATOM      7  C   UNL     1       6.956   6.635  17.924  0.00  0.00    +0.000 A 
ATOM      8  C   UNL     1       6.539   5.549  18.725  0.00  0.00    +0.000 A 
BRANCH   3  10
ATOM      9  C   UNL     1       3.931   2.909  18.254  0.00  0.00    +0.000 C 
ATOM     10  O   UNL     1       4.926   3.660  18.942  0.00  0.00    +0.000 OA
ENDBRANCH   3  10
BRANCH   8  11
ATOM     11  O   UNL     1       7.169   5.265  19.910  0.00  0.00    +0.000 OA
ATOM     12  H   UNL     1       6.883   5.907  20.602  0.00  0.00    +0.000 HD
ENDBRANCH   8  11
ENDBRANCH   1   7
BRANCH   2  13
ATOM     13  N   UNL     1       9.056   9.557  18.390  0.00  0.00    +0.000 N 
ATOM     14  C   UNL     1       8.973  10.903  18.077  0.00  0.00    +0.000 C 
ATOM     15  O   UNL     1       8.017  11.406  17.488  0.00  0.00    +0.000 OA
ATOM     16  H   UNL     1       9.873   9.194  18.877  0.00  0.00    +0.000 HD
BRANCH  14  17
ATOM     17  C   UNL     1      10.116  11.767  18.496  0.00  0.00    +0.000 A 
ATOM     18  C   UNL     1      10.959  11.262  19.502  0.00  0.00    +0.000 A 
ATOM     19  C   UNL     1      12.057  11.995  19.950  0.00  0.00    +0.000 A 
ATOM     20  C   UNL     1      12.330  13.242  19.394  0.00  0.00    +0.000 A 
ATOM     21  C   UNL     1      11.501  13.760  18.396  0.00  0.00    +0.000 A 
ATOM     22  C   UNL     1      10.395  13.030  17.954  0.00  0.00    +0.000 A 
BRANCH  22  23
ATOM     23  O   UNL     1       9.589  13.577  16.986  0.00  0.00    +0.000 OA
ATOM     24  H   UNL     1       9.759  13.111  16.148  0.00  0.00    +0.000 HD
ENDBRANCH  22  23
ENDBRANCH  14  17
ENDBRANCH   2  13
TORSDOF 6
ENDMDL
MODEL 6
REMARK VINA RESULT:      -7.1      2.151      8.378
REMARK  Name = 
REMARK  7 active torsions:
REMARK  status: ('A' for Active; 'I' for Inactive)
REMARK    1  A    between atoms: C_1  and  O_2
REMARK    2  A    between atoms: O_2  and  C_3
REMARK    3  A    between atoms: C_7  and  C_8
REMARK    4  A    between atoms: N_9  and  N_10
REMARK    5  A    between atoms: C_11  and  C_13
REMARK    6  A    between atoms: C_18  and  O_19
REMARK    7  A    between atoms: C_20  and  O_21
REMARK                            x       y       z     vdW  Elec       q    Type
REMARK                         _______ _______ _______ _____ _____    ______ ____
ROOT
ATOM      1  C   UNL     1       7.949   7.722  17.666  0.00  0.00    +0.000 C 
ATOM      2  N   UNL     1       7.648   8.969  17.803  0.00  0.00    +0.000 NA
ENDROOT
BRANCH   1   7
ATOM      3  C   UNL     1       5.805   4.728  18.603  0.00  0.00    +0.000 A 
ATOM      4  C   UNL     1       4.761   4.901  17.684  0.00  0.00    +0.000 A 
ATOM      5  C   UNL     1       4.756   5.964  16.777  0.00  0.00    +0.000 A 
ATOM      6  C   UNL     1       5.805   6.881  16.777  0.00  0.00    +0.000 A 
ATOM      7  C   UNL     1       6.853   6.726  17.689  0.00  0.00    +0.000 A 
ATOM      8  C   UNL     1       6.859   5.651  18.604  0.00  0.00    +0.000 A 
BRANCH   3  10
ATOM      9  C   UNL     1       4.314   3.145  19.612  0.00  0.00    +0.000 C 
ATOM     10  O   UNL     1       5.637   3.630  19.405  0.00  0.00    +0.000 OA
ENDBRANCH   3  10
BRANCH   8  11
ATOM     11  O   UNL     1       7.886   5.494  19.501  0.00  0.00    +0.000 OA
ATOM     12  H   UNL     1       8.377   4.662  19.304  0.00  0.00    +0.000 HD
ENDBRANCH   8  11
ENDBRANCH   1   7
BRANCH   2  13
ATOM     13  N   UNL     1       8.636   9.884  17.780  0.00  0.00    +0.000 N 
ATOM     14  C   UNL     1       9.193  10.274  18.987  0.00  0.00    +0.000 C 
ATOM     15  O   UNL     1       8.836   9.825  20.075  0.00  0.00    +0.000 OA
ATOM     16  H   UNL     1       8.969  10.291  16.908  0.00  0.00    +0.000 HD
BRANCH  14  17
ATOM     17  C   UNL     1      10.286  11.288  18.931  0.00  0.00    +0.000 A 
ATOM     18  C   UNL     1      10.818  11.582  17.663  0.00  0.00    +0.000 A 
ATOM     19  C   UNL     1      11.836  12.523  17.513  0.00  0.00    +0.000 A 
ATOM     20  C   UNL     1      12.333  13.187  18.631  0.00  0.00    +0.000 A 
ATOM     21  C   UNL     1      11.820  12.905  19.899  0.00  0.00    +0.000 A 
ATOM     22  C   UNL     1      10.806  11.955  20.050  0.00  0.00    +0.000 A 
BRANCH  22  23
ATOM     23  O   UNL     1      10.338  11.687  21.312  0.00  0.00    +0.000 OA
ATOM     24  H   UNL     1      11.087  11.394  21.861  0.00  0.00    +0.000 HD
ENDBRANCH  22  23
ENDBRANCH  14  17
ENDBRANCH   2  13
TORSDOF 6
ENDMDL
MODEL 7
REMARK VINA RESULT:      -7.0      2.225      8.541
REMARK  Name = 
REMARK  7 active torsions:
REMARK  status: ('A' for Active; 'I' for Inactive)
REMARK    1  A    between atoms: C_1  and  O_2
REMARK    2  A    between atoms: O_2  and  C_3
REMARK    3  A    between atoms: C_7  and  C_8
REMARK    4  A    between atoms: N_9  and  N_10
REMARK    5  A    between atoms: C_11  and  C_13
REMARK    6  A    between atoms: C_18  and  O_19
REMARK    7  A    between atoms: C_20  and  O_21
REMARK                            x       y       z     vdW  Elec       q    Type
REMARK                         _______ _______ _______ _____ _____    ______ ____
ROOT
ATOM      1  C   UNL     1       7.924   6.616  17.974  0.00  0.00    +0.000 C 
ATOM      2  N   UNL     1       7.675   7.855  18.234  0.00  0.00    +0.000 NA
ENDROOT
BRANCH   1   7
ATOM      3  C   UNL     1       4.815   4.431  17.894  0.00  0.00    +0.000 A 
ATOM      4  C   UNL     1       4.755   4.174  16.518  0.00  0.00    +0.000 A 
ATOM      5  C   UNL     1       5.705   4.696  15.636  0.00  0.00    +0.000 A 
ATOM      6  C   UNL     1       6.740   5.492  16.121  0.00  0.00    +0.000 A 
ATOM      7  C   UNL     1       6.815   5.761  17.491  0.00  0.00    +0.000 A 
ATOM      8  C   UNL     1       5.855   5.233  18.383  0.00  0.00    +0.000 A 
BRANCH   3  10
ATOM      9  C   UNL     1       4.053   2.564  19.190  0.00  0.00    +0.000 C 
ATOM     10  O   UNL     1       3.802   3.834  18.595  0.00  0.00    +0.000 OA
ENDBRANCH   3  10
BRANCH   8  11
ATOM     11  O   UNL     1       5.924   5.495  19.728  0.00  0.00    +0.000 OA
ATOM     12  H   UNL     1       6.017   4.650  20.228  0.00  0.00    +0.000 HD
ENDBRANCH   8  11
ENDBRANCH   1   7
BRANCH   2  13
ATOM     13  N   UNL     1       8.677   8.643  18.670  0.00  0.00    +0.000 N 
ATOM     14  C   UNL     1       8.679   9.972  18.281  0.00  0.00    +0.000 C 
ATOM     15  O   UNL     1       7.812  10.470  17.563  0.00  0.00    +0.000 OA
ATOM     16  H   UNL     1       9.422   8.282  19.264  0.00  0.00    +0.000 HD
BRANCH  14  17
ATOM     17  C   UNL     1       9.800  10.821  18.780  0.00  0.00    +0.000 A 
ATOM     18  C   UNL     1      10.640  11.398  17.811  0.00  0.00    +0.000 A 
ATOM     19  C   UNL     1      11.708  12.214  18.185  0.00  0.00    +0.000 A 
ATOM     20  C   UNL     1      11.946  12.468  19.533  0.00  0.00    +0.000 A 
ATOM     21  C   UNL     1      11.124  11.900  20.508  0.00  0.00    +0.000 A 
ATOM     22  C   UNL     1      10.059  11.074  20.135  0.00  0.00    +0.000 A 
BRANCH  22  23
ATOM     23  O   UNL     1       9.283  10.516  21.119  0.00  0.00    +0.000 OA
ATOM     24  H   UNL     1       8.975  11.230  21.706  0.00  0.00    +0.000 HD
ENDBRANCH  22  23
ENDBRANCH  14  17
ENDBRANCH   2  13
TORSDOF 6
ENDMDL
MODEL 8
REMARK VINA RESULT:      -6.9      2.085      8.695
REMARK  Name = 
REMARK  7 active torsions:
REMARK  status: ('A' for Active; 'I' for Inactive)
REMARK    1  A    between atoms: C_1  and  O_2
REMARK    2  A    between atoms: O_2  and  C_3
REMARK    3  A    between atoms: C_7  and  C_8
REMARK    4  A    between atoms: N_9  and  N_10
REMARK    5  A    between atoms: C_11  and  C_13
REMARK    6  A    between atoms: C_18  and  O_19
REMARK    7  A    between atoms: C_20  and  O_21
REMARK                            x       y       z     vdW  Elec       q    Type
REMARK                         _______ _______ _______ _____ _____    ______ ____
ROOT
ATOM      1  C   UNL     1       7.578   6.462  18.562  0.00  0.00    +0.000 C 
ATOM      2  N   UNL     1       7.932   7.569  18.004  0.00  0.00    +0.000 NA
ENDROOT
BRANCH   1   7
ATOM      3  C   UNL     1       4.744   4.139  17.554  0.00  0.00    +0.000 A 
ATOM      4  C   UNL     1       5.198   3.768  16.281  0.00  0.00    +0.000 A 
ATOM      5  C   UNL     1       6.400   4.258  15.764  0.00  0.00    +0.000 A 
ATOM      6  C   UNL     1       7.174   5.137  16.518  0.00  0.00    +0.000 A 
ATOM      7  C   UNL     1       6.735   5.521  17.789  0.00  0.00    +0.000 A 
ATOM      8  C   UNL     1       5.521   5.025  18.313  0.00  0.00    +0.000 A 
BRANCH   3  10
ATOM      9  C   UNL     1       3.553   2.180  18.253  0.00  0.00    +0.000 C 
ATOM     10  O   UNL     1       3.551   3.556  17.888  0.00  0.00    +0.000 OA
ENDBRANCH   3  10
BRANCH   8  11
ATOM     11  O   UNL     1       5.086   5.399  19.560  0.00  0.00    +0.000 OA
ATOM     12  H   UNL     1       4.846   6.355  19.556  0.00  0.00    +0.000 HD
ENDBRANCH   8  11
ENDBRANCH   1   7
BRANCH   2  13
ATOM     13  N   UNL     1       8.702   8.431  18.696  0.00  0.00    +0.000 N 
ATOM     14  C   UNL     1       8.656   9.771  18.349  0.00  0.00    +0.000 C 
ATOM     15  O   UNL     1       7.948  10.214  17.446  0.00  0.00    +0.000 OA
ATOM     16  H   UNL     1       9.310   8.118  19.452  0.00  0.00    +0.000 HD
BRANCH  14  17
ATOM     17  C   UNL     1       9.518  10.703  19.134  0.00  0.00    +0.000 A 
ATOM     18  C   UNL     1       9.189  10.885  20.489  0.00  0.00    +0.000 A 
ATOM     19  C   UNL     1       9.944  11.730  21.301  0.00  0.00    +0.000 A 
ATOM     20  C   UNL     1      11.042  12.401  20.771  0.00  0.00    +0.000 A 
ATOM     21  C   UNL     1      11.382  12.235  19.426  0.00  0.00    +0.000 A 
ATOM     22  C   UNL     1      10.619  11.395  18.609  0.00  0.00    +0.000 A 
BRANCH  22  23
ATOM     23  O   UNL     1      10.968  11.269  17.287  0.00  0.00    +0.000 OA
ATOM     24  H   UNL     1      10.974  10.322  17.062  0.00  0.00    +0.000 HD
ENDBRANCH  22  23
ENDBRANCH  14  17
ENDBRANCH   2  13
TORSDOF 6
ENDMDL
MODEL 9
REMARK VINA RESULT:      -6.7      6.891     10.162
REMARK  Name = 
REMARK  7 active torsions:
REMARK  status: ('A' for Active; 'I' for Inactive)
REMARK    1  A    between atoms: C_1  and  O_2
REMARK    2  A    between atoms: O_2  and  C_3
REMARK    3  A    between atoms: C_7  and  C_8
REMARK    4  A    between atoms: N_9  and  N_10
REMARK    5  A    between atoms: C_11  and  C_13
REMARK    6  A    between atoms: C_18  and  O_19
REMARK    7  A    between atoms: C_20  and  O_21
REMARK                            x       y       z     vdW  Elec       q    Type
REMARK                         _______ _______ _______ _____ _____    ______ ____
ROOT
ATOM      1  C   UNL     1       2.536   7.624  18.150  0.00  0.00    +0.000 C 
ATOM      2  N   UNL     1       2.205   7.819  19.381  0.00  0.00    +0.000 NA
ENDROOT
BRANCH   1   7
ATOM      3  C   UNL     1       4.139   4.178  18.116  0.00  0.00    +0.000 A 
ATOM      4  C   UNL     1       5.161   4.413  17.186  0.00  0.00    +0.000 A 
ATOM      5  C   UNL     1       5.327   5.664  16.586  0.00  0.00    +0.000 A 
ATOM      6  C   UNL     1       4.465   6.710  16.909  0.00  0.00    +0.000 A 
ATOM      7  C   UNL     1       3.439   6.493  17.834  0.00  0.00    +0.000 A 
ATOM      8  C   UNL     1       3.271   5.229  18.441  0.00  0.00    +0.000 A 
BRANCH   3  10
ATOM      9  C   UNL     1       3.294   1.941  17.961  0.00  0.00    +0.000 C 
ATOM     10  O   UNL     1       4.137   2.896  18.597  0.00  0.00    +0.000 OA
ENDBRANCH   3  10
BRANCH   8  11
ATOM     11  O   UNL     1       2.265   5.011  19.349  0.00  0.00    +0.000 OA
ATOM     12  H   UNL     1       2.046   5.854  19.812  0.00  0.00    +0.000 HD
ENDBRANCH   8  11
ENDBRANCH   1   7
BRANCH   2  13
ATOM     13  N   UNL     1       1.382   8.843  19.680  0.00  0.00    +0.000 N 
ATOM     14  C   UNL     1       0.881   8.923  20.968  0.00  0.00    +0.000 C 
ATOM     15  O   UNL     1       1.152   8.112  21.853  0.00  0.00    +0.000 OA
ATOM     16  H   UNL     1       1.123   9.542  18.986  0.00  0.00    +0.000 HD
BRANCH  14  17
ATOM     17  C   UNL     1      -0.027  10.068  21.272  0.00  0.00    +0.000 A 
ATOM     18  C   UNL     1      -0.567  10.759  20.173  0.00  0.00    +0.000 A 
ATOM     19  C   UNL     1      -1.432  11.837  20.360  0.00  0.00    +0.000 A 
ATOM     20  C   UNL     1      -1.773  12.234  21.650  0.00  0.00    +0.000 A 
ATOM     21  C   UNL     1      -1.243  11.561  22.753  0.00  0.00    +0.000 A 
ATOM     22  C   UNL     1      -0.368  10.487  22.566  0.00  0.00    +0.000 A 
BRANCH  22  23
ATOM     23  O   UNL     1       0.151   9.860  23.671  0.00  0.00    +0.000 OA
ATOM     24  H   UNL     1       0.937  10.356  23.963  0.00  0.00    +0.000 HD
ENDBRANCH  22  23
ENDBRANCH  14  17
ENDBRANCH   2  13
TORSDOF 6
ENDMDL
