MODEL 1
REMARK VINA RESULT:      -7.3      0.000      0.000
REMARK  Name = 
REMARK  7 active torsions:
REMARK  status: ('A' for Active; 'I' for Inactive)
REMARK    1  A    between atoms: C_1  and  O_2
REMARK    2  A    between atoms: O_2  and  C_3
REMARK    3  A    between atoms: C_6  and  S_7
REMARK    4  A    between atoms: S_7  and  N_10
REMARK    5  A    between atoms: N_10  and  C_11
REMARK    6  A    between atoms: N_20  and  C_21
REMARK    7  A    between atoms: C_21  and  C_22
REMARK                            x       y       z     vdW  Elec       q    Type
REMARK                         _______ _______ _______ _____ _____    ______ ____
ROOT
ATOM      1  C   UNL     1       0.470  11.281  19.737  0.00  0.00    +0.000 C 
ATOM      2  C   UNL     1       1.889  11.654  19.328  0.00  0.00    +0.000 C 
ATOM      3  C   UNL     1       2.200  10.639  18.235  0.00  0.00    +0.000 C 
ATOM      4  N   UNL     1       1.514   9.419  18.661  0.00  0.00    +0.000 N 
ATOM      5  C   UNL     1       2.112   8.166  18.627  0.00  0.00    +0.000 A 
ATOM      6  C   UNL     1       3.049   7.849  17.519  0.00  0.00    +0.000 A 
ATOM      7  C   UNL     1       3.737   6.715  17.568  0.00  0.00    +0.000 A 
ATOM      8  C   UNL     1       3.558   5.779  18.687  0.00  0.00    +0.000 A 
ATOM      9  O   UNL     1       4.297   4.799  18.753  0.00  0.00    +0.000 OA
ATOM     10  N   UNL     1       2.549   6.094  19.586  0.00  0.00    +0.000 N 
ATOM     11  N   UNL     1       1.852   7.292  19.565  0.00  0.00    +0.000 NA
ATOM     12  C   UNL     1       0.523   9.747  19.689  0.00  0.00    +0.000 C 
ENDROOT
BRANCH   1  13
ATOM     13  N   UNL     1       0.165  11.831  21.061  0.00  0.00    +0.000 NA
ATOM     14  H   UNL     1       0.128  11.237  21.887  0.00  0.00    +0.000 HD
BRANCH  13  15
ATOM     15  S   UNL     1      -0.388  13.396  21.255  0.00  0.00    +0.000 S 
ATOM     16  O   UNL     1      -0.252  14.064  19.980  0.00  0.00    +0.000 OA
ATOM     17  O   UNL     1       0.218  13.902  22.466  0.00  0.00    +0.000 OA
BRANCH  15  21
ATOM     18  C   UNL     1      -4.808  12.632  22.101  0.00  0.00    +0.000 A 
ATOM     19  C   UNL     1      -4.371  12.877  20.793  0.00  0.00    +0.000 A 
ATOM     20  C   UNL     1      -3.025  13.139  20.532  0.00  0.00    +0.000 A 
ATOM     21  C   UNL     1      -2.114  13.177  21.588  0.00  0.00    +0.000 A 
ATOM     22  C   UNL     1      -2.539  12.991  22.906  0.00  0.00    +0.000 A 
ATOM     23  C   UNL     1      -3.884  12.710  23.157  0.00  0.00    +0.000 A 
ATOM     24 CL   UNL     1      -4.357  12.410  24.792  0.00  0.00    +0.000 Cl
BRANCH  18  26
ATOM     25  C   UNL     1      -7.091  12.830  21.501  0.00  0.00    +0.000 C 
ATOM     26  O   UNL     1      -6.112  12.345  22.415  0.00  0.00    +0.000 OA
ENDBRANCH  18  26
ENDBRANCH  15  21
ENDBRANCH  13  15
ENDBRANCH   1  13
BRANCH  10  27
ATOM     27  C   UNL     1       2.377   5.253  20.767  0.00  0.00    +0.000 C 
BRANCH  27  28
ATOM     28  C   UNL     1       1.215   4.309  20.644  0.00  0.00    +0.000 C 
ATOM     29  C   UNL     1       1.158   3.164  19.658  0.00  0.00    +0.000 C 
ATOM     30  C   UNL     1       1.383   2.881  21.115  0.00  0.00    +0.000 C 
ENDBRANCH  27  28
ENDBRANCH  10  27
TORSDOF 6
ENDMDL
MODEL 2
REMARK VINA RESULT:      -7.1      2.357      2.680
REMARK  Name = 
REMARK  7 active torsions:
REMARK  status: ('A' for Active; 'I' for Inactive)
REMARK    1  A    between atoms: C_1  and  O_2
REMARK    2  A    between atoms: O_2  and  C_3
REMARK    3  A    between atoms: C_6  and  S_7
REMARK    4  A    between atoms: S_7  and  N_10
REMARK    5  A    between atoms: N_10  and  C_11
REMARK    6  A    between atoms: N_20  and  C_21
REMARK    7  A    between atoms: C_21  and  C_22
REMARK                            x       y       z     vdW  Elec       q    Type
REMARK                         _______ _______ _______ _____ _____    ______ ____
ROOT
ATOM      1  C   UNL     1       0.430  10.774  18.864  0.00  0.00    +0.000 C 
ATOM      2  C   UNL     1       1.868  11.248  18.697  0.00  0.00    +0.000 C 
ATOM      3  C   UNL     1       2.463  10.191  17.776  0.00  0.00    +0.000 C 
ATOM      4  N   UNL     1       1.804   8.945  18.172  0.00  0.00    +0.000 N 
ATOM      5  C   UNL     1       2.493   7.754  18.362  0.00  0.00    +0.000 A 
ATOM      6  C   UNL     1       3.650   7.447  17.482  0.00  0.00    +0.000 A 
ATOM      7  C   UNL     1       4.401   6.389  17.759  0.00  0.00    +0.000 A 
ATOM      8  C   UNL     1       4.082   5.524  18.903  0.00  0.00    +0.000 A 
ATOM      9  O   UNL     1       4.868   4.624  19.193  0.00  0.00    +0.000 OA
ATOM     10  N   UNL     1       2.896   5.807  19.566  0.00  0.00    +0.000 N 
ATOM     11  N   UNL     1       2.125   6.930  19.309  0.00  0.00    +0.000 NA
ATOM     12  C   UNL     1       0.610   9.252  18.963  0.00  0.00    +0.000 C 
ENDROOT
BRANCH   1  13
ATOM     13  N   UNL     1      -0.168  11.387  20.054  0.00  0.00    +0.000 NA
ATOM     14  H   UNL     1      -0.235  10.882  20.935  0.00  0.00    +0.000 HD
BRANCH  13  15
ATOM     15  S   UNL     1      -1.000  12.835  19.971  0.00  0.00    +0.000 S 
ATOM     16  O   UNL     1      -0.383  13.629  18.933  0.00  0.00    +0.000 OA
ATOM     17  O   UNL     1      -1.145  13.307  21.329  0.00  0.00    +0.000 OA
BRANCH  15  21
ATOM     18  C   UNL     1      -5.166  11.752  18.448  0.00  0.00    +0.000 A 
ATOM     19  C   UNL     1      -4.999  12.290  19.731  0.00  0.00    +0.000 A 
ATOM     20  C   UNL     1      -3.726  12.596  20.212  0.00  0.00    +0.000 A 
ATOM     21  C   UNL     1      -2.609  12.345  19.415  0.00  0.00    +0.000 A 
ATOM     22  C   UNL     1      -2.749  11.758  18.154  0.00  0.00    +0.000 A 
ATOM     23  C   UNL     1      -4.028  11.472  17.672  0.00  0.00    +0.000 A 
ATOM     24 CL   UNL     1      -4.164  10.818  16.077  0.00  0.00    +0.000 Cl
BRANCH  18  26
ATOM     25  C   UNL     1      -7.229  12.569  17.619  0.00  0.00    +0.000 C 
ATOM     26  O   UNL     1      -6.392  11.454  17.912  0.00  0.00    +0.000 OA
ENDBRANCH  18  26
ENDBRANCH  15  21
ENDBRANCH  13  15
ENDBRANCH   1  13
BRANCH  10  27
ATOM     27  C   UNL     1       2.563   5.041  20.763  0.00  0.00    +0.000 C 
BRANCH  27  28
ATOM     28  C   UNL     1       1.248   4.324  20.648  0.00  0.00    +0.000 C 
ATOM     29  C   UNL     1       0.951   3.267  19.609  0.00  0.00    +0.000 C 
ATOM     30  C   UNL     1       1.178   2.863  21.037  0.00  0.00    +0.000 C 
ENDBRANCH  27  28
ENDBRANCH  10  27
TORSDOF 6
ENDMDL
MODEL 3
REMARK VINA RESULT:      -7.1      5.623      8.986
REMARK  Name = 
REMARK  7 active torsions:
REMARK  status: ('A' for Active; 'I' for Inactive)
REMARK    1  A    between atoms: C_1  and  O_2
REMARK    2  A    between atoms: O_2  and  C_3
REMARK    3  A    between atoms: C_6  and  S_7
REMARK    4  A    between atoms: S_7  and  N_10
REMARK    5  A    between atoms: N_10  and  C_11
REMARK    6  A    between atoms: N_20  and  C_21
REMARK    7  A    between atoms: C_21  and  C_22
REMARK                            x       y       z     vdW  Elec       q    Type
REMARK                         _______ _______ _______ _____ _____    ______ ____
ROOT
ATOM      1  C   UNL     1       4.734   4.326  18.000  0.00  0.00    +0.000 C 
ATOM      2  C   UNL     1       6.228   4.069  18.146  0.00  0.00    +0.000 C 
ATOM      3  C   UNL     1       6.827   4.954  17.061  0.00  0.00    +0.000 C 
ATOM      4  N   UNL     1       5.853   4.909  15.969  0.00  0.00    +0.000 N 
ATOM      5  C   UNL     1       6.215   4.723  14.642  0.00  0.00    +0.000 A 
ATOM      6  C   UNL     1       7.481   5.328  14.153  0.00  0.00    +0.000 A 
ATOM      7  C   UNL     1       7.905   5.025  12.932  0.00  0.00    +0.000 A 
ATOM      8  C   UNL     1       7.125   4.126  12.071  0.00  0.00    +0.000 A 
ATOM      9  O   UNL     1       7.609   3.780  10.996  0.00  0.00    +0.000 OA
ATOM     10  N   UNL     1       5.885   3.740  12.562  0.00  0.00    +0.000 N 
ATOM     11  N   UNL     1       5.450   4.020  13.847  0.00  0.00    +0.000 NA
ATOM     12  C   UNL     1       4.575   4.399  16.474  0.00  0.00    +0.000 C 
ENDROOT
BRANCH   1  13
ATOM     13  N   UNL     1       3.971   3.246  18.633  0.00  0.00    +0.000 NA
ATOM     14  H   UNL     1       4.404   2.353  18.858  0.00  0.00    +0.000 HD
BRANCH  13  15
ATOM     15  S   UNL     1       2.308   3.318  18.785  0.00  0.00    +0.000 S 
ATOM     16  O   UNL     1       1.935   2.437  19.868  0.00  0.00    +0.000 OA
ATOM     17  O   UNL     1       1.765   3.185  17.452  0.00  0.00    +0.000 OA
BRANCH  15  21
ATOM     18  C   UNL     1       1.763   7.638  20.156  0.00  0.00    +0.000 A 
ATOM     19  C   UNL     1       1.545   6.580  21.048  0.00  0.00    +0.000 A 
ATOM     20  C   UNL     1       1.683   5.257  20.627  0.00  0.00    +0.000 A 
ATOM     21  C   UNL     1       2.021   4.988  19.300  0.00  0.00    +0.000 A 
ATOM     22  C   UNL     1       2.187   6.027  18.381  0.00  0.00    +0.000 A 
ATOM     23  C   UNL     1       2.067   7.349  18.815  0.00  0.00    +0.000 A 
ATOM     24 CL   UNL     1       2.356   8.608  17.665  0.00  0.00    +0.000 Cl
BRANCH  18  26
ATOM     25  C   UNL     1       1.192   9.205  21.838  0.00  0.00    +0.000 C 
ATOM     26  O   UNL     1       1.666   8.957  20.518  0.00  0.00    +0.000 OA
ENDBRANCH  18  26
ENDBRANCH  15  21
ENDBRANCH  13  15
ENDBRANCH   1  13
BRANCH  10  27
ATOM     27  C   UNL     1       5.097   2.780  11.795  0.00  0.00    +0.000 C 
BRANCH  27  28
ATOM     28  C   UNL     1       3.757   3.321  11.385  0.00  0.00    +0.000 C 
ATOM     29  C   UNL     1       3.513   4.094  10.109  0.00  0.00    +0.000 C 
ATOM     30  C   UNL     1       3.035   2.675  10.223  0.00  0.00    +0.000 C 
ENDBRANCH  27  28
ENDBRANCH  10  27
TORSDOF 6
ENDMDL
MODEL 4
REMARK VINA RESULT:      -7.1      3.031      4.309
REMARK  Name = 
REMARK  7 active torsions:
REMARK  status: ('A' for Active; 'I' for Inactive)
REMARK    1  A    between atoms: C_1  and  O_2
REMARK    2  A    between atoms: O_2  and  C_3
REMARK    3  A    between atoms: C_6  and  S_7
REMARK    4  A    between atoms: S_7  and  N_10
REMARK    5  A    between atoms: N_10  and  C_11
REMARK    6  A    between atoms: N_20  and  C_21
REMARK    7  A    between atoms: C_21  and  C_22
REMARK                            x       y       z     vdW  Elec       q    Type
REMARK                         _______ _______ _______ _____ _____    ______ ____
ROOT
ATOM      1  C   UNL     1       1.274   9.347  20.089  0.00  0.00    +0.000 C 
ATOM      2  C   UNL     1       0.075   8.572  20.621  0.00  0.00    +0.000 C 
ATOM      3  C   UNL     1       0.726   7.389  21.324  0.00  0.00    +0.000 C 
ATOM      4  N   UNL     1       1.902   7.079  20.510  0.00  0.00    +0.000 N 
ATOM      5  C   UNL     1       2.244   5.785  20.140  0.00  0.00    +0.000 A 
ATOM      6  C   UNL     1       1.996   4.677  21.097  0.00  0.00    +0.000 A 
ATOM      7  C   UNL     1       2.178   3.426  20.690  0.00  0.00    +0.000 A 
ATOM      8  C   UNL     1       2.637   3.145  19.322  0.00  0.00    +0.000 A 
ATOM      9  O   UNL     1       2.681   1.975  18.949  0.00  0.00    +0.000 OA
ATOM     10  N   UNL     1       2.988   4.251  18.560  0.00  0.00    +0.000 N 
ATOM     11  N   UNL     1       2.767   5.558  18.962  0.00  0.00    +0.000 NA
ATOM     12  C   UNL     1       2.202   8.212  19.631  0.00  0.00    +0.000 C 
ENDROOT
BRANCH   1  13
ATOM     13  N   UNL     1       0.854  10.251  19.015  0.00  0.00    +0.000 NA
ATOM     14  H   UNL     1       1.100  10.072  18.043  0.00  0.00    +0.000 HD
BRANCH  13  15
ATOM     15  S   UNL     1       0.181  11.746  19.339  0.00  0.00    +0.000 S 
ATOM     16  O   UNL     1       0.827  12.708  18.474  0.00  0.00    +0.000 OA
ATOM     17  O   UNL     1       0.159  11.887  20.778  0.00  0.00    +0.000 OA
BRANCH  15  21
ATOM     18  C   UNL     1      -4.124  11.426  17.856  0.00  0.00    +0.000 A 
ATOM     19  C   UNL     1      -3.838  12.083  19.060  0.00  0.00    +0.000 A 
ATOM     20  C   UNL     1      -2.527  12.160  19.532  0.00  0.00    +0.000 A 
ATOM     21  C   UNL     1      -1.498  11.558  18.808  0.00  0.00    +0.000 A 
ATOM     22  C   UNL     1      -1.770  10.850  17.634  0.00  0.00    +0.000 A 
ATOM     23  C   UNL     1      -3.081  10.794  17.158  0.00  0.00    +0.000 A 
ATOM     24 CL   UNL     1      -3.366   9.974  15.662  0.00  0.00    +0.000 Cl
BRANCH  18  26
ATOM     25  C   UNL     1      -6.075  12.575  17.161  0.00  0.00    +0.000 C 
ATOM     26  O   UNL     1      -5.388  11.339  17.330  0.00  0.00    +0.000 OA
ENDBRANCH  18  26
ENDBRANCH  15  21
ENDBRANCH  13  15
ENDBRANCH   1  13
BRANCH  10  27
ATOM     27  C   UNL     1       3.370   4.047  17.166  0.00  0.00    +0.000 C 
BRANCH  27  28
ATOM     28  C   UNL     1       4.803   4.407  16.896  0.00  0.00    +0.000 C 
ATOM     29  C   UNL     1       5.524   4.093  15.605  0.00  0.00    +0.000 C 
ATOM     30  C   UNL     1       5.104   5.504  15.899  0.00  0.00    +0.000 C 
ENDBRANCH  27  28
ENDBRANCH  10  27
TORSDOF 6
ENDMDL
MODEL 5
REMARK VINA RESULT:      -7.0      1.948      2.291
REMARK  Name = 
REMARK  7 active torsions:
REMARK  status: ('A' for Active; 'I' for Inactive)
REMARK    1  A    between atoms: C_1  and  O_2
REMARK    2  A    between atoms: O_2  and  C_3
REMARK    3  A    between atoms: C_6  and  S_7
REMARK    4  A    between atoms: S_7  and  N_10
REMARK    5  A    between atoms: N_10  and  C_11
REMARK    6  A    between atoms: N_20  and  C_21
REMARK    7  A    between atoms: C_21  and  C_22
REMARK                            x       y       z     vdW  Elec       q    Type
REMARK                         _______ _______ _______ _____ _____    ______ ____
ROOT
ATOM      1  C   UNL     1       0.170  10.708  18.732  0.00  0.00    +0.000 C 
ATOM      2  C   UNL     1       1.594  11.238  18.636  0.00  0.00    +0.000 C 
ATOM      3  C   UNL     1       2.281  10.197  17.762  0.00  0.00    +0.000 C 
ATOM      4  N   UNL     1       1.652   8.930  18.138  0.00  0.00    +0.000 N 
ATOM      5  C   UNL     1       2.377   7.770  18.379  0.00  0.00    +0.000 A 
ATOM      6  C   UNL     1       3.591   7.501  17.567  0.00  0.00    +0.000 A 
ATOM      7  C   UNL     1       4.369   6.477  17.897  0.00  0.00    +0.000 A 
ATOM      8  C   UNL     1       4.023   5.612  19.033  0.00  0.00    +0.000 A 
ATOM      9  O   UNL     1       4.827   4.748  19.376  0.00  0.00    +0.000 OA
ATOM     10  N   UNL     1       2.792   5.854  19.627  0.00  0.00    +0.000 N 
ATOM     11  N   UNL     1       1.992   6.941  19.315  0.00  0.00    +0.000 NA
ATOM     12  C   UNL     1       0.405   9.196  18.859  0.00  0.00    +0.000 C 
ENDROOT
BRANCH   1  13
ATOM     13  N   UNL     1      -0.516  11.309  19.879  0.00  0.00    +0.000 NA
ATOM     14  H   UNL     1      -1.207  12.046  19.758  0.00  0.00    +0.000 HD
BRANCH  13  15
ATOM     15  S   UNL     1      -0.028  11.009  21.449  0.00  0.00    +0.000 S 
ATOM     16  O   UNL     1       1.381  11.325  21.531  0.00  0.00    +0.000 OA
ATOM     17  O   UNL     1      -0.555   9.712  21.807  0.00  0.00    +0.000 OA
BRANCH  15  21
ATOM     18  C   UNL     1      -2.454  14.146  23.710  0.00  0.00    +0.000 A 
ATOM     19  C   UNL     1      -1.263  14.504  23.064  0.00  0.00    +0.000 A 
ATOM     20  C   UNL     1      -0.503  13.543  22.396  0.00  0.00    +0.000 A 
ATOM     21  C   UNL     1      -0.924  12.214  22.389  0.00  0.00    +0.000 A 
ATOM     22  C   UNL     1      -2.079  11.827  23.075  0.00  0.00    +0.000 A 
ATOM     23  C   UNL     1      -2.845  12.797  23.725  0.00  0.00    +0.000 A 
ATOM     24 CL   UNL     1      -4.307  12.291  24.496  0.00  0.00    +0.000 Cl
BRANCH  18  26
ATOM     25  C   UNL     1      -2.755  15.538  25.602  0.00  0.00    +0.000 C 
ATOM     26  O   UNL     1      -3.254  15.049  24.362  0.00  0.00    +0.000 OA
ENDBRANCH  18  26
ENDBRANCH  15  21
ENDBRANCH  13  15
ENDBRANCH   1  13
BRANCH  10  27
ATOM     27  C   UNL     1       2.426   5.087  20.814  0.00  0.00    +0.000 C 
BRANCH  27  28
ATOM     28  C   UNL     1       1.196   4.249  20.610  0.00  0.00    +0.000 C 
ATOM     29  C   UNL     1       1.055   3.207  19.524  0.00  0.00    +0.000 C 
ATOM     30  C   UNL     1       1.252   2.776  20.949  0.00  0.00    +0.000 C 
ENDBRANCH  27  28
ENDBRANCH  10  27
TORSDOF 6
ENDMDL
MODEL 6
REMARK VINA RESULT:      -7.0      4.511     10.293
REMARK  Name = 
REMARK  7 active torsions:
REMARK  status: ('A' for Active; 'I' for Inactive)
REMARK    1  A    between atoms: C_1  and  O_2
REMARK    2  A    between atoms: O_2  and  C_3
REMARK    3  A    between atoms: C_6  and  S_7
REMARK    4  A    between atoms: S_7  and  N_10
REMARK    5  A    between atoms: N_10  and  C_11
REMARK    6  A    between atoms: N_20  and  C_21
REMARK    7  A    between atoms: C_21  and  C_22
REMARK                            x       y       z     vdW  Elec       q    Type
REMARK                         _______ _______ _______ _____ _____    ______ ____
ROOT
ATOM      1  C   UNL     1       1.319   7.734  20.119  0.00  0.00    +0.000 C 
ATOM      2  C   UNL     1       1.135   7.872  21.624  0.00  0.00    +0.000 C 
ATOM      3  C   UNL     1       0.140   9.020  21.736  0.00  0.00    +0.000 C 
ATOM      4  N   UNL     1       0.486   9.915  20.632  0.00  0.00    +0.000 N 
ATOM      5  C   UNL     1       0.589  11.292  20.781  0.00  0.00    +0.000 A 
ATOM      6  C   UNL     1      -0.341  11.984  21.710  0.00  0.00    +0.000 A 
ATOM      7  C   UNL     1      -0.146  13.271  21.971  0.00  0.00    +0.000 A 
ATOM      8  C   UNL     1       0.958  14.003  21.334  0.00  0.00    +0.000 A 
ATOM      9  O   UNL     1       1.174  15.159  21.690  0.00  0.00    +0.000 OA
ATOM     10  N   UNL     1       1.671  13.307  20.368  0.00  0.00    +0.000 N 
ATOM     11  N   UNL     1       1.499  11.956  20.116  0.00  0.00    +0.000 NA
ATOM     12  C   UNL     1       1.328   9.202  19.668  0.00  0.00    +0.000 C 
ENDROOT
BRANCH   1  13
ATOM     13  N   UNL     1       2.557   7.008  19.825  0.00  0.00    +0.000 NA
ATOM     14  H   UNL     1       3.415   7.498  19.578  0.00  0.00    +0.000 HD
BRANCH  13  15
ATOM     15  S   UNL     1       2.576   5.348  19.626  0.00  0.00    +0.000 S 
ATOM     16  O   UNL     1       1.413   4.994  18.844  0.00  0.00    +0.000 OA
ATOM     17  O   UNL     1       2.839   4.778  20.928  0.00  0.00    +0.000 OA
BRANCH  15  21
ATOM     18  C   UNL     1       6.280   4.835  17.008  0.00  0.00    +0.000 A 
ATOM     19  C   UNL     1       5.017   4.462  16.528  0.00  0.00    +0.000 A 
ATOM     20  C   UNL     1       3.886   4.590  17.335  0.00  0.00    +0.000 A 
ATOM     21  C   UNL     1       4.018   5.076  18.635  0.00  0.00    +0.000 A 
ATOM     22  C   UNL     1       5.276   5.401  19.152  0.00  0.00    +0.000 A 
ATOM     23  C   UNL     1       6.401   5.288  18.332  0.00  0.00    +0.000 A 
ATOM     24 CL   UNL     1       7.928   5.773  18.983  0.00  0.00    +0.000 Cl
BRANCH  18  26
ATOM     25  C   UNL     1       7.238   4.780  14.843  0.00  0.00    +0.000 C 
ATOM     26  O   UNL     1       7.423   4.754  16.254  0.00  0.00    +0.000 OA
ENDBRANCH  18  26
ENDBRANCH  15  21
ENDBRANCH  13  15
ENDBRANCH   1  13
BRANCH  10  27
ATOM     27  C   UNL     1       2.833  13.948  19.760  0.00  0.00    +0.000 C 
BRANCH  27  28
ATOM     28  C   UNL     1       2.478  14.780  18.560  0.00  0.00    +0.000 C 
ATOM     29  C   UNL     1       2.861  16.232  18.397  0.00  0.00    +0.000 C 
ATOM     30  C   UNL     1       3.577  15.181  17.600  0.00  0.00    +0.000 C 
ENDBRANCH  27  28
ENDBRANCH  10  27
TORSDOF 6
ENDMDL
MODEL 7
REMARK VINA RESULT:      -6.9      1.238      1.526
REMARK  Name = 
REMARK  7 active torsions:
REMARK  status: ('A' for Active; 'I' for Inactive)
REMARK    1  A    between atoms: C_1  and  O_2
REMARK    2  A    between atoms: O_2  and  C_3
REMARK    3  A    between atoms: C_6  and  S_7
REMARK    4  A    between atoms: S_7  and  N_10
REMARK    5  A    between atoms: N_10  and  C_11
REMARK    6  A    between atoms: N_20  and  C_21
REMARK    7  A    between atoms: C_21  and  C_22
REMARK                            x       y       z     vdW  Elec       q    Type
REMARK                         _______ _______ _______ _____ _____    ______ ____
ROOT
ATOM      1  C   UNL     1       0.130  10.930  19.328  0.00  0.00    +0.000 C 
ATOM      2  C   UNL     1       1.555  11.421  19.110  0.00  0.00    +0.000 C 
ATOM      3  C   UNL     1       2.105  10.416  18.106  0.00  0.00    +0.000 C 
ATOM      4  N   UNL     1       1.472   9.147  18.472  0.00  0.00    +0.000 N 
ATOM      5  C   UNL     1       2.175   7.953  18.564  0.00  0.00    +0.000 A 
ATOM      6  C   UNL     1       3.284   7.698  17.609  0.00  0.00    +0.000 A 
ATOM      7  C   UNL     1       4.053   6.632  17.792  0.00  0.00    +0.000 A 
ATOM      8  C   UNL     1       3.798   5.708  18.905  0.00  0.00    +0.000 A 
ATOM      9  O   UNL     1       4.601   4.800  19.108  0.00  0.00    +0.000 OA
ATOM     10  N   UNL     1       2.647   5.950  19.643  0.00  0.00    +0.000 N 
ATOM     11  N   UNL     1       1.860   7.079  19.485  0.00  0.00    +0.000 NA
ATOM     12  C   UNL     1       0.320   9.407  19.339  0.00  0.00    +0.000 C 
ENDROOT
BRANCH   1  13
ATOM     13  N   UNL     1      -0.407  11.478  20.577  0.00  0.00    +0.000 NA
ATOM     14  H   UNL     1      -0.622  10.878  21.370  0.00  0.00    +0.000 HD
BRANCH  13  15
ATOM     15  S   UNL     1      -0.937  13.060  20.685  0.00  0.00    +0.000 S 
ATOM     16  O   UNL     1      -0.978  13.595  19.343  0.00  0.00    +0.000 OA
ATOM     17  O   UNL     1      -0.175  13.680  21.746  0.00  0.00    +0.000 OA
BRANCH  15  21
ATOM     18  C   UNL     1      -5.246  12.822  22.173  0.00  0.00    +0.000 A 
ATOM     19  C   UNL     1      -4.187  12.909  23.085  0.00  0.00    +0.000 A 
ATOM     20  C   UNL     1      -2.866  12.953  22.637  0.00  0.00    +0.000 A 
ATOM     21  C   UNL     1      -2.600  12.890  21.269  0.00  0.00    +0.000 A 
ATOM     22  C   UNL     1      -3.639  12.747  20.345  0.00  0.00    +0.000 A 
ATOM     23  C   UNL     1      -4.960  12.723  20.801  0.00  0.00    +0.000 A 
ATOM     24 CL   UNL     1      -6.221  12.623  19.622  0.00  0.00    +0.000 Cl
BRANCH  18  26
ATOM     25  C   UNL     1      -6.804  12.723  23.954  0.00  0.00    +0.000 C 
ATOM     26  O   UNL     1      -6.564  12.799  22.552  0.00  0.00    +0.000 OA
ENDBRANCH  18  26
ENDBRANCH  15  21
ENDBRANCH  13  15
ENDBRANCH   1  13
BRANCH  10  27
ATOM     27  C   UNL     1       2.381   5.121  20.815  0.00  0.00    +0.000 C 
BRANCH  27  28
ATOM     28  C   UNL     1       1.333   4.075  20.563  0.00  0.00    +0.000 C 
ATOM     29  C   UNL     1       1.616   2.733  19.927  0.00  0.00    +0.000 C 
ATOM     30  C   UNL     1       1.343   2.815  21.401  0.00  0.00    +0.000 C 
ENDBRANCH  27  28
ENDBRANCH  10  27
TORSDOF 6
ENDMDL
MODEL 8
REMARK VINA RESULT:      -6.9      5.313      8.570
REMARK  Name = 
REMARK  7 active torsions:
REMARK  status: ('A' for Active; 'I' for Inactive)
REMARK    1  A    between atoms: C_1  and  O_2
REMARK    2  A    between atoms: O_2  and  C_3
REMARK    3  A    between atoms: C_6  and  S_7
REMARK    4  A    between atoms: S_7  and  N_10
REMARK    5  A    between atoms: N_10  and  C_11
REMARK    6  A    between atoms: N_20  and  C_21
REMARK    7  A    between atoms: C_21  and  C_22
REMARK                            x       y       z     vdW  Elec       q    Type
REMARK                         _______ _______ _______ _____ _____    ______ ____
ROOT
ATOM      1  C   UNL     1       4.770   4.735  18.039  0.00  0.00    +0.000 C 
ATOM      2  C   UNL     1       6.248   4.405  18.200  0.00  0.00    +0.000 C 
ATOM      3  C   UNL     1       6.893   5.192  17.067  0.00  0.00    +0.000 C 
ATOM      4  N   UNL     1       5.915   5.139  15.980  0.00  0.00    +0.000 N 
ATOM      5  C   UNL     1       6.263   4.860  14.665  0.00  0.00    +0.000 A 
ATOM      6  C   UNL     1       7.559   5.365  14.144  0.00  0.00    +0.000 A 
ATOM      7  C   UNL     1       7.963   4.971  12.942  0.00  0.00    +0.000 A 
ATOM      8  C   UNL     1       7.132   4.069  12.133  0.00  0.00    +0.000 A 
ATOM      9  O   UNL     1       7.594   3.636  11.079  0.00  0.00    +0.000 OA
ATOM     10  N   UNL     1       5.874   3.780  12.643  0.00  0.00    +0.000 N 
ATOM     11  N   UNL     1       5.459   4.155  13.911  0.00  0.00    +0.000 NA
ATOM     12  C   UNL     1       4.612   4.730  16.512  0.00  0.00    +0.000 C 
ENDROOT
BRANCH   1  13
ATOM     13  N   UNL     1       3.951   3.737  18.731  0.00  0.00    +0.000 NA
ATOM     14  H   UNL     1       4.299   2.797  18.911  0.00  0.00    +0.000 HD
BRANCH  13  15
ATOM     15  S   UNL     1       2.327   3.990  19.033  0.00  0.00    +0.000 S 
ATOM     16  O   UNL     1       2.045   3.465  20.351  0.00  0.00    +0.000 OA
ATOM     17  O   UNL     1       1.613   3.554  17.854  0.00  0.00    +0.000 OA
BRANCH  15  21
ATOM     18  C   UNL     1       1.795   8.522  19.171  0.00  0.00    +0.000 A 
ATOM     19  C   UNL     1       2.130   7.885  17.969  0.00  0.00    +0.000 A 
ATOM     20  C   UNL     1       2.321   6.504  17.927  0.00  0.00    +0.000 A 
ATOM     21  C   UNL     1       2.198   5.755  19.097  0.00  0.00    +0.000 A 
ATOM     22  C   UNL     1       1.920   6.378  20.318  0.00  0.00    +0.000 A 
ATOM     23  C   UNL     1       1.711   7.759  20.348  0.00  0.00    +0.000 A 
ATOM     24 CL   UNL     1       1.293   8.481  21.862  0.00  0.00    +0.000 Cl
BRANCH  18  26
ATOM     25  C   UNL     1       0.303  10.325  18.809  0.00  0.00    +0.000 C 
ATOM     26  O   UNL     1       1.572   9.872  19.269  0.00  0.00    +0.000 OA
ENDBRANCH  18  26
ENDBRANCH  15  21
ENDBRANCH  13  15
ENDBRANCH   1  13
BRANCH  10  27
ATOM     27  C   UNL     1       5.033   2.823  11.932  0.00  0.00    +0.000 C 
BRANCH  27  28
ATOM     28  C   UNL     1       3.749   3.429  11.440  0.00  0.00    +0.000 C 
ATOM     29  C   UNL     1       3.562   4.001  10.053  0.00  0.00    +0.000 C 
ATOM     30  C   UNL     1       2.940   2.680  10.403  0.00  0.00    +0.000 C 
ENDBRANCH  27  28
ENDBRANCH  10  27
TORSDOF 6
ENDMDL
MODEL 9
REMARK VINA RESULT:      -6.9      1.667      2.221
REMARK  Name = 
REMARK  7 active torsions:
REMARK  status: ('A' for Active; 'I' for Inactive)
REMARK    1  A    between atoms: C_1  and  O_2
REMARK    2  A    between atoms: O_2  and  C_3
REMARK    3  A    between atoms: C_6  and  S_7
REMARK    4  A    between atoms: S_7  and  N_10
REMARK    5  A    between atoms: N_10  and  C_11
REMARK    6  A    between atoms: N_20  and  C_21
REMARK    7  A    between atoms: C_21  and  C_22
REMARK                            x       y       z     vdW  Elec       q    Type
REMARK                         _______ _______ _______ _____ _____    ______ ____
ROOT
ATOM      1  C   UNL     1       0.309  10.850  18.818  0.00  0.00    +0.000 C 
ATOM      2  C   UNL     1       1.752  11.320  18.689  0.00  0.00    +0.000 C 
ATOM      3  C   UNL     1       2.372  10.253  17.796  0.00  0.00    +0.000 C 
ATOM      4  N   UNL     1       1.700   9.012  18.184  0.00  0.00    +0.000 N 
ATOM      5  C   UNL     1       2.380   7.822  18.405  0.00  0.00    +0.000 A 
ATOM      6  C   UNL     1       3.561   7.504  17.562  0.00  0.00    +0.000 A 
ATOM      7  C   UNL     1       4.302   6.447  17.871  0.00  0.00    +0.000 A 
ATOM      8  C   UNL     1       3.948   5.594  19.013  0.00  0.00    +0.000 A 
ATOM      9  O   UNL     1       4.723   4.696  19.335  0.00  0.00    +0.000 OA
ATOM     10  N   UNL     1       2.744   5.886  19.639  0.00  0.00    +0.000 N 
ATOM     11  N   UNL     1       1.983   7.007  19.349  0.00  0.00    +0.000 NA
ATOM     12  C   UNL     1       0.483   9.329  18.937  0.00  0.00    +0.000 C 
ENDROOT
BRANCH   1  13
ATOM     13  N   UNL     1      -0.322  11.476  19.984  0.00  0.00    +0.000 NA
ATOM     14  H   UNL     1      -0.176  11.115  20.925  0.00  0.00    +0.000 HD
BRANCH  13  15
ATOM     15  S   UNL     1      -1.509  12.641  19.819  0.00  0.00    +0.000 S 
ATOM     16  O   UNL     1      -2.724  11.967  19.420  0.00  0.00    +0.000 OA
ATOM     17  O   UNL     1      -0.928  13.717  19.049  0.00  0.00    +0.000 OA
BRANCH  15  21
ATOM     18  C   UNL     1      -2.202  14.303  24.014  0.00  0.00    +0.000 A 
ATOM     19  C   UNL     1      -1.216  14.858  23.188  0.00  0.00    +0.000 A 
ATOM     20  C   UNL     1      -0.980  14.335  21.916  0.00  0.00    +0.000 A 
ATOM     21  C   UNL     1      -1.721  13.239  21.473  0.00  0.00    +0.000 A 
ATOM     22  C   UNL     1      -2.670  12.636  22.303  0.00  0.00    +0.000 A 
ATOM     23  C   UNL     1      -2.914  13.177  23.568  0.00  0.00    +0.000 A 
ATOM     24 CL   UNL     1      -4.149  12.450  24.535  0.00  0.00    +0.000 Cl
BRANCH  18  26
ATOM     25  C   UNL     1      -3.288  15.970  25.299  0.00  0.00    +0.000 C 
ATOM     26  O   UNL     1      -2.494  14.788  25.263  0.00  0.00    +0.000 OA
ENDBRANCH  18  26
ENDBRANCH  15  21
ENDBRANCH  13  15
ENDBRANCH   1  13
BRANCH  10  27
ATOM     27  C   UNL     1       2.375   5.131  20.833  0.00  0.00    +0.000 C 
BRANCH  27  28
ATOM     28  C   UNL     1       1.168   4.261  20.622  0.00  0.00    +0.000 C 
ATOM     29  C   UNL     1       1.075   3.189  19.561  0.00  0.00    +0.000 C 
ATOM     30  C   UNL     1       1.249   2.799  21.000  0.00  0.00    +0.000 C 
ENDBRANCH  27  28
ENDBRANCH  10  27
TORSDOF 6
ENDMDL
