MODEL 1
REMARK VINA RESULT:      -7.2      0.000      0.000
REMARK  Name = 
REMARK  5 active torsions:
REMARK  status: ('A' for Active; 'I' for Inactive)
REMARK    1  A    between atoms: C_2  and  C_3
REMARK    2  A    between atoms: C_3  and  C_4
REMARK    3  A    between atoms: C_4  and  C_5
REMARK    4  A    between atoms: C_14  and  O_15
REMARK    5  A    between atoms: C_16  and  O_17
REMARK                            x       y       z     vdW  Elec       q    Type
REMARK                         _______ _______ _______ _____ _____    ______ ____
ROOT
ATOM      1  O   UNL     1       5.055   6.082  15.595  0.00  0.00    +0.000 OA
ATOM      2  C   UNL     1       5.159   5.424  16.629  0.00  0.00    +0.000 C 
ATOM      3  N   UNL     1       6.178   5.652  17.527  0.00  0.00    +0.000 N 
ATOM      4  C   UNL     1       7.160   6.701  17.300  0.00  0.00    +0.000 C 
ATOM      5  C   UNL     1       8.131   6.620  18.482  0.00  0.00    +0.000 C 
ATOM      6  C   UNL     1       7.330   5.864  19.558  0.00  0.00    +0.000 C 
ATOM      7  C   UNL     1       6.479   4.905  18.736  0.00  0.00    +0.000 C 
ENDROOT
BRANCH   5   8
ATOM      8  O   UNL     1       8.545   7.904  18.937  0.00  0.00    +0.000 OA
ATOM      9  H   UNL     1       9.230   8.241  18.330  0.00  0.00    +0.000 HD
ENDBRANCH   5   8
BRANCH   6  10
ATOM     10  O   UNL     1       8.146   5.190  20.504  0.00  0.00    +0.000 OA
ATOM     11  H   UNL     1       8.428   4.338  20.128  0.00  0.00    +0.000 HD
ENDBRANCH   6  10
BRANCH   2  12
ATOM     12  C   UNL     1       4.124   4.384  17.022  0.00  0.00    +0.000 C 
BRANCH  12  13
ATOM     13  C   UNL     1       2.822   5.037  17.483  0.00  0.00    +0.000 C 
BRANCH  13  14
ATOM     14  C   UNL     1       2.275   4.445  18.760  0.00  0.00    +0.000 A 
ATOM     15  C   UNL     1       1.303   3.435  18.713  0.00  0.00    +0.000 A 
ATOM     16  C   UNL     1       0.827   2.851  19.890  0.00  0.00    +0.000 A 
ATOM     17  C   UNL     1       1.312   3.269  21.129  0.00  0.00    +0.000 A 
ATOM     18  C   UNL     1       2.275   4.275  21.191  0.00  0.00    +0.000 A 
ATOM     19  C   UNL     1       2.749   4.849  20.013  0.00  0.00    +0.000 A 
ATOM     20  F   UNL     1       3.691   5.800  20.100  0.00  0.00    +0.000 F 
ENDBRANCH  13  14
ENDBRANCH  12  13
ENDBRANCH   2  12
TORSDOF 5
ENDMDL
MODEL 2
REMARK VINA RESULT:      -7.0      1.496      1.875
REMARK  Name = 
REMARK  5 active torsions:
REMARK  status: ('A' for Active; 'I' for Inactive)
REMARK    1  A    between atoms: C_2  and  C_3
REMARK    2  A    between atoms: C_3  and  C_4
REMARK    3  A    between atoms: C_4  and  C_5
REMARK    4  A    between atoms: C_14  and  O_15
REMARK    5  A    between atoms: C_16  and  O_17
REMARK                            x       y       z     vdW  Elec       q    Type
REMARK                         _______ _______ _______ _____ _____    ______ ____
ROOT
ATOM      1  O   UNL     1       5.049   4.377  15.341  0.00  0.00    +0.000 OA
ATOM      2  C   UNL     1       5.127   4.089  16.534  0.00  0.00    +0.000 C 
ATOM      3  N   UNL     1       6.017   4.724  17.371  0.00  0.00    +0.000 N 
ATOM      4  C   UNL     1       6.887   5.782  16.880  0.00  0.00    +0.000 C 
ATOM      5  C   UNL     1       7.738   6.207  18.080  0.00  0.00    +0.000 C 
ATOM      6  C   UNL     1       6.929   5.710  19.293  0.00  0.00    +0.000 C 
ATOM      7  C   UNL     1       6.283   4.435  18.770  0.00  0.00    +0.000 C 
ENDROOT
BRANCH   5   8
ATOM      8  O   UNL     1       7.951   7.613  18.128  0.00  0.00    +0.000 OA
ATOM      9  H   UNL     1       8.911   7.780  18.178  0.00  0.00    +0.000 HD
ENDBRANCH   5   8
BRANCH   6  10
ATOM     10  O   UNL     1       7.720   5.483  20.450  0.00  0.00    +0.000 OA
ATOM     11  H   UNL     1       8.639   5.318  20.175  0.00  0.00    +0.000 HD
ENDBRANCH   6  10
BRANCH   2  12
ATOM     12  C   UNL     1       4.187   3.083  17.177  0.00  0.00    +0.000 C 
BRANCH  12  13
ATOM     13  C   UNL     1       2.740   3.571  17.147  0.00  0.00    +0.000 C 
BRANCH  13  14
ATOM     14  C   UNL     1       2.294   4.200  18.446  0.00  0.00    +0.000 A 
ATOM     15  C   UNL     1       2.676   5.511  18.765  0.00  0.00    +0.000 A 
ATOM     16  C   UNL     1       2.228   6.115  19.944  0.00  0.00    +0.000 A 
ATOM     17  C   UNL     1       1.396   5.417  20.819  0.00  0.00    +0.000 A 
ATOM     18  C   UNL     1       1.012   4.113  20.516  0.00  0.00    +0.000 A 
ATOM     19  C   UNL     1       1.457   3.519  19.337  0.00  0.00    +0.000 A 
ATOM     20  F   UNL     1       1.056   2.270  19.060  0.00  0.00    +0.000 F 
ENDBRANCH  13  14
ENDBRANCH  12  13
ENDBRANCH   2  12
TORSDOF 5
ENDMDL
MODEL 3
REMARK VINA RESULT:      -6.9      2.030      2.592
REMARK  Name = 
REMARK  5 active torsions:
REMARK  status: ('A' for Active; 'I' for Inactive)
REMARK    1  A    between atoms: C_2  and  C_3
REMARK    2  A    between atoms: C_3  and  C_4
REMARK    3  A    between atoms: C_4  and  C_5
REMARK    4  A    between atoms: C_14  and  O_15
REMARK    5  A    between atoms: C_16  and  O_17
REMARK                            x       y       z     vdW  Elec       q    Type
REMARK                         _______ _______ _______ _____ _____    ______ ____
ROOT
ATOM      1  O   UNL     1       3.307   7.277  16.977  0.00  0.00    +0.000 OA
ATOM      2  C   UNL     1       4.026   6.648  17.751  0.00  0.00    +0.000 C 
ATOM      3  N   UNL     1       5.152   5.989  17.311  0.00  0.00    +0.000 N 
ATOM      4  C   UNL     1       5.551   6.031  15.912  0.00  0.00    +0.000 C 
ATOM      5  C   UNL     1       6.810   5.165  15.815  0.00  0.00    +0.000 C 
ATOM      6  C   UNL     1       7.327   5.113  17.265  0.00  0.00    +0.000 C 
ATOM      7  C   UNL     1       6.044   5.140  18.084  0.00  0.00    +0.000 C 
ENDROOT
BRANCH   5   8
ATOM      8  O   UNL     1       7.781   5.711  14.928  0.00  0.00    +0.000 OA
ATOM      9  H   UNL     1       8.307   6.373  15.415  0.00  0.00    +0.000 HD
ENDBRANCH   5   8
BRANCH   6  10
ATOM     10  O   UNL     1       8.124   3.971  17.543  0.00  0.00    +0.000 OA
ATOM     11  H   UNL     1       8.657   4.145  18.338  0.00  0.00    +0.000 HD
ENDBRANCH   6  10
BRANCH   2  12
ATOM     12  C   UNL     1       3.770   6.634  19.249  0.00  0.00    +0.000 C 
BRANCH  12  13
ATOM     13  C   UNL     1       2.292   6.404  19.561  0.00  0.00    +0.000 C 
BRANCH  13  14
ATOM     14  C   UNL     1       1.946   4.951  19.781  0.00  0.00    +0.000 A 
ATOM     15  C   UNL     1       2.031   4.389  21.062  0.00  0.00    +0.000 A 
ATOM     16  C   UNL     1       1.667   3.057  21.281  0.00  0.00    +0.000 A 
ATOM     17  C   UNL     1       1.217   2.269  20.222  0.00  0.00    +0.000 A 
ATOM     18  C   UNL     1       1.131   2.813  18.942  0.00  0.00    +0.000 A 
ATOM     19  C   UNL     1       1.490   4.143  18.733  0.00  0.00    +0.000 A 
ATOM     20  F   UNL     1       1.378   4.647  17.495  0.00  0.00    +0.000 F 
ENDBRANCH  13  14
ENDBRANCH  12  13
ENDBRANCH   2  12
TORSDOF 5
ENDMDL
MODEL 4
REMARK VINA RESULT:      -6.8      3.123      5.720
REMARK  Name = 
REMARK  5 active torsions:
REMARK  status: ('A' for Active; 'I' for Inactive)
REMARK    1  A    between atoms: C_2  and  C_3
REMARK    2  A    between atoms: C_3  and  C_4
REMARK    3  A    between atoms: C_4  and  C_5
REMARK    4  A    between atoms: C_14  and  O_15
REMARK    5  A    between atoms: C_16  and  O_17
REMARK                            x       y       z     vdW  Elec       q    Type
REMARK                         _______ _______ _______ _____ _____    ______ ____
ROOT
ATOM      1  O   UNL     1       3.698   1.832  17.574  0.00  0.00    +0.000 OA
ATOM      2  C   UNL     1       3.499   3.037  17.713  0.00  0.00    +0.000 C 
ATOM      3  N   UNL     1       2.928   3.545  18.858  0.00  0.00    +0.000 N 
ATOM      4  C   UNL     1       2.560   2.675  19.966  0.00  0.00    +0.000 C 
ATOM      5  C   UNL     1       1.937   3.592  21.022  0.00  0.00    +0.000 C 
ATOM      6  C   UNL     1       2.466   4.989  20.648  0.00  0.00    +0.000 C 
ATOM      7  C   UNL     1       2.553   4.923  19.129  0.00  0.00    +0.000 C 
ENDROOT
BRANCH   5   8
ATOM      8  O   UNL     1       2.305   3.226  22.347  0.00  0.00    +0.000 OA
ATOM      9  H   UNL     1       2.059   2.293  22.490  0.00  0.00    +0.000 HD
ENDBRANCH   5   8
BRANCH   6  10
ATOM     10  O   UNL     1       1.636   6.049  21.098  0.00  0.00    +0.000 OA
ATOM     11  H   UNL     1       1.299   5.831  21.984  0.00  0.00    +0.000 HD
ENDBRANCH   6  10
BRANCH   2  12
ATOM     12  C   UNL     1       3.949   4.047  16.671  0.00  0.00    +0.000 C 
BRANCH  12  13
ATOM     13  C   UNL     1       5.449   3.941  16.402  0.00  0.00    +0.000 C 
BRANCH  13  14
ATOM     14  C   UNL     1       6.259   5.011  17.095  0.00  0.00    +0.000 A 
ATOM     15  C   UNL     1       7.117   4.676  18.152  0.00  0.00    +0.000 A 
ATOM     16  C   UNL     1       7.904   5.654  18.767  0.00  0.00    +0.000 A 
ATOM     17  C   UNL     1       7.841   6.979  18.337  0.00  0.00    +0.000 A 
ATOM     18  C   UNL     1       6.990   7.327  17.290  0.00  0.00    +0.000 A 
ATOM     19  C   UNL     1       6.213   6.346  16.678  0.00  0.00    +0.000 A 
ATOM     20  F   UNL     1       5.417   6.705  15.660  0.00  0.00    +0.000 F 
ENDBRANCH  13  14
ENDBRANCH  12  13
ENDBRANCH   2  12
TORSDOF 5
ENDMDL
MODEL 5
REMARK VINA RESULT:      -6.7      3.178      5.768
REMARK  Name = 
REMARK  5 active torsions:
REMARK  status: ('A' for Active; 'I' for Inactive)
REMARK    1  A    between atoms: C_2  and  C_3
REMARK    2  A    between atoms: C_3  and  C_4
REMARK    3  A    between atoms: C_4  and  C_5
REMARK    4  A    between atoms: C_14  and  O_15
REMARK    5  A    between atoms: C_16  and  O_17
REMARK                            x       y       z     vdW  Elec       q    Type
REMARK                         _______ _______ _______ _____ _____    ______ ____
ROOT
ATOM      1  O   UNL     1       2.420   7.240  20.092  0.00  0.00    +0.000 OA
ATOM      2  C   UNL     1       2.483   6.363  19.232  0.00  0.00    +0.000 C 
ATOM      3  N   UNL     1       2.309   5.034  19.545  0.00  0.00    +0.000 N 
ATOM      4  C   UNL     1       2.015   4.614  20.907  0.00  0.00    +0.000 C 
ATOM      5  C   UNL     1       1.925   3.086  20.858  0.00  0.00    +0.000 C 
ATOM      6  C   UNL     1       1.665   2.785  19.370  0.00  0.00    +0.000 C 
ATOM      7  C   UNL     1       2.440   3.888  18.661  0.00  0.00    +0.000 C 
ENDROOT
BRANCH   5   8
ATOM      8  O   UNL     1       0.888   2.573  21.688  0.00  0.00    +0.000 OA
ATOM      9  H   UNL     1       0.952   1.600  21.697  0.00  0.00    +0.000 HD
ENDBRANCH   5   8
BRANCH   6  10
ATOM     10  O   UNL     1       2.081   1.488  18.971  0.00  0.00    +0.000 OA
ATOM     11  H   UNL     1       1.441   1.135  18.329  0.00  0.00    +0.000 HD
ENDBRANCH   6  10
BRANCH   2  12
ATOM     12  C   UNL     1       2.669   6.698  17.762  0.00  0.00    +0.000 C 
BRANCH  12  13
ATOM     13  C   UNL     1       4.054   7.284  17.492  0.00  0.00    +0.000 C 
BRANCH  13  14
ATOM     14  C   UNL     1       5.053   6.260  17.009  0.00  0.00    +0.000 A 
ATOM     15  C   UNL     1       5.242   6.048  15.636  0.00  0.00    +0.000 A 
ATOM     16  C   UNL     1       6.200   5.136  15.183  0.00  0.00    +0.000 A 
ATOM     17  C   UNL     1       6.977   4.421  16.094  0.00  0.00    +0.000 A 
ATOM     18  C   UNL     1       6.797   4.619  17.461  0.00  0.00    +0.000 A 
ATOM     19  C   UNL     1       5.846   5.535  17.906  0.00  0.00    +0.000 A 
ATOM     20  F   UNL     1       5.707   5.721  19.227  0.00  0.00    +0.000 F 
ENDBRANCH  13  14
ENDBRANCH  12  13
ENDBRANCH   2  12
TORSDOF 5
ENDMDL
MODEL 6
REMARK VINA RESULT:      -6.7      2.012      2.846
REMARK  Name = 
REMARK  5 active torsions:
REMARK  status: ('A' for Active; 'I' for Inactive)
REMARK    1  A    between atoms: C_2  and  C_3
REMARK    2  A    between atoms: C_3  and  C_4
REMARK    3  A    between atoms: C_4  and  C_5
REMARK    4  A    between atoms: C_14  and  O_15
REMARK    5  A    between atoms: C_16  and  O_17
REMARK                            x       y       z     vdW  Elec       q    Type
REMARK                         _______ _______ _______ _____ _____    ______ ____
ROOT
ATOM      1  O   UNL     1       3.883   6.190  19.497  0.00  0.00    +0.000 OA
ATOM      2  C   UNL     1       3.797   5.794  18.336  0.00  0.00    +0.000 C 
ATOM      3  N   UNL     1       4.909   5.394  17.628  0.00  0.00    +0.000 N 
ATOM      4  C   UNL     1       6.231   5.399  18.237  0.00  0.00    +0.000 C 
ATOM      5  C   UNL     1       7.192   4.928  17.142  0.00  0.00    +0.000 C 
ATOM      6  C   UNL     1       6.274   4.198  16.143  0.00  0.00    +0.000 C 
ATOM      7  C   UNL     1       4.976   4.989  16.234  0.00  0.00    +0.000 C 
ENDROOT
BRANCH   5   8
ATOM      8  O   UNL     1       8.212   4.072  17.643  0.00  0.00    +0.000 OA
ATOM      9  H   UNL     1       8.595   4.481  18.441  0.00  0.00    +0.000 HD
ENDBRANCH   5   8
BRANCH   6  10
ATOM     10  O   UNL     1       6.792   4.155  14.822  0.00  0.00    +0.000 OA
ATOM     11  H   UNL     1       7.669   3.735  14.842  0.00  0.00    +0.000 HD
ENDBRANCH   6  10
BRANCH   2  12
ATOM     12  C   UNL     1       2.455   5.638  17.641  0.00  0.00    +0.000 C 
BRANCH  12  13
ATOM     13  C   UNL     1       1.931   4.207  17.753  0.00  0.00    +0.000 C 
BRANCH  13  14
ATOM     14  C   UNL     1       2.089   3.619  19.135  0.00  0.00    +0.000 A 
ATOM     15  C   UNL     1       1.129   3.872  20.126  0.00  0.00    +0.000 A 
ATOM     16  C   UNL     1       1.245   3.292  21.392  0.00  0.00    +0.000 A 
ATOM     17  C   UNL     1       2.321   2.456  21.687  0.00  0.00    +0.000 A 
ATOM     18  C   UNL     1       3.284   2.198  20.714  0.00  0.00    +0.000 A 
ATOM     19  C   UNL     1       3.159   2.775  19.451  0.00  0.00    +0.000 A 
ATOM     20  F   UNL     1       4.089   2.494  18.527  0.00  0.00    +0.000 F 
ENDBRANCH  13  14
ENDBRANCH  12  13
ENDBRANCH   2  12
TORSDOF 5
ENDMDL
MODEL 7
REMARK VINA RESULT:      -6.7      1.275      1.326
REMARK  Name = 
REMARK  5 active torsions:
REMARK  status: ('A' for Active; 'I' for Inactive)
REMARK    1  A    between atoms: C_2  and  C_3
REMARK    2  A    between atoms: C_3  and  C_4
REMARK    3  A    between atoms: C_4  and  C_5
REMARK    4  A    between atoms: C_14  and  O_15
REMARK    5  A    between atoms: C_16  and  O_17
REMARK                            x       y       z     vdW  Elec       q    Type
REMARK                         _______ _______ _______ _____ _____    ______ ____
ROOT
ATOM      1  O   UNL     1       3.533   7.121  17.382  0.00  0.00    +0.000 OA
ATOM      2  C   UNL     1       4.044   6.003  17.336  0.00  0.00    +0.000 C 
ATOM      3  N   UNL     1       5.396   5.822  17.522  0.00  0.00    +0.000 N 
ATOM      4  C   UNL     1       6.274   6.948  17.808  0.00  0.00    +0.000 C 
ATOM      5  C   UNL     1       7.682   6.356  17.915  0.00  0.00    +0.000 C 
ATOM      6  C   UNL     1       7.429   4.863  18.192  0.00  0.00    +0.000 C 
ATOM      7  C   UNL     1       6.151   4.585  17.411  0.00  0.00    +0.000 C 
ENDROOT
BRANCH   5   8
ATOM      8  O   UNL     1       8.451   6.962  18.949  0.00  0.00    +0.000 OA
ATOM      9  H   UNL     1       7.903   7.641  19.384  0.00  0.00    +0.000 HD
ENDBRANCH   5   8
BRANCH   6  10
ATOM     10  O   UNL     1       8.501   4.021  17.794  0.00  0.00    +0.000 OA
ATOM     11  H   UNL     1       8.560   4.025  16.823  0.00  0.00    +0.000 HD
ENDBRANCH   6  10
BRANCH   2  12
ATOM     12  C   UNL     1       3.207   4.747  17.161  0.00  0.00    +0.000 C 
BRANCH  12  13
ATOM     13  C   UNL     1       1.839   4.890  17.827  0.00  0.00    +0.000 C 
BRANCH  13  14
ATOM     14  C   UNL     1       1.747   4.188  19.161  0.00  0.00    +0.000 A 
ATOM     15  C   UNL     1       1.209   2.896  19.245  0.00  0.00    +0.000 A 
ATOM     16  C   UNL     1       1.165   2.222  20.469  0.00  0.00    +0.000 A 
ATOM     17  C   UNL     1       1.653   2.832  21.625  0.00  0.00    +0.000 A 
ATOM     18  C   UNL     1       2.187   4.117  21.557  0.00  0.00    +0.000 A 
ATOM     19  C   UNL     1       2.233   4.780  20.332  0.00  0.00    +0.000 A 
ATOM     20  F   UNL     1       2.771   6.008  20.291  0.00  0.00    +0.000 F 
ENDBRANCH  13  14
ENDBRANCH  12  13
ENDBRANCH   2  12
TORSDOF 5
ENDMDL
MODEL 8
REMARK VINA RESULT:      -6.7      2.005      2.839
REMARK  Name = 
REMARK  5 active torsions:
REMARK  status: ('A' for Active; 'I' for Inactive)
REMARK    1  A    between atoms: C_2  and  C_3
REMARK    2  A    between atoms: C_3  and  C_4
REMARK    3  A    between atoms: C_4  and  C_5
REMARK    4  A    between atoms: C_14  and  O_15
REMARK    5  A    between atoms: C_16  and  O_17
REMARK                            x       y       z     vdW  Elec       q    Type
REMARK                         _______ _______ _______ _____ _____    ______ ____
ROOT
ATOM      1  O   UNL     1       4.050   5.868  19.780  0.00  0.00    +0.000 OA
ATOM      2  C   UNL     1       4.168   6.056  18.570  0.00  0.00    +0.000 C 
ATOM      3  N   UNL     1       5.346   5.782  17.912  0.00  0.00    +0.000 N 
ATOM      4  C   UNL     1       6.494   5.233  18.619  0.00  0.00    +0.000 C 
ATOM      5  C   UNL     1       7.601   5.101  17.569  0.00  0.00    +0.000 C 
ATOM      6  C   UNL     1       6.836   5.104  16.232  0.00  0.00    +0.000 C 
ATOM      7  C   UNL     1       5.662   6.032  16.515  0.00  0.00    +0.000 C 
ENDROOT
BRANCH   5   8
ATOM      8  O   UNL     1       8.370   3.914  17.734  0.00  0.00    +0.000 OA
ATOM      9  H   UNL     1       7.772   3.146  17.664  0.00  0.00    +0.000 HD
ENDBRANCH   5   8
BRANCH   6  10
ATOM     10  O   UNL     1       7.619   5.540  15.131  0.00  0.00    +0.000 OA
ATOM     11  H   UNL     1       7.827   4.774  14.570  0.00  0.00    +0.000 HD
ENDBRANCH   6  10
BRANCH   2  12
ATOM     12  C   UNL     1       3.000   6.515  17.714  0.00  0.00    +0.000 C 
BRANCH  12  13
ATOM     13  C   UNL     1       1.679   5.928  18.208  0.00  0.00    +0.000 C 
BRANCH  13  14
ATOM     14  C   UNL     1       1.735   4.436  18.433  0.00  0.00    +0.000 A 
ATOM     15  C   UNL     1       2.313   3.596  17.471  0.00  0.00    +0.000 A 
ATOM     16  C   UNL     1       2.410   2.219  17.694  0.00  0.00    +0.000 A 
ATOM     17  C   UNL     1       1.929   1.664  18.879  0.00  0.00    +0.000 A 
ATOM     18  C   UNL     1       1.350   2.486  19.843  0.00  0.00    +0.000 A 
ATOM     19  C   UNL     1       1.261   3.858  19.617  0.00  0.00    +0.000 A 
ATOM     20  F   UNL     1       0.717   4.629  20.570  0.00  0.00    +0.000 F 
ENDBRANCH  13  14
ENDBRANCH  12  13
ENDBRANCH   2  12
TORSDOF 5
ENDMDL
MODEL 9
REMARK VINA RESULT:      -6.6      1.377      1.670
REMARK  Name = 
REMARK  5 active torsions:
REMARK  status: ('A' for Active; 'I' for Inactive)
REMARK    1  A    between atoms: C_2  and  C_3
REMARK    2  A    between atoms: C_3  and  C_4
REMARK    3  A    between atoms: C_4  and  C_5
REMARK    4  A    between atoms: C_14  and  O_15
REMARK    5  A    between atoms: C_16  and  O_17
REMARK                            x       y       z     vdW  Elec       q    Type
REMARK                         _______ _______ _______ _____ _____    ______ ____
ROOT
ATOM      1  O   UNL     1       5.256   4.919  15.306  0.00  0.00    +0.000 OA
ATOM      2  C   UNL     1       5.350   4.502  16.459  0.00  0.00    +0.000 C 
ATOM      3  N   UNL     1       6.252   5.041  17.348  0.00  0.00    +0.000 N 
ATOM      4  C   UNL     1       7.116   6.149  16.966  0.00  0.00    +0.000 C 
ATOM      5  C   UNL     1       7.984   6.440  18.194  0.00  0.00    +0.000 C 
ATOM      6  C   UNL     1       7.191   5.811  19.355  0.00  0.00    +0.000 C 
ATOM      7  C   UNL     1       6.537   4.600  18.703  0.00  0.00    +0.000 C 
ENDROOT
BRANCH   5   8
ATOM      8  O   UNL     1       8.197   7.833  18.394  0.00  0.00    +0.000 OA
ATOM      9  H   UNL     1       7.346   8.244  18.637  0.00  0.00    +0.000 HD
ENDBRANCH   5   8
BRANCH   6  10
ATOM     10  O   UNL     1       7.999   5.458  20.468  0.00  0.00    +0.000 OA
ATOM     11  H   UNL     1       7.428   5.101  21.171  0.00  0.00    +0.000 HD
ENDBRANCH   6  10
BRANCH   2  12
ATOM     12  C   UNL     1       4.420   3.429  17.000  0.00  0.00    +0.000 C 
BRANCH  12  13
ATOM     13  C   UNL     1       3.072   4.017  17.417  0.00  0.00    +0.000 C 
BRANCH  13  14
ATOM     14  C   UNL     1       2.586   3.508  18.752  0.00  0.00    +0.000 A 
ATOM     15  C   UNL     1       3.501   3.198  19.768  0.00  0.00    +0.000 A 
ATOM     16  C   UNL     1       3.054   2.772  21.022  0.00  0.00    +0.000 A 
ATOM     17  C   UNL     1       1.689   2.646  21.277  0.00  0.00    +0.000 A 
ATOM     18  C   UNL     1       0.768   2.948  20.276  0.00  0.00    +0.000 A 
ATOM     19  C   UNL     1       1.220   3.378  19.030  0.00  0.00    +0.000 A 
ATOM     20  F   UNL     1       0.312   3.680  18.091  0.00  0.00    +0.000 F 
ENDBRANCH  13  14
ENDBRANCH  12  13
ENDBRANCH   2  12
TORSDOF 5
ENDMDL
