MODEL 1
REMARK VINA RESULT:      -7.5      0.000      0.000
REMARK  Name = 
REMARK  5 active torsions:
REMARK  status: ('A' for Active; 'I' for Inactive)
REMARK    1  A    between atoms: C_1  and  C_2
REMARK    2  A    between atoms: C_3  and  O_4
REMARK    3  A    between atoms: C_5  and  C_6
REMARK    4  A    between atoms: C_8  and  O_9
REMARK    5  A    between atoms: C_13  and  C_14
REMARK                            x       y       z     vdW  Elec       q    Type
REMARK                         _______ _______ _______ _____ _____    ______ ____
ROOT
ATOM      1  C   UNL     1       3.834   1.372  17.617  0.00  0.00    +0.000 C 
ATOM      2  C   UNL     1       3.580   2.716  18.252  0.00  0.00    +0.000 A 
ATOM      3  C   UNL     1       2.881   2.888  19.462  0.00  0.00    +0.000 A 
ATOM      4  C   UNL     1       2.688   4.172  20.005  0.00  0.00    +0.000 A 
ATOM      5  C   UNL     1       3.193   5.303  19.347  0.00  0.00    +0.000 A 
ATOM      6  C   UNL     1       3.881   5.152  18.140  0.00  0.00    +0.000 A 
ATOM      7  C   UNL     1       4.070   3.870  17.593  0.00  0.00    +0.000 A 
ATOM      8  O   UNL     1       4.764   3.652  16.417  0.00  0.00    +0.000 OA
ATOM      9  C   UNL     1       4.911   4.819  15.588  0.00  0.00    +0.000 C 
ATOM     10  C   UNL     1       5.504   5.958  16.395  0.00  0.00    +0.000 C 
ATOM     11  C   UNL     1       4.466   6.308  17.412  0.00  0.00    +0.000 C 
ATOM     12  O   UNL     1       4.140   7.474  17.603  0.00  0.00    +0.000 OA
ENDROOT
BRANCH   9  13
ATOM     13  C   UNL     1       5.810   4.537  14.395  0.00  0.00    +0.000 A 
ATOM     14  C   UNL     1       5.356   3.668  13.386  0.00  0.00    +0.000 A 
ATOM     15  C   UNL     1       6.109   3.460  12.230  0.00  0.00    +0.000 A 
ATOM     16  C   UNL     1       7.324   4.116  12.064  0.00  0.00    +0.000 A 
ATOM     17  C   UNL     1       7.789   4.979  13.057  0.00  0.00    +0.000 A 
ATOM     18  C   UNL     1       7.036   5.191  14.215  0.00  0.00    +0.000 A 
ENDBRANCH   9  13
BRANCH   3  19
ATOM     19  O   UNL     1       2.364   1.835  20.170  0.00  0.00    +0.000 OA
ATOM     20  H   UNL     1       1.797   2.131  20.898  0.00  0.00    +0.000 HD
ENDBRANCH   3  19
BRANCH   4  21
ATOM     21  C   UNL     1       1.960   4.315  21.286  0.00  0.00    +0.000 C 
ATOM     22  O   UNL     1       2.200   3.570  22.234  0.00  0.00    +0.000 OA
ENDBRANCH   4  21
BRANCH   5  23
ATOM     23  O   UNL     1       3.053   6.555  19.886  0.00  0.00    +0.000 OA
ATOM     24  H   UNL     1       2.738   6.487  20.816  0.00  0.00    +0.000 HD
ENDBRANCH   5  23
TORSDOF 4
ENDMDL
MODEL 2
REMARK VINA RESULT:      -7.2      0.113      1.035
REMARK  Name = 
REMARK  5 active torsions:
REMARK  status: ('A' for Active; 'I' for Inactive)
REMARK    1  A    between atoms: C_1  and  C_2
REMARK    2  A    between atoms: C_3  and  O_4
REMARK    3  A    between atoms: C_5  and  C_6
REMARK    4  A    between atoms: C_8  and  O_9
REMARK    5  A    between atoms: C_13  and  C_14
REMARK                            x       y       z     vdW  Elec       q    Type
REMARK                         _______ _______ _______ _____ _____    ______ ____
ROOT
ATOM      1  C   UNL     1       3.791   1.397  17.598  0.00  0.00    +0.000 C 
ATOM      2  C   UNL     1       3.540   2.734  18.248  0.00  0.00    +0.000 A 
ATOM      3  C   UNL     1       2.876   2.890  19.480  0.00  0.00    +0.000 A 
ATOM      4  C   UNL     1       2.684   4.168  20.036  0.00  0.00    +0.000 A 
ATOM      5  C   UNL     1       3.152   5.310  19.369  0.00  0.00    +0.000 A 
ATOM      6  C   UNL     1       3.804   5.175  18.140  0.00  0.00    +0.000 A 
ATOM      7  C   UNL     1       3.994   3.898  17.581  0.00  0.00    +0.000 A 
ATOM      8  O   UNL     1       4.653   3.695  16.382  0.00  0.00    +0.000 OA
ATOM      9  C   UNL     1       4.759   4.869  15.556  0.00  0.00    +0.000 C 
ATOM     10  C   UNL     1       5.362   6.011  16.351  0.00  0.00    +0.000 C 
ATOM     11  C   UNL     1       4.352   6.342  17.402  0.00  0.00    +0.000 C 
ATOM     12  O   UNL     1       4.016   7.503  17.610  0.00  0.00    +0.000 OA
ENDROOT
BRANCH   9  13
ATOM     13  C   UNL     1       5.624   4.605  14.335  0.00  0.00    +0.000 A 
ATOM     14  C   UNL     1       6.898   5.198  14.256  0.00  0.00    +0.000 A 
ATOM     15  C   UNL     1       7.760   4.904  13.199  0.00  0.00    +0.000 A 
ATOM     16  C   UNL     1       7.363   4.013  12.207  0.00  0.00    +0.000 A 
ATOM     17  C   UNL     1       6.103   3.419  12.269  0.00  0.00    +0.000 A 
ATOM     18  C   UNL     1       5.238   3.710  13.327  0.00  0.00    +0.000 A 
ENDBRANCH   9  13
BRANCH   3  19
ATOM     19  O   UNL     1       2.395   1.826  20.198  0.00  0.00    +0.000 OA
ATOM     20  H   UNL     1       1.622   2.067  20.730  0.00  0.00    +0.000 HD
ENDBRANCH   3  19
BRANCH   4  21
ATOM     21  C   UNL     1       1.994   4.295  21.340  0.00  0.00    +0.000 C 
ATOM     22  O   UNL     1       2.262   3.538  22.271  0.00  0.00    +0.000 OA
ENDBRANCH   4  21
BRANCH   5  23
ATOM     23  O   UNL     1       3.012   6.556  19.920  0.00  0.00    +0.000 OA
ATOM     24  H   UNL     1       2.371   7.085  19.395  0.00  0.00    +0.000 HD
ENDBRANCH   5  23
TORSDOF 4
ENDMDL
MODEL 3
REMARK VINA RESULT:      -6.9      3.555      7.428
REMARK  Name = 
REMARK  5 active torsions:
REMARK  status: ('A' for Active; 'I' for Inactive)
REMARK    1  A    between atoms: C_1  and  C_2
REMARK    2  A    between atoms: C_3  and  O_4
REMARK    3  A    between atoms: C_5  and  C_6
REMARK    4  A    between atoms: C_8  and  O_9
REMARK    5  A    between atoms: C_13  and  C_14
REMARK                            x       y       z     vdW  Elec       q    Type
REMARK                         _______ _______ _______ _____ _____    ______ ____
ROOT
ATOM      1  C   UNL     1       2.093   4.428  21.310  0.00  0.00    +0.000 C 
ATOM      2  C   UNL     1       2.711   4.899  20.018  0.00  0.00    +0.000 A 
ATOM      3  C   UNL     1       3.504   4.083  19.190  0.00  0.00    +0.000 A 
ATOM      4  C   UNL     1       4.042   4.584  17.990  0.00  0.00    +0.000 A 
ATOM      5  C   UNL     1       3.794   5.908  17.599  0.00  0.00    +0.000 A 
ATOM      6  C   UNL     1       3.017   6.736  18.414  0.00  0.00    +0.000 A 
ATOM      7  C   UNL     1       2.482   6.238  19.617  0.00  0.00    +0.000 A 
ATOM      8  O   UNL     1       1.685   6.998  20.453  0.00  0.00    +0.000 OA
ATOM      9  C   UNL     1       1.780   8.418  20.239  0.00  0.00    +0.000 C 
ATOM     10  C   UNL     1       1.539   8.739  18.776  0.00  0.00    +0.000 C 
ATOM     11  C   UNL     1       2.692   8.137  18.040  0.00  0.00    +0.000 C 
ATOM     12  O   UNL     1       3.308   8.781  17.199  0.00  0.00    +0.000 OA
ENDROOT
BRANCH   9  13
ATOM     13  C   UNL     1       0.767   9.171  21.085  0.00  0.00    +0.000 A 
ATOM     14  C   UNL     1       0.682   8.892  22.461  0.00  0.00    +0.000 A 
ATOM     15  C   UNL     1      -0.165   9.629  23.289  0.00  0.00    +0.000 A 
ATOM     16  C   UNL     1      -0.938  10.656  22.756  0.00  0.00    +0.000 A 
ATOM     17  C   UNL     1      -0.866  10.943  21.392  0.00  0.00    +0.000 A 
ATOM     18  C   UNL     1      -0.017  10.208  20.561  0.00  0.00    +0.000 A 
ENDBRANCH   9  13
BRANCH   3  19
ATOM     19  O   UNL     1       3.787   2.777  19.495  0.00  0.00    +0.000 OA
ATOM     20  H   UNL     1       3.359   2.496  20.317  0.00  0.00    +0.000 HD
ENDBRANCH   3  19
BRANCH   4  21
ATOM     21  C   UNL     1       4.861   3.694  17.135  0.00  0.00    +0.000 C 
ATOM     22  O   UNL     1       5.906   4.096  16.625  0.00  0.00    +0.000 OA
ENDBRANCH   4  21
BRANCH   5  23
ATOM     23  O   UNL     1       4.273   6.396  16.412  0.00  0.00    +0.000 OA
ATOM     24  H   UNL     1       5.246   6.526  16.471  0.00  0.00    +0.000 HD
ENDBRANCH   5  23
TORSDOF 4
ENDMDL
MODEL 4
REMARK VINA RESULT:      -6.9      6.084      8.359
REMARK  Name = 
REMARK  5 active torsions:
REMARK  status: ('A' for Active; 'I' for Inactive)
REMARK    1  A    between atoms: C_1  and  C_2
REMARK    2  A    between atoms: C_3  and  O_4
REMARK    3  A    between atoms: C_5  and  C_6
REMARK    4  A    between atoms: C_8  and  O_9
REMARK    5  A    between atoms: C_13  and  C_14
REMARK                            x       y       z     vdW  Elec       q    Type
REMARK                         _______ _______ _______ _____ _____    ______ ____
ROOT
ATOM      1  C   UNL     1      -1.299  10.601  17.694  0.00  0.00    +0.000 C 
ATOM      2  C   UNL     1      -1.249  10.882  19.174  0.00  0.00    +0.000 A 
ATOM      3  C   UNL     1      -2.047  11.851  19.812  0.00  0.00    +0.000 A 
ATOM      4  C   UNL     1      -1.958  12.055  21.201  0.00  0.00    +0.000 A 
ATOM      5  C   UNL     1      -1.071  11.293  21.975  0.00  0.00    +0.000 A 
ATOM      6  C   UNL     1      -0.263  10.333  21.358  0.00  0.00    +0.000 A 
ATOM      7  C   UNL     1      -0.347  10.131  19.968  0.00  0.00    +0.000 A 
ATOM      8  O   UNL     1       0.404   9.180  19.302  0.00  0.00    +0.000 OA
ATOM      9  C   UNL     1       1.554   8.714  20.031  0.00  0.00    +0.000 C 
ATOM     10  C   UNL     1       1.138   8.246  21.413  0.00  0.00    +0.000 C 
ATOM     11  C   UNL     1       0.673   9.473  22.127  0.00  0.00    +0.000 C 
ATOM     12  O   UNL     1       1.059   9.726  23.262  0.00  0.00    +0.000 OA
ENDROOT
BRANCH   9  13
ATOM     13  C   UNL     1       2.239   7.568  19.305  0.00  0.00    +0.000 A 
ATOM     14  C   UNL     1       2.886   7.822  18.082  0.00  0.00    +0.000 A 
ATOM     15  C   UNL     1       3.608   6.819  17.433  0.00  0.00    +0.000 A 
ATOM     16  C   UNL     1       3.695   5.550  17.996  0.00  0.00    +0.000 A 
ATOM     17  C   UNL     1       3.056   5.282  19.207  0.00  0.00    +0.000 A 
ATOM     18  C   UNL     1       2.334   6.284  19.860  0.00  0.00    +0.000 A 
ENDBRANCH   9  13
BRANCH   3  19
ATOM     19  O   UNL     1      -2.944  12.631  19.130  0.00  0.00    +0.000 OA
ATOM     20  H   UNL     1      -2.905  13.558  19.409  0.00  0.00    +0.000 HD
ENDBRANCH   3  19
BRANCH   4  21
ATOM     21  C   UNL     1      -2.823  13.073  21.841  0.00  0.00    +0.000 C 
ATOM     22  O   UNL     1      -3.624  12.758  22.719  0.00  0.00    +0.000 OA
ENDBRANCH   4  21
BRANCH   5  23
ATOM     23  O   UNL     1      -1.006  11.449  23.334  0.00  0.00    +0.000 OA
ATOM     24  H   UNL     1      -1.694  10.896  23.769  0.00  0.00    +0.000 HD
ENDBRANCH   5  23
TORSDOF 4
ENDMDL
MODEL 5
REMARK VINA RESULT:      -6.8      6.093      8.474
REMARK  Name = 
REMARK  5 active torsions:
REMARK  status: ('A' for Active; 'I' for Inactive)
REMARK    1  A    between atoms: C_1  and  C_2
REMARK    2  A    between atoms: C_3  and  O_4
REMARK    3  A    between atoms: C_5  and  C_6
REMARK    4  A    between atoms: C_8  and  O_9
REMARK    5  A    between atoms: C_13  and  C_14
REMARK                            x       y       z     vdW  Elec       q    Type
REMARK                         _______ _______ _______ _____ _____    ______ ____
ROOT
ATOM      1  C   UNL     1      -1.070  10.549  17.737  0.00  0.00    +0.000 C 
ATOM      2  C   UNL     1      -1.090  10.880  19.208  0.00  0.00    +0.000 A 
ATOM      3  C   UNL     1      -1.857  11.922  19.763  0.00  0.00    +0.000 A 
ATOM      4  C   UNL     1      -1.838  12.170  21.148  0.00  0.00    +0.000 A 
ATOM      5  C   UNL     1      -1.051  11.380  22.000  0.00  0.00    +0.000 A 
ATOM      6  C   UNL     1      -0.275  10.348  21.465  0.00  0.00    +0.000 A 
ATOM      7  C   UNL     1      -0.290  10.101  20.080  0.00  0.00    +0.000 A 
ATOM      8  O   UNL     1       0.435   9.080  19.493  0.00  0.00    +0.000 OA
ATOM      9  C   UNL     1       1.505   8.566  20.307  0.00  0.00    +0.000 C 
ATOM     10  C   UNL     1       0.976   8.177  21.674  0.00  0.00    +0.000 C 
ATOM     11  C   UNL     1       0.553   9.457  22.318  0.00  0.00    +0.000 C 
ATOM     12  O   UNL     1       0.888   9.725  23.466  0.00  0.00    +0.000 OA
ENDROOT
BRANCH   9  13
ATOM     13  C   UNL     1       2.152   7.352  19.661  0.00  0.00    +0.000 A 
ATOM     14  C   UNL     1       2.079   6.108  20.315  0.00  0.00    +0.000 A 
ATOM     15  C   UNL     1       2.575   4.953  19.710  0.00  0.00    +0.000 A 
ATOM     16  C   UNL     1       3.150   5.022  18.445  0.00  0.00    +0.000 A 
ATOM     17  C   UNL     1       3.232   6.249  17.785  0.00  0.00    +0.000 A 
ATOM     18  C   UNL     1       2.735   7.407  18.388  0.00  0.00    +0.000 A 
ENDBRANCH   9  13
BRANCH   3  19
ATOM     19  O   UNL     1      -2.658  12.734  19.003  0.00  0.00    +0.000 OA
ATOM     20  H   UNL     1      -2.141  13.299  18.409  0.00  0.00    +0.000 HD
ENDBRANCH   3  19
BRANCH   4  21
ATOM     21  C   UNL     1      -2.668  13.265  21.700  0.00  0.00    +0.000 C 
ATOM     22  O   UNL     1      -3.534  13.036  22.543  0.00  0.00    +0.000 OA
ENDBRANCH   4  21
BRANCH   5  23
ATOM     23  O   UNL     1      -1.057  11.581  23.355  0.00  0.00    +0.000 OA
ATOM     24  H   UNL     1      -1.826  11.120  23.759  0.00  0.00    +0.000 HD
ENDBRANCH   5  23
TORSDOF 4
ENDMDL
MODEL 6
REMARK VINA RESULT:      -6.7      4.474      7.360
REMARK  Name = 
REMARK  5 active torsions:
REMARK  status: ('A' for Active; 'I' for Inactive)
REMARK    1  A    between atoms: C_1  and  C_2
REMARK    2  A    between atoms: C_3  and  O_4
REMARK    3  A    between atoms: C_5  and  C_6
REMARK    4  A    between atoms: C_8  and  O_9
REMARK    5  A    between atoms: C_13  and  C_14
REMARK                            x       y       z     vdW  Elec       q    Type
REMARK                         _______ _______ _______ _____ _____    ______ ____
ROOT
ATOM      1  C   UNL     1      -0.077   8.668  22.176  0.00  0.00    +0.000 C 
ATOM      2  C   UNL     1       0.470   9.258  20.901  0.00  0.00    +0.000 A 
ATOM      3  C   UNL     1       0.221  10.580  20.483  0.00  0.00    +0.000 A 
ATOM      4  C   UNL     1       0.772  11.071  19.285  0.00  0.00    +0.000 A 
ATOM      5  C   UNL     1       1.580  10.249  18.486  0.00  0.00    +0.000 A 
ATOM      6  C   UNL     1       1.829   8.931  18.880  0.00  0.00    +0.000 A 
ATOM      7  C   UNL     1       1.275   8.436  20.075  0.00  0.00    +0.000 A 
ATOM      8  O   UNL     1       1.505   7.152  20.532  0.00  0.00    +0.000 OA
ATOM      9  C   UNL     1       1.985   6.240  19.527  0.00  0.00    +0.000 C 
ATOM     10  C   UNL     1       3.202   6.824  18.835  0.00  0.00    +0.000 C 
ATOM     11  C   UNL     1       2.702   8.021  18.093  0.00  0.00    +0.000 C 
ATOM     12  O   UNL     1       3.005   8.207  16.920  0.00  0.00    +0.000 OA
ENDROOT
BRANCH   9  13
ATOM     13  C   UNL     1       2.357   4.898  20.135  0.00  0.00    +0.000 A 
ATOM     14  C   UNL     1       1.472   4.288  21.043  0.00  0.00    +0.000 A 
ATOM     15  C   UNL     1       1.731   3.013  21.548  0.00  0.00    +0.000 A 
ATOM     16  C   UNL     1       2.876   2.329  21.153  0.00  0.00    +0.000 A 
ATOM     17  C   UNL     1       3.765   2.921  20.255  0.00  0.00    +0.000 A 
ATOM     18  C   UNL     1       3.507   4.197  19.747  0.00  0.00    +0.000 A 
ENDBRANCH   9  13
BRANCH   3  19
ATOM     19  O   UNL     1      -0.550  11.449  21.209  0.00  0.00    +0.000 OA
ATOM     20  H   UNL     1      -1.476  11.168  21.246  0.00  0.00    +0.000 HD
ENDBRANCH   3  19
BRANCH   4  21
ATOM     21  C   UNL     1       0.502  12.470  18.883  0.00  0.00    +0.000 C 
ATOM     22  O   UNL     1      -0.627  12.823  18.549  0.00  0.00    +0.000 OA
ENDBRANCH   4  21
BRANCH   5  23
ATOM     23  O   UNL     1       2.160  10.727  17.341  0.00  0.00    +0.000 OA
ATOM     24  H   UNL     1       2.170  10.025  16.652  0.00  0.00    +0.000 HD
ENDBRANCH   5  23
TORSDOF 4
ENDMDL
MODEL 7
REMARK VINA RESULT:      -6.7      3.507      7.369
REMARK  Name = 
REMARK  5 active torsions:
REMARK  status: ('A' for Active; 'I' for Inactive)
REMARK    1  A    between atoms: C_1  and  C_2
REMARK    2  A    between atoms: C_3  and  O_4
REMARK    3  A    between atoms: C_5  and  C_6
REMARK    4  A    between atoms: C_8  and  O_9
REMARK    5  A    between atoms: C_13  and  C_14
REMARK                            x       y       z     vdW  Elec       q    Type
REMARK                         _______ _______ _______ _____ _____    ______ ____
ROOT
ATOM      1  C   UNL     1       1.998   4.383  21.312  0.00  0.00    +0.000 C 
ATOM      2  C   UNL     1       2.621   4.827  20.013  0.00  0.00    +0.000 A 
ATOM      3  C   UNL     1       3.351   3.972  19.165  0.00  0.00    +0.000 A 
ATOM      4  C   UNL     1       3.897   4.449  17.959  0.00  0.00    +0.000 A 
ATOM      5  C   UNL     1       3.721   5.788  17.582  0.00  0.00    +0.000 A 
ATOM      6  C   UNL     1       3.008   6.655  18.415  0.00  0.00    +0.000 A 
ATOM      7  C   UNL     1       2.465   6.180  19.624  0.00  0.00    +0.000 A 
ATOM      8  O   UNL     1       1.728   6.979  20.479  0.00  0.00    +0.000 OA
ATOM      9  C   UNL     1       1.903   8.392  20.272  0.00  0.00    +0.000 C 
ATOM     10  C   UNL     1       1.657   8.738  18.815  0.00  0.00    +0.000 C 
ATOM     11  C   UNL     1       2.760   8.075  18.056  0.00  0.00    +0.000 C 
ATOM     12  O   UNL     1       3.399   8.688  17.209  0.00  0.00    +0.000 OA
ENDROOT
BRANCH   9  13
ATOM     13  C   UNL     1       0.952   9.198  21.140  0.00  0.00    +0.000 A 
ATOM     14  C   UNL     1       0.106  10.145  20.534  0.00  0.00    +0.000 A 
ATOM     15  C   UNL     1      -0.849  10.834  21.282  0.00  0.00    +0.000 A 
ATOM     16  C   UNL     1      -0.974  10.587  22.645  0.00  0.00    +0.000 A 
ATOM     17  C   UNL     1      -0.142   9.653  23.262  0.00  0.00    +0.000 A 
ATOM     18  C   UNL     1       0.814   8.959  22.515  0.00  0.00    +0.000 A 
ENDBRANCH   9  13
BRANCH   3  19
ATOM     19  O   UNL     1       3.561   2.649  19.457  0.00  0.00    +0.000 OA
ATOM     20  H   UNL     1       3.367   2.076  18.700  0.00  0.00    +0.000 HD
ENDBRANCH   3  19
BRANCH   4  21
ATOM     21  C   UNL     1       4.647   3.519  17.085  0.00  0.00    +0.000 C 
ATOM     22  O   UNL     1       5.625   3.904  16.447  0.00  0.00    +0.000 OA
ENDBRANCH   4  21
BRANCH   5  23
ATOM     23  O   UNL     1       4.208   6.256  16.390  0.00  0.00    +0.000 OA
ATOM     24  H   UNL     1       4.000   7.213  16.294  0.00  0.00    +0.000 HD
ENDBRANCH   5  23
TORSDOF 4
ENDMDL
MODEL 8
REMARK VINA RESULT:      -6.7      4.398      7.320
REMARK  Name = 
REMARK  5 active torsions:
REMARK  status: ('A' for Active; 'I' for Inactive)
REMARK    1  A    between atoms: C_1  and  C_2
REMARK    2  A    between atoms: C_3  and  O_4
REMARK    3  A    between atoms: C_5  and  C_6
REMARK    4  A    between atoms: C_8  and  O_9
REMARK    5  A    between atoms: C_13  and  C_14
REMARK                            x       y       z     vdW  Elec       q    Type
REMARK                         _______ _______ _______ _____ _____    ______ ____
ROOT
ATOM      1  C   UNL     1      -0.048   8.603  22.139  0.00  0.00    +0.000 C 
ATOM      2  C   UNL     1       0.503   9.217  20.877  0.00  0.00    +0.000 A 
ATOM      3  C   UNL     1       0.280  10.555  20.499  0.00  0.00    +0.000 A 
ATOM      4  C   UNL     1       0.833  11.068  19.311  0.00  0.00    +0.000 A 
ATOM      5  C   UNL     1       1.617  10.252  18.483  0.00  0.00    +0.000 A 
ATOM      6  C   UNL     1       1.841   8.918  18.837  0.00  0.00    +0.000 A 
ATOM      7  C   UNL     1       1.285   8.402  20.022  0.00  0.00    +0.000 A 
ATOM      8  O   UNL     1       1.490   7.100  20.441  0.00  0.00    +0.000 OA
ATOM      9  C   UNL     1       1.943   6.207  19.407  0.00  0.00    +0.000 C 
ATOM     10  C   UNL     1       3.167   6.785  18.722  0.00  0.00    +0.000 C 
ATOM     11  C   UNL     1       2.689   8.013  18.019  0.00  0.00    +0.000 C 
ATOM     12  O   UNL     1       2.987   8.226  16.849  0.00  0.00    +0.000 OA
ENDROOT
BRANCH   9  13
ATOM     13  C   UNL     1       2.290   4.841  19.974  0.00  0.00    +0.000 A 
ATOM     14  C   UNL     1       3.446   4.182  19.514  0.00  0.00    +0.000 A 
ATOM     15  C   UNL     1       3.851   2.972  20.079  0.00  0.00    +0.000 A 
ATOM     16  C   UNL     1       3.111   2.404  21.111  0.00  0.00    +0.000 A 
ATOM     17  C   UNL     1       1.962   3.044  21.576  0.00  0.00    +0.000 A 
ATOM     18  C   UNL     1       1.554   4.256  21.014  0.00  0.00    +0.000 A 
ENDBRANCH   9  13
BRANCH   3  19
ATOM     19  O   UNL     1      -0.468  11.420  21.255  0.00  0.00    +0.000 OA
ATOM     20  H   UNL     1      -0.141  11.481  22.165  0.00  0.00    +0.000 HD
ENDBRANCH   3  19
BRANCH   4  21
ATOM     21  C   UNL     1       0.590  12.484  18.951  0.00  0.00    +0.000 C 
ATOM     22  O   UNL     1      -0.510  12.850  18.541  0.00  0.00    +0.000 OA
ENDBRANCH   4  21
BRANCH   5  23
ATOM     23  O   UNL     1       2.200  10.750  17.347  0.00  0.00    +0.000 OA
ATOM     24  H   UNL     1       3.064  10.308  17.192  0.00  0.00    +0.000 HD
ENDBRANCH   5  23
TORSDOF 4
ENDMDL
MODEL 9
REMARK VINA RESULT:      -6.5      6.590      8.670
REMARK  Name = 
REMARK  5 active torsions:
REMARK  status: ('A' for Active; 'I' for Inactive)
REMARK    1  A    between atoms: C_1  and  C_2
REMARK    2  A    between atoms: C_3  and  O_4
REMARK    3  A    between atoms: C_5  and  C_6
REMARK    4  A    between atoms: C_8  and  O_9
REMARK    5  A    between atoms: C_13  and  C_14
REMARK                            x       y       z     vdW  Elec       q    Type
REMARK                         _______ _______ _______ _____ _____    ______ ____
ROOT
ATOM      1  C   UNL     1      -1.930  10.029  16.821  0.00  0.00    +0.000 C 
ATOM      2  C   UNL     1      -1.923  10.700  18.172  0.00  0.00    +0.000 A 
ATOM      3  C   UNL     1      -2.870  11.663  18.570  0.00  0.00    +0.000 A 
ATOM      4  C   UNL     1      -2.811  12.242  19.851  0.00  0.00    +0.000 A 
ATOM      5  C   UNL     1      -1.805  11.868  20.754  0.00  0.00    +0.000 A 
ATOM      6  C   UNL     1      -0.850  10.921  20.372  0.00  0.00    +0.000 A 
ATOM      7  C   UNL     1      -0.904  10.344  19.090  0.00  0.00    +0.000 A 
ATOM      8  O   UNL     1      -0.006   9.384  18.661  0.00  0.00    +0.000 OA
ATOM      9  C   UNL     1       1.209   9.320  19.430  0.00  0.00    +0.000 C 
ATOM     10  C   UNL     1       0.883   9.178  20.905  0.00  0.00    +0.000 C 
ATOM     11  C   UNL     1       0.221  10.460  21.293  0.00  0.00    +0.000 C 
ATOM     12  O   UNL     1       0.564  11.065  22.302  0.00  0.00    +0.000 OA
ENDROOT
BRANCH   9  13
ATOM     13  C   UNL     1       2.073   8.148  18.998  0.00  0.00    +0.000 A 
ATOM     14  C   UNL     1       2.810   8.244  17.803  0.00  0.00    +0.000 A 
ATOM     15  C   UNL     1       3.689   7.230  17.421  0.00  0.00    +0.000 A 
ATOM     16  C   UNL     1       3.846   6.107  18.227  0.00  0.00    +0.000 A 
ATOM     17  C   UNL     1       3.121   5.995  19.413  0.00  0.00    +0.000 A 
ATOM     18  C   UNL     1       2.241   7.010  19.799  0.00  0.00    +0.000 A 
ENDBRANCH   9  13
BRANCH   3  19
ATOM     19  O   UNL     1      -3.888  12.077  17.752  0.00  0.00    +0.000 OA
ATOM     20  H   UNL     1      -4.613  12.481  18.252  0.00  0.00    +0.000 HD
ENDBRANCH   3  19
BRANCH   4  21
ATOM     21  C   UNL     1      -3.832  13.241  20.243  0.00  0.00    +0.000 C 
ATOM     22  O   UNL     1      -5.009  12.917  20.384  0.00  0.00    +0.000 OA
ENDBRANCH   4  21
BRANCH   5  23
ATOM     23  O   UNL     1      -1.762  12.389  22.020  0.00  0.00    +0.000 OA
ATOM     24  H   UNL     1      -1.903  13.362  21.987  0.00  0.00    +0.000 HD
ENDBRANCH   5  23
TORSDOF 4
ENDMDL
