MODEL 1
REMARK VINA RESULT:      -7.0      0.000      0.000
REMARK  Name = 
REMARK  7 active torsions:
REMARK  status: ('A' for Active; 'I' for Inactive)
REMARK    1  A    between atoms: N_6  and  C_7
REMARK    2  A    between atoms: C_9  and  O_10
REMARK    3  A    between atoms: C_11  and  C_12
REMARK    4  A    between atoms: C_12  and  O_13
REMARK    5  A    between atoms: O_13  and  P_14
REMARK    6  A    between atoms: P_14  and  O_16
REMARK    7  A    between atoms: P_14  and  O_17
REMARK                            x       y       z     vdW  Elec       q    Type
REMARK                         _______ _______ _______ _____ _____    ______ ____
ROOT
ATOM      1  C   UNL     1       3.244   3.904  19.129  0.00  0.00    +0.000 C 
ATOM      2  C   UNL     1       2.489   3.022  18.135  0.00  0.00    +0.000 C 
ATOM      3  C   UNL     1       3.590   2.278  17.425  0.00  0.00    +0.000 C 
ATOM      4  C   UNL     1       4.707   3.307  17.368  0.00  0.00    +0.000 C 
ATOM      5  O   UNL     1       4.560   4.106  18.567  0.00  0.00    +0.000 OA
ENDROOT
BRANCH   1  11
ATOM      6  O   UNL     1       1.308   8.852  20.520  0.00  0.00    +0.000 OA
ATOM      7  C   UNL     1       1.712   7.751  20.162  0.00  0.00    +0.000 A 
ATOM      8  N   UNL     1       1.643   6.662  20.993  0.00  0.00    +0.000 N 
ATOM      9  C   UNL     1       2.151   5.416  20.744  0.00  0.00    +0.000 A 
ATOM     10  O   UNL     1       2.162   4.584  21.646  0.00  0.00    +0.000 OA
ATOM     11  N   UNL     1       2.630   5.197  19.455  0.00  0.00    +0.000 N 
ATOM     12  C   UNL     1       2.748   6.258  18.560  0.00  0.00    +0.000 A 
ATOM     13  C   UNL     1       2.324   7.493  18.839  0.00  0.00    +0.000 A 
ATOM     14 CL   UNL     1       2.499   8.795  17.734  0.00  0.00    +0.000 Cl
ATOM     15  H   UNL     1       1.276   6.822  21.918  0.00  0.00    +0.000 HD
ENDBRANCH   1  11
BRANCH   3  16
ATOM     16  O   UNL     1       3.973   1.141  18.200  0.00  0.00    +0.000 OA
ATOM     17  H   UNL     1       4.051   0.367  17.615  0.00  0.00    +0.000 HD
ENDBRANCH   3  16
BRANCH   4  18
ATOM     18  C   UNL     1       4.610   4.208  16.135  0.00  0.00    +0.000 C 
BRANCH  18  19
ATOM     19  O   UNL     1       5.802   4.073  15.378  0.00  0.00    +0.000 OA
BRANCH  19  20
ATOM     20  P   UNL     1       7.065   4.923  15.859  0.00  0.00    +0.000 P 
ATOM     21  O   UNL     1       7.990   4.273  16.823  0.00  0.00    +0.000 OA
BRANCH  20  22
ATOM     22  O   UNL     1       7.731   5.356  14.478  0.00  0.00    +0.000 OA
ATOM     23  H   UNL     1       7.794   6.325  14.408  0.00  0.00    +0.000 HD
ENDBRANCH  20  22
BRANCH  20  24
ATOM     24  O   UNL     1       6.425   6.295  16.365  0.00  0.00    +0.000 OA
ATOM     25  H   UNL     1       6.796   7.053  15.879  0.00  0.00    +0.000 HD
ENDBRANCH  20  24
ENDBRANCH  19  20
ENDBRANCH  18  19
ENDBRANCH   4  18
TORSDOF 7
ENDMDL
MODEL 2
REMARK VINA RESULT:      -6.9      0.538      1.054
REMARK  Name = 
REMARK  7 active torsions:
REMARK  status: ('A' for Active; 'I' for Inactive)
REMARK    1  A    between atoms: N_6  and  C_7
REMARK    2  A    between atoms: C_9  and  O_10
REMARK    3  A    between atoms: C_11  and  C_12
REMARK    4  A    between atoms: C_12  and  O_13
REMARK    5  A    between atoms: O_13  and  P_14
REMARK    6  A    between atoms: P_14  and  O_16
REMARK    7  A    between atoms: P_14  and  O_17
REMARK                            x       y       z     vdW  Elec       q    Type
REMARK                         _______ _______ _______ _____ _____    ______ ____
ROOT
ATOM      1  C   UNL     1       3.111   3.788  19.103  0.00  0.00    +0.000 C 
ATOM      2  C   UNL     1       2.421   3.023  17.974  0.00  0.00    +0.000 C 
ATOM      3  C   UNL     1       3.542   2.229  17.356  0.00  0.00    +0.000 C 
ATOM      4  C   UNL     1       4.732   3.165  17.495  0.00  0.00    +0.000 C 
ATOM      5  O   UNL     1       4.498   3.910  18.715  0.00  0.00    +0.000 OA
ENDROOT
BRANCH   1  11
ATOM      6  O   UNL     1       1.423   8.828  20.487  0.00  0.00    +0.000 OA
ATOM      7  C   UNL     1       1.770   7.707  20.132  0.00  0.00    +0.000 A 
ATOM      8  N   UNL     1       1.700   6.636  20.986  0.00  0.00    +0.000 N 
ATOM      9  C   UNL     1       2.151   5.367  20.738  0.00  0.00    +0.000 A 
ATOM     10  O   UNL     1       2.173   4.551  21.654  0.00  0.00    +0.000 OA
ATOM     11  N   UNL     1       2.561   5.108  19.432  0.00  0.00    +0.000 N 
ATOM     12  C   UNL     1       2.675   6.149  18.512  0.00  0.00    +0.000 A 
ATOM     13  C   UNL     1       2.310   7.403  18.787  0.00  0.00    +0.000 A 
ATOM     14 CL   UNL     1       2.480   8.679  17.650  0.00  0.00    +0.000 Cl
ATOM     15  H   UNL     1       1.383   6.825  21.923  0.00  0.00    +0.000 HD
ENDBRANCH   1  11
BRANCH   3  16
ATOM     16  O   UNL     1       3.740   1.026  18.100  0.00  0.00    +0.000 OA
ATOM     17  H   UNL     1       3.075   0.975  18.809  0.00  0.00    +0.000 HD
ENDBRANCH   3  16
BRANCH   4  18
ATOM     18  C   UNL     1       4.855   4.133  16.317  0.00  0.00    +0.000 C 
BRANCH  18  19
ATOM     19  O   UNL     1       5.630   5.250  16.725  0.00  0.00    +0.000 OA
BRANCH  19  20
ATOM     20  P   UNL     1       7.130   5.326  16.184  0.00  0.00    +0.000 P 
ATOM     21  O   UNL     1       7.333   5.127  14.726  0.00  0.00    +0.000 OA
BRANCH  20  22
ATOM     22  O   UNL     1       7.623   6.734  16.745  0.00  0.00    +0.000 OA
ATOM     23  H   UNL     1       8.528   6.933  16.445  0.00  0.00    +0.000 HD
ENDBRANCH  20  22
BRANCH  20  24
ATOM     24  O   UNL     1       7.920   4.300  17.118  0.00  0.00    +0.000 OA
ATOM     25  H   UNL     1       8.108   3.471  16.644  0.00  0.00    +0.000 HD
ENDBRANCH  20  24
ENDBRANCH  19  20
ENDBRANCH  18  19
ENDBRANCH   4  18
TORSDOF 7
ENDMDL
MODEL 3
REMARK VINA RESULT:      -6.8      0.879      1.196
REMARK  Name = 
REMARK  7 active torsions:
REMARK  status: ('A' for Active; 'I' for Inactive)
REMARK    1  A    between atoms: N_6  and  C_7
REMARK    2  A    between atoms: C_9  and  O_10
REMARK    3  A    between atoms: C_11  and  C_12
REMARK    4  A    between atoms: C_12  and  O_13
REMARK    5  A    between atoms: O_13  and  P_14
REMARK    6  A    between atoms: P_14  and  O_16
REMARK    7  A    between atoms: P_14  and  O_17
REMARK                            x       y       z     vdW  Elec       q    Type
REMARK                         _______ _______ _______ _____ _____    ______ ____
ROOT
ATOM      1  C   UNL     1       3.121   4.259  18.959  0.00  0.00    +0.000 C 
ATOM      2  C   UNL     1       3.014   3.881  17.482  0.00  0.00    +0.000 C 
ATOM      3  C   UNL     1       4.276   3.097  17.231  0.00  0.00    +0.000 C 
ATOM      4  C   UNL     1       5.287   3.794  18.126  0.00  0.00    +0.000 C 
ATOM      5  O   UNL     1       4.533   4.265  19.270  0.00  0.00    +0.000 OA
ENDROOT
BRANCH   1  11
ATOM      6  O   UNL     1       1.205   9.135  20.607  0.00  0.00    +0.000 OA
ATOM      7  C   UNL     1       1.604   8.052  20.193  0.00  0.00    +0.000 A 
ATOM      8  N   UNL     1       1.566   6.930  20.981  0.00  0.00    +0.000 N 
ATOM      9  C   UNL     1       2.073   5.698  20.667  0.00  0.00    +0.000 A 
ATOM     10  O   UNL     1       2.116   4.830  21.534  0.00  0.00    +0.000 OA
ATOM     11  N   UNL     1       2.512   5.534  19.355  0.00  0.00    +0.000 N 
ATOM     12  C   UNL     1       2.597   6.631  18.501  0.00  0.00    +0.000 A 
ATOM     13  C   UNL     1       2.175   7.851  18.843  0.00  0.00    +0.000 A 
ATOM     14 CL   UNL     1       2.309   9.198  17.786  0.00  0.00    +0.000 Cl
ATOM     15  H   UNL     1       1.228   7.051  21.923  0.00  0.00    +0.000 HD
ENDBRANCH   1  11
BRANCH   3  16
ATOM     16  O   UNL     1       4.080   1.740  17.630  0.00  0.00    +0.000 OA
ATOM     17  H   UNL     1       4.935   1.274  17.611  0.00  0.00    +0.000 HD
ENDBRANCH   3  16
BRANCH   4  18
ATOM     18  C   UNL     1       5.963   4.979  17.433  0.00  0.00    +0.000 C 
BRANCH  18  19
ATOM     19  O   UNL     1       6.949   4.481  16.541  0.00  0.00    +0.000 OA
BRANCH  19  20
ATOM     20  P   UNL     1       6.807   4.890  15.005  0.00  0.00    +0.000 P 
ATOM     21  O   UNL     1       7.996   5.499  14.354  0.00  0.00    +0.000 OA
BRANCH  20  22
ATOM     22  O   UNL     1       6.297   3.536  14.337  0.00  0.00    +0.000 OA
ATOM     23  H   UNL     1       5.542   3.700  13.744  0.00  0.00    +0.000 HD
ENDBRANCH  20  22
BRANCH  20  24
ATOM     24  O   UNL     1       5.491   5.792  14.975  0.00  0.00    +0.000 OA
ATOM     25  H   UNL     1       4.850   5.453  14.324  0.00  0.00    +0.000 HD
ENDBRANCH  20  24
ENDBRANCH  19  20
ENDBRANCH  18  19
ENDBRANCH   4  18
TORSDOF 7
ENDMDL
MODEL 4
REMARK VINA RESULT:      -6.8      3.012      5.843
REMARK  Name = 
REMARK  7 active torsions:
REMARK  status: ('A' for Active; 'I' for Inactive)
REMARK    1  A    between atoms: N_6  and  C_7
REMARK    2  A    between atoms: C_9  and  O_10
REMARK    3  A    between atoms: C_11  and  C_12
REMARK    4  A    between atoms: C_12  and  O_13
REMARK    5  A    between atoms: O_13  and  P_14
REMARK    6  A    between atoms: P_14  and  O_16
REMARK    7  A    between atoms: P_14  and  O_17
REMARK                            x       y       z     vdW  Elec       q    Type
REMARK                         _______ _______ _______ _____ _____    ______ ____
ROOT
ATOM      1  C   UNL     1       4.607   6.487  18.170  0.00  0.00    +0.000 C 
ATOM      2  C   UNL     1       3.251   7.120  17.856  0.00  0.00    +0.000 C 
ATOM      3  C   UNL     1       2.350   6.561  18.926  0.00  0.00    +0.000 C 
ATOM      4  C   UNL     1       2.898   5.157  19.127  0.00  0.00    +0.000 C 
ATOM      5  O   UNL     1       4.321   5.257  18.875  0.00  0.00    +0.000 OA
ENDROOT
BRANCH   1  11
ATOM      6  O   UNL     1       8.024   5.147  14.085  0.00  0.00    +0.000 OA
ATOM      7  C   UNL     1       7.225   5.463  14.959  0.00  0.00    +0.000 A 
ATOM      8  N   UNL     1       7.608   6.223  16.034  0.00  0.00    +0.000 N 
ATOM      9  C   UNL     1       6.836   6.551  17.116  0.00  0.00    +0.000 A 
ATOM     10  O   UNL     1       7.360   7.098  18.081  0.00  0.00    +0.000 OA
ATOM     11  N   UNL     1       5.486   6.220  17.026  0.00  0.00    +0.000 N 
ATOM     12  C   UNL     1       5.025   5.433  15.973  0.00  0.00    +0.000 A 
ATOM     13  C   UNL     1       5.804   5.047  14.960  0.00  0.00    +0.000 A 
ATOM     14 CL   UNL     1       5.225   4.056  13.682  0.00  0.00    +0.000 Cl
ATOM     15  H   UNL     1       8.582   6.478  16.083  0.00  0.00    +0.000 HD
ENDBRANCH   1  11
BRANCH   3  16
ATOM     16  O   UNL     1       2.481   7.342  20.114  0.00  0.00    +0.000 OA
ATOM     17  H   UNL     1       3.418   7.368  20.378  0.00  0.00    +0.000 HD
ENDBRANCH   3  16
BRANCH   4  18
ATOM     18  C   UNL     1       2.276   4.143  18.165  0.00  0.00    +0.000 C 
BRANCH  18  19
ATOM     19  O   UNL     1       3.229   3.128  17.895  0.00  0.00    +0.000 OA
BRANCH  19  20
ATOM     20  P   UNL     1       3.306   1.915  18.930  0.00  0.00    +0.000 P 
ATOM     21  O   UNL     1       3.918   2.194  20.255  0.00  0.00    +0.000 OA
BRANCH  20  22
ATOM     22  O   UNL     1       1.793   1.415  18.982  0.00  0.00    +0.000 OA
ATOM     23  H   UNL     1       1.233   2.042  19.473  0.00  0.00    +0.000 HD
ENDBRANCH  20  22
BRANCH  20  24
ATOM     24  O   UNL     1       4.012   0.752  18.097  0.00  0.00    +0.000 OA
ATOM     25  H   UNL     1       4.131  -0.046  18.642  0.00  0.00    +0.000 HD
ENDBRANCH  20  24
ENDBRANCH  19  20
ENDBRANCH  18  19
ENDBRANCH   4  18
TORSDOF 7
ENDMDL
MODEL 5
REMARK VINA RESULT:      -6.8      2.907      4.266
REMARK  Name = 
REMARK  7 active torsions:
REMARK  status: ('A' for Active; 'I' for Inactive)
REMARK    1  A    between atoms: N_6  and  C_7
REMARK    2  A    between atoms: C_9  and  O_10
REMARK    3  A    between atoms: C_11  and  C_12
REMARK    4  A    between atoms: C_12  and  O_13
REMARK    5  A    between atoms: O_13  and  P_14
REMARK    6  A    between atoms: P_14  and  O_16
REMARK    7  A    between atoms: P_14  and  O_17
REMARK                            x       y       z     vdW  Elec       q    Type
REMARK                         _______ _______ _______ _____ _____    ______ ____
ROOT
ATOM      1  C   UNL     1       5.534   6.058  18.611  0.00  0.00    +0.000 C 
ATOM      2  C   UNL     1       6.688   5.455  19.413  0.00  0.00    +0.000 C 
ATOM      3  C   UNL     1       7.912   5.942  18.681  0.00  0.00    +0.000 C 
ATOM      4  C   UNL     1       7.454   5.949  17.231  0.00  0.00    +0.000 C 
ATOM      5  O   UNL     1       6.040   6.262  17.272  0.00  0.00    +0.000 OA
ENDROOT
BRANCH   1  11
ATOM      6  O   UNL     1       0.915   3.145  18.034  0.00  0.00    +0.000 OA
ATOM      7  C   UNL     1       1.958   3.765  18.207  0.00  0.00    +0.000 A 
ATOM      8  N   UNL     1       1.981   5.136  18.200  0.00  0.00    +0.000 N 
ATOM      9  C   UNL     1       3.093   5.931  18.280  0.00  0.00    +0.000 A 
ATOM     10  O   UNL     1       2.979   7.139  18.095  0.00  0.00    +0.000 OA
ATOM     11  N   UNL     1       4.291   5.281  18.567  0.00  0.00    +0.000 N 
ATOM     12  C   UNL     1       4.350   3.889  18.573  0.00  0.00    +0.000 A 
ATOM     13  C   UNL     1       3.272   3.116  18.413  0.00  0.00    +0.000 A 
ATOM     14 CL   UNL     1       3.366   1.402  18.399  0.00  0.00    +0.000 Cl
ATOM     15  H   UNL     1       1.108   5.602  18.012  0.00  0.00    +0.000 HD
ENDBRANCH   1  11
BRANCH   3  16
ATOM     16  O   UNL     1       8.241   7.258  19.126  0.00  0.00    +0.000 OA
ATOM     17  H   UNL     1       9.044   7.219  19.675  0.00  0.00    +0.000 HD
ENDBRANCH   3  16
BRANCH   4  18
ATOM     18  C   UNL     1       7.661   4.597  16.545  0.00  0.00    +0.000 C 
BRANCH  18  19
ATOM     19  O   UNL     1       7.504   4.769  15.146  0.00  0.00    +0.000 OA
BRANCH  19  20
ATOM     20  P   UNL     1       6.213   4.111  14.477  0.00  0.00    +0.000 P 
ATOM     21  O   UNL     1       6.327   3.691  13.056  0.00  0.00    +0.000 OA
BRANCH  20  22
ATOM     22  O   UNL     1       5.861   2.938  15.497  0.00  0.00    +0.000 OA
ATOM     23  H   UNL     1       5.013   3.107  15.946  0.00  0.00    +0.000 HD
ENDBRANCH  20  22
BRANCH  20  24
ATOM     24  O   UNL     1       5.055   5.168  14.772  0.00  0.00    +0.000 OA
ATOM     25  H   UNL     1       5.342   5.825  15.430  0.00  0.00    +0.000 HD
ENDBRANCH  20  24
ENDBRANCH  19  20
ENDBRANCH  18  19
ENDBRANCH   4  18
TORSDOF 7
ENDMDL
MODEL 6
REMARK VINA RESULT:      -6.8      2.655      5.282
REMARK  Name = 
REMARK  7 active torsions:
REMARK  status: ('A' for Active; 'I' for Inactive)
REMARK    1  A    between atoms: N_6  and  C_7
REMARK    2  A    between atoms: C_9  and  O_10
REMARK    3  A    between atoms: C_11  and  C_12
REMARK    4  A    between atoms: C_12  and  O_13
REMARK    5  A    between atoms: O_13  and  P_14
REMARK    6  A    between atoms: P_14  and  O_16
REMARK    7  A    between atoms: P_14  and  O_17
REMARK                            x       y       z     vdW  Elec       q    Type
REMARK                         _______ _______ _______ _____ _____    ______ ____
ROOT
ATOM      1  C   UNL     1       4.155   6.101  19.380  0.00  0.00    +0.000 C 
ATOM      2  C   UNL     1       2.822   6.645  18.868  0.00  0.00    +0.000 C 
ATOM      3  C   UNL     1       1.826   6.129  19.874  0.00  0.00    +0.000 C 
ATOM      4  C   UNL     1       2.400   4.771  20.247  0.00  0.00    +0.000 C 
ATOM      5  O   UNL     1       3.837   4.917  20.146  0.00  0.00    +0.000 OA
ENDROOT
BRANCH   1  11
ATOM      6  O   UNL     1       7.856   4.530  15.638  0.00  0.00    +0.000 OA
ATOM      7  C   UNL     1       7.018   4.923  16.441  0.00  0.00    +0.000 A 
ATOM      8  N   UNL     1       7.311   5.046  17.775  0.00  0.00    +0.000 N 
ATOM      9  C   UNL     1       6.434   5.374  18.774  0.00  0.00    +0.000 A 
ATOM     10  O   UNL     1       6.798   5.285  19.942  0.00  0.00    +0.000 OA
ATOM     11  N   UNL     1       5.168   5.788  18.365  0.00  0.00    +0.000 N 
ATOM     12  C   UNL     1       4.791   5.675  17.029  0.00  0.00    +0.000 A 
ATOM     13  C   UNL     1       5.628   5.275  16.069  0.00  0.00    +0.000 A 
ATOM     14 CL   UNL     1       5.140   5.119  14.431  0.00  0.00    +0.000 Cl
ATOM     15  H   UNL     1       8.234   4.765  18.062  0.00  0.00    +0.000 HD
ENDBRANCH   1  11
BRANCH   3  16
ATOM     16  O   UNL     1       1.793   7.004  21.002  0.00  0.00    +0.000 OA
ATOM     17  H   UNL     1       1.304   6.573  21.726  0.00  0.00    +0.000 HD
ENDBRANCH   3  16
BRANCH   4  18
ATOM     18  C   UNL     1       1.929   3.659  19.308  0.00  0.00    +0.000 C 
BRANCH  18  19
ATOM     19  O   UNL     1       2.659   2.478  19.599  0.00  0.00    +0.000 OA
BRANCH  19  20
ATOM     20  P   UNL     1       3.848   2.098  18.603  0.00  0.00    +0.000 P 
ATOM     21  O   UNL     1       3.788   2.667  17.231  0.00  0.00    +0.000 OA
BRANCH  20  22
ATOM     22  O   UNL     1       5.139   2.506  19.443  0.00  0.00    +0.000 OA
ATOM     23  H   UNL     1       4.972   2.437  20.400  0.00  0.00    +0.000 HD
ENDBRANCH  20  22
BRANCH  20  24
ATOM     24  O   UNL     1       3.899   0.504  18.667  0.00  0.00    +0.000 OA
ATOM     25  H   UNL     1       3.485   0.175  19.484  0.00  0.00    +0.000 HD
ENDBRANCH  20  24
ENDBRANCH  19  20
ENDBRANCH  18  19
ENDBRANCH   4  18
TORSDOF 7
ENDMDL
MODEL 7
REMARK VINA RESULT:      -6.7      3.263      6.015
REMARK  Name = 
REMARK  7 active torsions:
REMARK  status: ('A' for Active; 'I' for Inactive)
REMARK    1  A    between atoms: N_6  and  C_7
REMARK    2  A    between atoms: C_9  and  O_10
REMARK    3  A    between atoms: C_11  and  C_12
REMARK    4  A    between atoms: C_12  and  O_13
REMARK    5  A    between atoms: O_13  and  P_14
REMARK    6  A    between atoms: P_14  and  O_16
REMARK    7  A    between atoms: P_14  and  O_17
REMARK                            x       y       z     vdW  Elec       q    Type
REMARK                         _______ _______ _______ _____ _____    ______ ____
ROOT
ATOM      1  C   UNL     1       4.704   6.571  18.264  0.00  0.00    +0.000 C 
ATOM      2  C   UNL     1       3.191   6.505  18.060  0.00  0.00    +0.000 C 
ATOM      3  C   UNL     1       2.676   6.065  19.406  0.00  0.00    +0.000 C 
ATOM      4  C   UNL     1       3.771   5.129  19.892  0.00  0.00    +0.000 C 
ATOM      5  O   UNL     1       5.003   5.652  19.340  0.00  0.00    +0.000 OA
ENDROOT
BRANCH   1  11
ATOM      6  O   UNL     1       7.950   5.093  14.088  0.00  0.00    +0.000 OA
ATOM      7  C   UNL     1       7.188   5.439  14.983  0.00  0.00    +0.000 A 
ATOM      8  N   UNL     1       7.621   6.219  16.025  0.00  0.00    +0.000 N 
ATOM      9  C   UNL     1       6.894   6.581  17.127  0.00  0.00    +0.000 A 
ATOM     10  O   UNL     1       7.460   7.143  18.059  0.00  0.00    +0.000 OA
ATOM     11  N   UNL     1       5.537   6.266  17.095  0.00  0.00    +0.000 N 
ATOM     12  C   UNL     1       5.027   5.462  16.078  0.00  0.00    +0.000 A 
ATOM     13  C   UNL     1       5.763   5.043  15.046  0.00  0.00    +0.000 A 
ATOM     14 CL   UNL     1       5.124   4.031  13.814  0.00  0.00    +0.000 Cl
ATOM     15  H   UNL     1       8.599   6.461  16.032  0.00  0.00    +0.000 HD
ENDBRANCH   1  11
BRANCH   3  16
ATOM     16  O   UNL     1       2.549   7.201  20.261  0.00  0.00    +0.000 OA
ATOM     17  H   UNL     1       2.705   8.011  19.743  0.00  0.00    +0.000 HD
ENDBRANCH   3  16
BRANCH   4  18
ATOM     18  C   UNL     1       3.565   3.690  19.415  0.00  0.00    +0.000 C 
BRANCH  18  19
ATOM     19  O   UNL     1       2.217   3.319  19.660  0.00  0.00    +0.000 OA
BRANCH  19  20
ATOM     20  P   UNL     1       1.451   2.558  18.485  0.00  0.00    +0.000 P 
ATOM     21  O   UNL     1       0.132   1.957  18.814  0.00  0.00    +0.000 OA
BRANCH  20  22
ATOM     22  O   UNL     1       1.417   3.658  17.332  0.00  0.00    +0.000 OA
ATOM     23  H   UNL     1       0.795   3.407  16.626  0.00  0.00    +0.000 HD
ENDBRANCH  20  22
BRANCH  20  24
ATOM     24  O   UNL     1       2.538   1.529  17.930  0.00  0.00    +0.000 OA
ATOM     25  H   UNL     1       2.578   1.555  16.958  0.00  0.00    +0.000 HD
ENDBRANCH  20  24
ENDBRANCH  19  20
ENDBRANCH  18  19
ENDBRANCH   4  18
TORSDOF 7
ENDMDL
MODEL 8
REMARK VINA RESULT:      -6.7      1.112      1.583
REMARK  Name = 
REMARK  7 active torsions:
REMARK  status: ('A' for Active; 'I' for Inactive)
REMARK    1  A    between atoms: N_6  and  C_7
REMARK    2  A    between atoms: C_9  and  O_10
REMARK    3  A    between atoms: C_11  and  C_12
REMARK    4  A    between atoms: C_12  and  O_13
REMARK    5  A    between atoms: O_13  and  P_14
REMARK    6  A    between atoms: P_14  and  O_16
REMARK    7  A    between atoms: P_14  and  O_17
REMARK                            x       y       z     vdW  Elec       q    Type
REMARK                         _______ _______ _______ _____ _____    ______ ____
ROOT
ATOM      1  C   UNL     1       3.119   4.331  18.943  0.00  0.00    +0.000 C 
ATOM      2  C   UNL     1       2.624   3.739  17.623  0.00  0.00    +0.000 C 
ATOM      3  C   UNL     1       3.844   3.049  17.072  0.00  0.00    +0.000 C 
ATOM      4  C   UNL     1       4.976   3.958  17.524  0.00  0.00    +0.000 C 
ATOM      5  O   UNL     1       4.545   4.513  18.790  0.00  0.00    +0.000 OA
ENDROOT
BRANCH   1  11
ATOM      6  O   UNL     1       1.142   9.137  20.718  0.00  0.00    +0.000 OA
ATOM      7  C   UNL     1       1.553   8.070  20.277  0.00  0.00    +0.000 A 
ATOM      8  N   UNL     1       1.551   6.933  21.043  0.00  0.00    +0.000 N 
ATOM      9  C   UNL     1       2.074   5.717  20.696  0.00  0.00    +0.000 A 
ATOM     10  O   UNL     1       2.149   4.834  21.545  0.00  0.00    +0.000 OA
ATOM     11  N   UNL     1       2.493   5.586  19.374  0.00  0.00    +0.000 N 
ATOM     12  C   UNL     1       2.542   6.701  18.540  0.00  0.00    +0.000 A 
ATOM     13  C   UNL     1       2.104   7.906  18.912  0.00  0.00    +0.000 A 
ATOM     14 CL   UNL     1       2.194   9.274  17.879  0.00  0.00    +0.000 Cl
ATOM     15  H   UNL     1       1.227   7.029  21.992  0.00  0.00    +0.000 HD
ENDBRANCH   1  11
BRANCH   3  16
ATOM     16  O   UNL     1       3.960   1.750  17.654  0.00  0.00    +0.000 OA
ATOM     17  H   UNL     1       3.084   1.326  17.667  0.00  0.00    +0.000 HD
ENDBRANCH   3  16
BRANCH   4  18
ATOM     18  C   UNL     1       5.249   5.090  16.532  0.00  0.00    +0.000 C 
BRANCH  18  19
ATOM     19  O   UNL     1       5.607   6.255  17.259  0.00  0.00    +0.000 OA
BRANCH  19  20
ATOM     20  P   UNL     1       7.138   6.702  17.199  0.00  0.00    +0.000 P 
ATOM     21  O   UNL     1       7.418   8.162  17.225  0.00  0.00    +0.000 OA
BRANCH  20  22
ATOM     22  O   UNL     1       7.783   5.875  18.399  0.00  0.00    +0.000 OA
ATOM     23  H   UNL     1       7.119   5.306  18.829  0.00  0.00    +0.000 HD
ENDBRANCH  20  22
BRANCH  20  24
ATOM     24  O   UNL     1       7.706   5.933  15.921  0.00  0.00    +0.000 OA
ATOM     25  H   UNL     1       8.546   5.487  16.128  0.00  0.00    +0.000 HD
ENDBRANCH  20  24
ENDBRANCH  19  20
ENDBRANCH  18  19
ENDBRANCH   4  18
TORSDOF 7
ENDMDL
MODEL 9
REMARK VINA RESULT:      -6.6      3.144      5.884
REMARK  Name = 
REMARK  7 active torsions:
REMARK  status: ('A' for Active; 'I' for Inactive)
REMARK    1  A    between atoms: N_6  and  C_7
REMARK    2  A    between atoms: C_9  and  O_10
REMARK    3  A    between atoms: C_11  and  C_12
REMARK    4  A    between atoms: C_12  and  O_13
REMARK    5  A    between atoms: O_13  and  P_14
REMARK    6  A    between atoms: P_14  and  O_16
REMARK    7  A    between atoms: P_14  and  O_17
REMARK                            x       y       z     vdW  Elec       q    Type
REMARK                         _______ _______ _______ _____ _____    ______ ____
ROOT
ATOM      1  C   UNL     1       4.662   6.487  18.255  0.00  0.00    +0.000 C 
ATOM      2  C   UNL     1       3.164   6.225  18.093  0.00  0.00    +0.000 C 
ATOM      3  C   UNL     1       2.732   5.815  19.477  0.00  0.00    +0.000 C 
ATOM      4  C   UNL     1       3.941   5.053  19.994  0.00  0.00    +0.000 C 
ATOM      5  O   UNL     1       5.090   5.684  19.378  0.00  0.00    +0.000 OA
ENDROOT
BRANCH   1  11
ATOM      6  O   UNL     1       7.954   5.111  14.080  0.00  0.00    +0.000 OA
ATOM      7  C   UNL     1       7.182   5.434  14.975  0.00  0.00    +0.000 A 
ATOM      8  N   UNL     1       7.592   6.218  16.022  0.00  0.00    +0.000 N 
ATOM      9  C   UNL     1       6.853   6.557  17.124  0.00  0.00    +0.000 A 
ATOM     10  O   UNL     1       7.403   7.127  18.060  0.00  0.00    +0.000 OA
ATOM     11  N   UNL     1       5.505   6.209  17.086  0.00  0.00    +0.000 N 
ATOM     12  C   UNL     1       5.018   5.398  16.064  0.00  0.00    +0.000 A 
ATOM     13  C   UNL     1       5.767   5.002  15.031  0.00  0.00    +0.000 A 
ATOM     14 CL   UNL     1       5.157   3.983  13.792  0.00  0.00    +0.000 Cl
ATOM     15  H   UNL     1       8.564   6.484  16.033  0.00  0.00    +0.000 HD
ENDBRANCH   1  11
BRANCH   3  16
ATOM     16  O   UNL     1       2.481   6.981  20.262  0.00  0.00    +0.000 OA
ATOM     17  H   UNL     1       2.627   6.771  21.202  0.00  0.00    +0.000 HD
ENDBRANCH   3  16
BRANCH   4  18
ATOM     18  C   UNL     1       3.904   3.571  19.614  0.00  0.00    +0.000 C 
BRANCH  18  19
ATOM     19  O   UNL     1       2.549   3.168  19.488  0.00  0.00    +0.000 OA
BRANCH  19  20
ATOM     20  P   UNL     1       2.158   2.349  18.176  0.00  0.00    +0.000 P 
ATOM     21  O   UNL     1       2.106   3.104  16.897  0.00  0.00    +0.000 OA
BRANCH  20  22
ATOM     22  O   UNL     1       3.201   1.144  18.201  0.00  0.00    +0.000 OA
ATOM     23  H   UNL     1       3.675   1.109  19.051  0.00  0.00    +0.000 HD
ENDBRANCH  20  22
BRANCH  20  24
ATOM     24  O   UNL     1       0.797   1.619  18.579  0.00  0.00    +0.000 OA
ATOM     25  H   UNL     1       0.180   2.240  19.004  0.00  0.00    +0.000 HD
ENDBRANCH  20  24
ENDBRANCH  19  20
ENDBRANCH  18  19
ENDBRANCH   4  18
TORSDOF 7
ENDMDL
