MODEL 1
REMARK VINA RESULT:      -7.7      0.000      0.000
REMARK  Name = 
REMARK  5 active torsions:
REMARK  status: ('A' for Active; 'I' for Inactive)
REMARK    1  A    between atoms: C_1  and  C_2
REMARK    2  A    between atoms: C_2  and  C_3
REMARK    3  A    between atoms: C_3  and  C_4
REMARK    4  A    between atoms: C_14  and  C_15
REMARK    5  A    between atoms: C_18  and  C_19
REMARK                            x       y       z     vdW  Elec       q    Type
REMARK                         _______ _______ _______ _____ _____    ______ ____
ROOT
ATOM      1  C   UNL     1       5.360   2.918  11.905  0.00  0.00    +0.000 C 
ATOM      2  O   UNL     1       4.400   3.616  12.208  0.00  0.00    +0.000 OA
ATOM      3  N   UNL     1       6.643   3.064  12.379  0.00  0.00    +0.000 N 
ATOM      4  C   UNL     1       6.958   4.043  13.289  0.00  0.00    +0.000 A 
ATOM      5  N   UNL     1       8.082   4.742  13.111  0.00  0.00    +0.000 NA
ATOM      6  N   UNL     1       8.028   5.671  14.078  0.00  0.00    +0.000 N 
ATOM      7  C   UNL     1       7.024   5.476  14.985  0.00  0.00    +0.000 A 
ATOM      8  C   UNL     1       6.712   6.128  16.174  0.00  0.00    +0.000 A 
ATOM      9  C   UNL     1       5.656   5.608  16.948  0.00  0.00    +0.000 A 
ATOM     10 CL   UNL     1       5.487   6.366  18.504  0.00  0.00    +0.000 Cl
ATOM     11  C   UNL     1       4.865   4.513  16.521  0.00  0.00    +0.000 A 
ATOM     12  C   UNL     1       5.190   3.943  15.260  0.00  0.00    +0.000 A 
ATOM     13  C   UNL     1       6.287   4.408  14.495  0.00  0.00    +0.000 A 
ATOM     14  H   UNL     1       7.407   2.830  11.760  0.00  0.00    +0.000 HD
ATOM     15  H   UNL     1       8.742   6.392  14.091  0.00  0.00    +0.000 HD
ENDROOT
BRANCH  11  16
ATOM     16  C   UNL     1       3.766   3.902  17.332  0.00  0.00    +0.000 A 
ATOM     17  C   UNL     1       3.833   2.587  17.824  0.00  0.00    +0.000 A 
ATOM     18  C   UNL     1       2.751   1.984  18.481  0.00  0.00    +0.000 A 
ATOM     19  C   UNL     1       1.578   2.698  18.721  0.00  0.00    +0.000 A 
ATOM     20  C   UNL     1       0.403   2.052  19.392  0.00  0.00    +0.000 C 
ATOM     21  C   UNL     1       1.523   4.037  18.330  0.00  0.00    +0.000 A 
ATOM     22  C   UNL     1       2.591   4.621  17.634  0.00  0.00    +0.000 A 
ENDBRANCH  11  16
BRANCH   1  23
ATOM     23  C   UNL     1       5.204   1.762  10.940  0.00  0.00    +0.000 C 
BRANCH  23  25
ATOM     24  C   UNL     1       6.037  -0.599  11.327  0.00  0.00    +0.000 C 
ATOM     25  C   UNL     1       6.416   0.838  10.990  0.00  0.00    +0.000 C 
ENDBRANCH  23  25
ENDBRANCH   1  23
TORSDOF 3
ENDMDL
MODEL 2
REMARK VINA RESULT:      -7.7      0.161      1.011
REMARK  Name = 
REMARK  5 active torsions:
REMARK  status: ('A' for Active; 'I' for Inactive)
REMARK    1  A    between atoms: C_1  and  C_2
REMARK    2  A    between atoms: C_2  and  C_3
REMARK    3  A    between atoms: C_3  and  C_4
REMARK    4  A    between atoms: C_14  and  C_15
REMARK    5  A    between atoms: C_18  and  C_19
REMARK                            x       y       z     vdW  Elec       q    Type
REMARK                         _______ _______ _______ _____ _____    ______ ____
ROOT
ATOM      1  C   UNL     1       5.356   2.929  11.937  0.00  0.00    +0.000 C 
ATOM      2  O   UNL     1       4.396   3.633  12.225  0.00  0.00    +0.000 OA
ATOM      3  N   UNL     1       6.632   3.064  12.433  0.00  0.00    +0.000 N 
ATOM      4  C   UNL     1       6.938   4.036  13.353  0.00  0.00    +0.000 A 
ATOM      5  N   UNL     1       8.070   4.727  13.198  0.00  0.00    +0.000 NA
ATOM      6  N   UNL     1       8.006   5.653  14.168  0.00  0.00    +0.000 N 
ATOM      7  C   UNL     1       6.985   5.461  15.056  0.00  0.00    +0.000 A 
ATOM      8  C   UNL     1       6.656   6.111  16.243  0.00  0.00    +0.000 A 
ATOM      9  C   UNL     1       5.583   5.596  16.996  0.00  0.00    +0.000 A 
ATOM     10 CL   UNL     1       5.393   6.348  18.552  0.00  0.00    +0.000 Cl
ATOM     11  C   UNL     1       4.792   4.508  16.550  0.00  0.00    +0.000 A 
ATOM     12  C   UNL     1       5.135   3.941  15.292  0.00  0.00    +0.000 A 
ATOM     13  C   UNL     1       6.248   4.401  14.548  0.00  0.00    +0.000 A 
ATOM     14  H   UNL     1       7.404   2.826  11.827  0.00  0.00    +0.000 HD
ATOM     15  H   UNL     1       8.725   6.368  14.197  0.00  0.00    +0.000 HD
ENDROOT
BRANCH  11  16
ATOM     16  C   UNL     1       3.674   3.902  17.339  0.00  0.00    +0.000 A 
ATOM     17  C   UNL     1       2.488   4.600  17.626  0.00  0.00    +0.000 A 
ATOM     18  C   UNL     1       1.497   4.069  18.464  0.00  0.00    +0.000 A 
ATOM     19  C   UNL     1       1.633   2.789  19.001  0.00  0.00    +0.000 A 
ATOM     20  C   UNL     1       0.596   2.225  19.925  0.00  0.00    +0.000 C 
ATOM     21  C   UNL     1       2.756   2.037  18.651  0.00  0.00    +0.000 A 
ATOM     22  C   UNL     1       3.764   2.591  17.849  0.00  0.00    +0.000 A 
ENDBRANCH  11  16
BRANCH   1  23
ATOM     23  C   UNL     1       5.208   1.778  10.964  0.00  0.00    +0.000 C 
BRANCH  23  25
ATOM     24  C   UNL     1       6.065  -0.575  11.348  0.00  0.00    +0.000 C 
ATOM     25  C   UNL     1       6.429   0.865  11.005  0.00  0.00    +0.000 C 
ENDBRANCH  23  25
ENDBRANCH   1  23
TORSDOF 3
ENDMDL
MODEL 3
REMARK VINA RESULT:      -7.4      8.031     10.298
REMARK  Name = 
REMARK  5 active torsions:
REMARK  status: ('A' for Active; 'I' for Inactive)
REMARK    1  A    between atoms: C_1  and  C_2
REMARK    2  A    between atoms: C_2  and  C_3
REMARK    3  A    between atoms: C_3  and  C_4
REMARK    4  A    between atoms: C_14  and  C_15
REMARK    5  A    between atoms: C_18  and  C_19
REMARK                            x       y       z     vdW  Elec       q    Type
REMARK                         _______ _______ _______ _____ _____    ______ ____
ROOT
ATOM      1  C   UNL     1      -3.066  10.834  17.101  0.00  0.00    +0.000 C 
ATOM      2  O   UNL     1      -3.045   9.698  17.559  0.00  0.00    +0.000 OA
ATOM      3  N   UNL     1      -2.675  11.976  17.761  0.00  0.00    +0.000 N 
ATOM      4  C   UNL     1      -2.187  11.924  19.043  0.00  0.00    +0.000 A 
ATOM      5  N   UNL     1      -2.605  12.838  19.923  0.00  0.00    +0.000 NA
ATOM      6  N   UNL     1      -2.046  12.440  21.076  0.00  0.00    +0.000 N 
ATOM      7  C   UNL     1      -1.135  11.431  20.936  0.00  0.00    +0.000 A 
ATOM      8  C   UNL     1      -0.270  10.833  21.848  0.00  0.00    +0.000 A 
ATOM      9  C   UNL     1       0.637   9.873  21.357  0.00  0.00    +0.000 A 
ATOM     10 CL   UNL     1       1.806   9.346  22.532  0.00  0.00    +0.000 Cl
ATOM     11  C   UNL     1       0.639   9.447  20.006  0.00  0.00    +0.000 A 
ATOM     12  C   UNL     1      -0.324  10.043  19.147  0.00  0.00    +0.000 A 
ATOM     13  C   UNL     1      -1.202  11.055  19.603  0.00  0.00    +0.000 A 
ATOM     14  H   UNL     1      -3.162  12.836  17.550  0.00  0.00    +0.000 HD
ATOM     15  H   UNL     1      -2.296  12.934  21.926  0.00  0.00    +0.000 HD
ENDROOT
BRANCH  11  16
ATOM     16  C   UNL     1       1.614   8.466  19.435  0.00  0.00    +0.000 A 
ATOM     17  C   UNL     1       2.277   8.684  18.215  0.00  0.00    +0.000 A 
ATOM     18  C   UNL     1       3.097   7.709  17.630  0.00  0.00    +0.000 A 
ATOM     19  C   UNL     1       3.330   6.496  18.277  0.00  0.00    +0.000 A 
ATOM     20  C   UNL     1       4.178   5.433  17.644  0.00  0.00    +0.000 C 
ATOM     21  C   UNL     1       2.762   6.294  19.536  0.00  0.00    +0.000 A 
ATOM     22  C   UNL     1       1.907   7.255  20.095  0.00  0.00    +0.000 A 
ENDBRANCH  11  16
BRANCH   1  23
ATOM     23  C   UNL     1      -3.540  11.090  15.686  0.00  0.00    +0.000 C 
BRANCH  23  25
ATOM     24  C   UNL     1      -3.759   9.939  13.440  0.00  0.00    +0.000 C 
ATOM     25  C   UNL     1      -2.937  10.081  14.715  0.00  0.00    +0.000 C 
ENDBRANCH  23  25
ENDBRANCH   1  23
TORSDOF 3
ENDMDL
MODEL 4
REMARK VINA RESULT:      -7.4      3.907      6.479
REMARK  Name = 
REMARK  5 active torsions:
REMARK  status: ('A' for Active; 'I' for Inactive)
REMARK    1  A    between atoms: C_1  and  C_2
REMARK    2  A    between atoms: C_2  and  C_3
REMARK    3  A    between atoms: C_3  and  C_4
REMARK    4  A    between atoms: C_14  and  C_15
REMARK    5  A    between atoms: C_18  and  C_19
REMARK                            x       y       z     vdW  Elec       q    Type
REMARK                         _______ _______ _______ _____ _____    ______ ____
ROOT
ATOM      1  C   UNL     1       7.847   7.454  17.665  0.00  0.00    +0.000 C 
ATOM      2  O   UNL     1       7.462   7.177  18.795  0.00  0.00    +0.000 OA
ATOM      3  N   UNL     1       7.480   6.805  16.509  0.00  0.00    +0.000 N 
ATOM      4  C   UNL     1       6.594   5.757  16.531  0.00  0.00    +0.000 A 
ATOM      5  N   UNL     1       6.861   4.680  15.787  0.00  0.00    +0.000 NA
ATOM      6  N   UNL     1       5.888   3.819  16.124  0.00  0.00    +0.000 N 
ATOM      7  C   UNL     1       4.903   4.365  16.898  0.00  0.00    +0.000 A 
ATOM      8  C   UNL     1       3.689   3.853  17.347  0.00  0.00    +0.000 A 
ATOM      9  C   UNL     1       2.833   4.721  18.053  0.00  0.00    +0.000 A 
ATOM     10 CL   UNL     1       1.264   4.046  18.382  0.00  0.00    +0.000 Cl
ATOM     11  C   UNL     1       3.198   6.049  18.383  0.00  0.00    +0.000 A 
ATOM     12  C   UNL     1       4.485   6.482  17.961  0.00  0.00    +0.000 A 
ATOM     13  C   UNL     1       5.336   5.648  17.196  0.00  0.00    +0.000 A 
ATOM     14  H   UNL     1       8.161   6.741  15.765  0.00  0.00    +0.000 HD
ATOM     15  H   UNL     1       5.931   2.877  15.750  0.00  0.00    +0.000 HD
ENDROOT
BRANCH  11  16
ATOM     16  C   UNL     1       2.302   7.017  19.089  0.00  0.00    +0.000 A 
ATOM     17  C   UNL     1       1.868   8.215  18.496  0.00  0.00    +0.000 A 
ATOM     18  C   UNL     1       1.127   9.171  19.205  0.00  0.00    +0.000 A 
ATOM     19  C   UNL     1       0.742   8.934  20.525  0.00  0.00    +0.000 A 
ATOM     20  C   UNL     1      -0.022   9.963  21.303  0.00  0.00    +0.000 C 
ATOM     21  C   UNL     1       1.076   7.709  21.105  0.00  0.00    +0.000 A 
ATOM     22  C   UNL     1       1.856   6.777  20.405  0.00  0.00    +0.000 A 
ENDBRANCH  11  16
BRANCH   1  23
ATOM     23  C   UNL     1       8.801   8.606  17.432  0.00  0.00    +0.000 C 
BRANCH  23  25
ATOM     24  C   UNL     1       9.396  10.939  18.219  0.00  0.00    +0.000 C 
ATOM     25  C   UNL     1       8.732   9.614  18.574  0.00  0.00    +0.000 C 
ENDBRANCH  23  25
ENDBRANCH   1  23
TORSDOF 3
ENDMDL
MODEL 5
REMARK VINA RESULT:      -7.3      8.004     10.252
REMARK  Name = 
REMARK  5 active torsions:
REMARK  status: ('A' for Active; 'I' for Inactive)
REMARK    1  A    between atoms: C_1  and  C_2
REMARK    2  A    between atoms: C_2  and  C_3
REMARK    3  A    between atoms: C_3  and  C_4
REMARK    4  A    between atoms: C_14  and  C_15
REMARK    5  A    between atoms: C_18  and  C_19
REMARK                            x       y       z     vdW  Elec       q    Type
REMARK                         _______ _______ _______ _____ _____    ______ ____
ROOT
ATOM      1  C   UNL     1      -3.048  10.859  17.105  0.00  0.00    +0.000 C 
ATOM      2  O   UNL     1      -3.062   9.732  17.585  0.00  0.00    +0.000 OA
ATOM      3  N   UNL     1      -2.606  11.998  17.737  0.00  0.00    +0.000 N 
ATOM      4  C   UNL     1      -2.103  11.953  19.014  0.00  0.00    +0.000 A 
ATOM      5  N   UNL     1      -2.475  12.899  19.881  0.00  0.00    +0.000 NA
ATOM      6  N   UNL     1      -1.917  12.502  21.035  0.00  0.00    +0.000 N 
ATOM      7  C   UNL     1      -1.046  11.457  20.904  0.00  0.00    +0.000 A 
ATOM      8  C   UNL     1      -0.191  10.845  21.816  0.00  0.00    +0.000 A 
ATOM      9  C   UNL     1       0.674   9.843  21.334  0.00  0.00    +0.000 A 
ATOM     10 CL   UNL     1       1.837   9.296  22.504  0.00  0.00    +0.000 Cl
ATOM     11  C   UNL     1       0.642   9.391  19.991  0.00  0.00    +0.000 A 
ATOM     12  C   UNL     1      -0.309  10.006  19.132  0.00  0.00    +0.000 A 
ATOM     13  C   UNL     1      -1.143  11.059  19.579  0.00  0.00    +0.000 A 
ATOM     14  H   UNL     1      -3.063  12.871  17.516  0.00  0.00    +0.000 HD
ATOM     15  H   UNL     1      -2.137  13.022  21.877  0.00  0.00    +0.000 HD
ENDROOT
BRANCH  11  16
ATOM     16  C   UNL     1       1.572   8.364  19.427  0.00  0.00    +0.000 A 
ATOM     17  C   UNL     1       1.854   7.157  20.090  0.00  0.00    +0.000 A 
ATOM     18  C   UNL     1       2.815   6.254  19.613  0.00  0.00    +0.000 A 
ATOM     19  C   UNL     1       3.491   6.502  18.419  0.00  0.00    +0.000 A 
ATOM     20  C   UNL     1       4.545   5.560  17.918  0.00  0.00    +0.000 C 
ATOM     21  C   UNL     1       3.158   7.645  17.691  0.00  0.00    +0.000 A 
ATOM     22  C   UNL     1       2.228   8.566  18.196  0.00  0.00    +0.000 A 
ENDBRANCH  11  16
BRANCH   1  23
ATOM     23  C   UNL     1      -3.530  11.105  15.691  0.00  0.00    +0.000 C 
BRANCH  23  25
ATOM     24  C   UNL     1      -3.793   9.965  13.444  0.00  0.00    +0.000 C 
ATOM     25  C   UNL     1      -2.988  10.048  14.735  0.00  0.00    +0.000 C 
ENDBRANCH  23  25
ENDBRANCH   1  23
TORSDOF 3
ENDMDL
MODEL 6
REMARK VINA RESULT:      -7.1      1.150      1.869
REMARK  Name = 
REMARK  5 active torsions:
REMARK  status: ('A' for Active; 'I' for Inactive)
REMARK    1  A    between atoms: C_1  and  C_2
REMARK    2  A    between atoms: C_2  and  C_3
REMARK    3  A    between atoms: C_3  and  C_4
REMARK    4  A    between atoms: C_14  and  C_15
REMARK    5  A    between atoms: C_18  and  C_19
REMARK                            x       y       z     vdW  Elec       q    Type
REMARK                         _______ _______ _______ _____ _____    ______ ____
ROOT
ATOM      1  C   UNL     1       4.940   3.571  12.161  0.00  0.00    +0.000 C 
ATOM      2  O   UNL     1       4.127   4.349  12.647  0.00  0.00    +0.000 OA
ATOM      3  N   UNL     1       6.262   3.457  12.523  0.00  0.00    +0.000 N 
ATOM      4  C   UNL     1       6.795   4.233  13.522  0.00  0.00    +0.000 A 
ATOM      5  N   UNL     1       7.999   4.780  13.333  0.00  0.00    +0.000 NA
ATOM      6  N   UNL     1       8.165   5.553  14.418  0.00  0.00    +0.000 N 
ATOM      7  C   UNL     1       7.213   5.373  15.382  0.00  0.00    +0.000 A 
ATOM      8  C   UNL     1       7.098   5.879  16.674  0.00  0.00    +0.000 A 
ATOM      9  C   UNL     1       6.035   5.409  17.469  0.00  0.00    +0.000 A 
ATOM     10 CL   UNL     1       6.105   5.943  19.123  0.00  0.00    +0.000 Cl
ATOM     11  C   UNL     1       5.051   4.516  16.976  0.00  0.00    +0.000 A 
ATOM     12  C   UNL     1       5.187   4.100  15.624  0.00  0.00    +0.000 A 
ATOM     13  C   UNL     1       6.282   4.509  14.826  0.00  0.00    +0.000 A 
ATOM     14  H   UNL     1       6.930   3.209  11.807  0.00  0.00    +0.000 HD
ATOM     15  H   UNL     1       8.982   6.152  14.459  0.00  0.00    +0.000 HD
ENDROOT
BRANCH  11  16
ATOM     16  C   UNL     1       3.934   3.958  17.799  0.00  0.00    +0.000 A 
ATOM     17  C   UNL     1       2.614   4.432  17.702  0.00  0.00    +0.000 A 
ATOM     18  C   UNL     1       1.599   3.986  18.560  0.00  0.00    +0.000 A 
ATOM     19  C   UNL     1       1.856   3.001  19.513  0.00  0.00    +0.000 A 
ATOM     20  C   UNL     1       0.786   2.542  20.457  0.00  0.00    +0.000 C 
ATOM     21  C   UNL     1       3.134   2.443  19.564  0.00  0.00    +0.000 A 
ATOM     22  C   UNL     1       4.157   2.925  18.733  0.00  0.00    +0.000 A 
ENDBRANCH  11  16
BRANCH   1  23
ATOM     23  C   UNL     1       4.531   2.607  11.067  0.00  0.00    +0.000 C 
BRANCH  23  25
ATOM     24  C   UNL     1       3.109   4.017   9.515  0.00  0.00    +0.000 C 
ATOM     25  C   UNL     1       3.124   2.912  10.565  0.00  0.00    +0.000 C 
ENDBRANCH  23  25
ENDBRANCH   1  23
TORSDOF 3
ENDMDL
MODEL 7
REMARK VINA RESULT:      -7.1      3.804      6.268
REMARK  Name = 
REMARK  5 active torsions:
REMARK  status: ('A' for Active; 'I' for Inactive)
REMARK    1  A    between atoms: C_1  and  C_2
REMARK    2  A    between atoms: C_2  and  C_3
REMARK    3  A    between atoms: C_3  and  C_4
REMARK    4  A    between atoms: C_14  and  C_15
REMARK    5  A    between atoms: C_18  and  C_19
REMARK                            x       y       z     vdW  Elec       q    Type
REMARK                         _______ _______ _______ _____ _____    ______ ____
ROOT
ATOM      1  C   UNL     1       7.836   7.342  17.581  0.00  0.00    +0.000 C 
ATOM      2  O   UNL     1       7.549   6.972  18.714  0.00  0.00    +0.000 OA
ATOM      3  N   UNL     1       7.401   6.765  16.411  0.00  0.00    +0.000 N 
ATOM      4  C   UNL     1       6.550   5.687  16.423  0.00  0.00    +0.000 A 
ATOM      5  N   UNL     1       6.790   4.676  15.584  0.00  0.00    +0.000 NA
ATOM      6  N   UNL     1       5.872   3.759  15.929  0.00  0.00    +0.000 N 
ATOM      7  C   UNL     1       4.934   4.214  16.813  0.00  0.00    +0.000 A 
ATOM      8  C   UNL     1       3.774   3.629  17.313  0.00  0.00    +0.000 A 
ATOM      9  C   UNL     1       2.950   4.415  18.143  0.00  0.00    +0.000 A 
ATOM     10 CL   UNL     1       1.432   3.664  18.539  0.00  0.00    +0.000 Cl
ATOM     11  C   UNL     1       3.301   5.728  18.542  0.00  0.00    +0.000 A 
ATOM     12  C   UNL     1       4.538   6.235  18.056  0.00  0.00    +0.000 A 
ATOM     13  C   UNL     1       5.351   5.488  17.171  0.00  0.00    +0.000 A 
ATOM     14  H   UNL     1       8.023   6.778  15.616  0.00  0.00    +0.000 HD
ATOM     15  H   UNL     1       5.914   2.849  15.485  0.00  0.00    +0.000 HD
ENDROOT
BRANCH  11  16
ATOM     16  C   UNL     1       2.434   6.612  19.382  0.00  0.00    +0.000 A 
ATOM     17  C   UNL     1       1.825   6.165  20.567  0.00  0.00    +0.000 A 
ATOM     18  C   UNL     1       0.921   6.961  21.285  0.00  0.00    +0.000 A 
ATOM     19  C   UNL     1       0.637   8.262  20.871  0.00  0.00    +0.000 A 
ATOM     20  C   UNL     1      -0.353   9.109  21.612  0.00  0.00    +0.000 C 
ATOM     21  C   UNL     1       1.305   8.764  19.753  0.00  0.00    +0.000 A 
ATOM     22  C   UNL     1       2.174   7.948  19.015  0.00  0.00    +0.000 A 
ENDBRANCH  11  16
BRANCH   1  23
ATOM     23  C   UNL     1       8.735   8.540  17.362  0.00  0.00    +0.000 C 
BRANCH  23  25
ATOM     24  C   UNL     1       9.339  10.842  18.233  0.00  0.00    +0.000 C 
ATOM     25  C   UNL     1       8.628   9.525  18.522  0.00  0.00    +0.000 C 
ENDBRANCH  23  25
ENDBRANCH   1  23
TORSDOF 3
ENDMDL
MODEL 8
REMARK VINA RESULT:      -7.0      1.066      1.594
REMARK  Name = 
REMARK  5 active torsions:
REMARK  status: ('A' for Active; 'I' for Inactive)
REMARK    1  A    between atoms: C_1  and  C_2
REMARK    2  A    between atoms: C_2  and  C_3
REMARK    3  A    between atoms: C_3  and  C_4
REMARK    4  A    between atoms: C_14  and  C_15
REMARK    5  A    between atoms: C_18  and  C_19
REMARK                            x       y       z     vdW  Elec       q    Type
REMARK                         _______ _______ _______ _____ _____    ______ ____
ROOT
ATOM      1  C   UNL     1       4.811   3.558  11.857  0.00  0.00    +0.000 C 
ATOM      2  O   UNL     1       4.016   4.342  12.362  0.00  0.00    +0.000 OA
ATOM      3  N   UNL     1       6.135   3.419  12.202  0.00  0.00    +0.000 N 
ATOM      4  C   UNL     1       6.691   4.174  13.205  0.00  0.00    +0.000 A 
ATOM      5  N   UNL     1       7.901   4.704  13.008  0.00  0.00    +0.000 NA
ATOM      6  N   UNL     1       8.092   5.460  14.101  0.00  0.00    +0.000 N 
ATOM      7  C   UNL     1       7.149   5.283  15.074  0.00  0.00    +0.000 A 
ATOM      8  C   UNL     1       7.056   5.774  16.373  0.00  0.00    +0.000 A 
ATOM      9  C   UNL     1       5.995   5.311  17.175  0.00  0.00    +0.000 A 
ATOM     10 CL   UNL     1       6.092   5.822  18.834  0.00  0.00    +0.000 Cl
ATOM     11  C   UNL     1       4.992   4.440  16.682  0.00  0.00    +0.000 A 
ATOM     12  C   UNL     1       5.105   4.038  15.323  0.00  0.00    +0.000 A 
ATOM     13  C   UNL     1       6.198   4.440  14.517  0.00  0.00    +0.000 A 
ATOM     14  H   UNL     1       6.791   3.169  11.475  0.00  0.00    +0.000 HD
ATOM     15  H   UNL     1       8.919   6.046  14.140  0.00  0.00    +0.000 HD
ENDROOT
BRANCH  11  16
ATOM     16  C   UNL     1       3.875   3.888  17.511  0.00  0.00    +0.000 A 
ATOM     17  C   UNL     1       3.870   2.566  17.986  0.00  0.00    +0.000 A 
ATOM     18  C   UNL     1       2.768   2.022  18.661  0.00  0.00    +0.000 A 
ATOM     19  C   UNL     1       1.647   2.805  18.937  0.00  0.00    +0.000 A 
ATOM     20  C   UNL     1       0.450   2.225  19.628  0.00  0.00    +0.000 C 
ATOM     21  C   UNL     1       1.668   4.150  18.563  0.00  0.00    +0.000 A 
ATOM     22  C   UNL     1       2.755   4.675  17.849  0.00  0.00    +0.000 A 
ENDBRANCH  11  16
BRANCH   1  23
ATOM     23  C   UNL     1       4.374   2.614  10.756  0.00  0.00    +0.000 C 
BRANCH  23  25
ATOM     24  C   UNL     1       2.962   4.185   9.358  0.00  0.00    +0.000 C 
ATOM     25  C   UNL     1       2.973   2.958  10.262  0.00  0.00    +0.000 C 
ENDBRANCH  23  25
ENDBRANCH   1  23
TORSDOF 3
ENDMDL
MODEL 9
REMARK VINA RESULT:      -7.0      6.432      8.672
REMARK  Name = 
REMARK  5 active torsions:
REMARK  status: ('A' for Active; 'I' for Inactive)
REMARK    1  A    between atoms: C_1  and  C_2
REMARK    2  A    between atoms: C_2  and  C_3
REMARK    3  A    between atoms: C_3  and  C_4
REMARK    4  A    between atoms: C_14  and  C_15
REMARK    5  A    between atoms: C_18  and  C_19
REMARK                            x       y       z     vdW  Elec       q    Type
REMARK                         _______ _______ _______ _____ _____    ______ ____
ROOT
ATOM      1  C   UNL     1       1.938   4.865  20.706  0.00  0.00    +0.000 C 
ATOM      2  O   UNL     1       0.795   5.186  20.401  0.00  0.00    +0.000 OA
ATOM      3  N   UNL     1       3.092   5.421  20.204  0.00  0.00    +0.000 N 
ATOM      4  C   UNL     1       3.049   6.445  19.290  0.00  0.00    +0.000 A 
ATOM      5  N   UNL     1       3.881   6.403  18.246  0.00  0.00    +0.000 NA
ATOM      6  N   UNL     1       3.505   7.458  17.505  0.00  0.00    +0.000 N 
ATOM      7  C   UNL     1       2.607   8.282  18.123  0.00  0.00    +0.000 A 
ATOM      8  C   UNL     1       2.076   9.514  17.752  0.00  0.00    +0.000 A 
ATOM      9  C   UNL     1       1.238  10.171  18.676  0.00  0.00    +0.000 A 
ATOM     10 CL   UNL     1       0.802  11.786  18.203  0.00  0.00    +0.000 Cl
ATOM     11  C   UNL     1       0.863   9.589  19.912  0.00  0.00    +0.000 A 
ATOM     12  C   UNL     1       1.380   8.294  20.192  0.00  0.00    +0.000 A 
ATOM     13  C   UNL     1       2.274   7.643  19.308  0.00  0.00    +0.000 A 
ATOM     14  H   UNL     1       3.900   4.824  20.102  0.00  0.00    +0.000 HD
ATOM     15  H   UNL     1       3.939   7.585  16.597  0.00  0.00    +0.000 HD
ENDROOT
BRANCH  11  16
ATOM     16  C   UNL     1       0.015  10.270  20.939  0.00  0.00    +0.000 A 
ATOM     17  C   UNL     1      -0.071   9.818  22.267  0.00  0.00    +0.000 A 
ATOM     18  C   UNL     1      -0.957  10.389  23.191  0.00  0.00    +0.000 A 
ATOM     19  C   UNL     1      -1.753  11.477  22.833  0.00  0.00    +0.000 A 
ATOM     20  C   UNL     1      -2.727  12.074  23.803  0.00  0.00    +0.000 C 
ATOM     21  C   UNL     1      -1.614  12.008  21.549  0.00  0.00    +0.000 A 
ATOM     22  C   UNL     1      -0.758  11.404  20.616  0.00  0.00    +0.000 A 
ENDBRANCH  11  16
BRANCH   1  23
ATOM     23  C   UNL     1       2.190   3.777  21.728  0.00  0.00    +0.000 C 
BRANCH  23  25
ATOM     24  C   UNL     1       1.818   2.089  19.876  0.00  0.00    +0.000 C 
ATOM     25  C   UNL     1       1.514   2.473  21.319  0.00  0.00    +0.000 C 
ENDBRANCH  23  25
ENDBRANCH   1  23
TORSDOF 3
ENDMDL
