MODEL 1
REMARK VINA RESULT:      -9.2      0.000      0.000
REMARK  Name = 
REMARK  5 active torsions:
REMARK  status: ('A' for Active; 'I' for Inactive)
REMARK    1  A    between atoms: C_1  and  O_2
REMARK    2  A    between atoms: O_2  and  C_3
REMARK    3  A    between atoms: C_6  and  C_7
REMARK    4  A    between atoms: C_19  and  O_20
REMARK    5  A    between atoms: O_20  and  C_21
REMARK                            x       y       z     vdW  Elec       q    Type
REMARK                         _______ _______ _______ _____ _____    ______ ____
ROOT
ATOM      1  C   UNL     1       3.393   3.238  19.818  0.00  0.00    +0.000 A 
ATOM      2  C   UNL     1       2.073   3.446  20.239  0.00  0.00    +0.000 A 
ATOM      3  C   UNL     1       1.539   4.733  20.301  0.00  0.00    +0.000 A 
ATOM      4  C   UNL     1       2.333   5.833  19.973  0.00  0.00    +0.000 A 
ATOM      5  C   UNL     1       3.653   5.642  19.557  0.00  0.00    +0.000 A 
ATOM      6  C   UNL     1       4.199   4.348  19.510  0.00  0.00    +0.000 A 
ENDROOT
BRANCH   4   7
ATOM      7  C   UNL     1       1.830   7.208  20.197  0.00  0.00    +0.000 A 
ATOM      8  N   UNL     1       1.205   7.554  21.278  0.00  0.00    +0.000 NA
ATOM      9  C   UNL     1       0.685   8.869  21.341  0.00  0.00    +0.000 A 
ATOM     10  C   UNL     1       0.105   9.324  22.524  0.00  0.00    +0.000 A 
ATOM     11  C   UNL     1      -0.480  10.597  22.585  0.00  0.00    +0.000 A 
ATOM     12  C   UNL     1      -0.510  11.418  21.455  0.00  0.00    +0.000 A 
ATOM     13  C   UNL     1       0.082  10.985  20.273  0.00  0.00    +0.000 A 
ATOM     14  C   UNL     1       0.694   9.726  20.236  0.00  0.00    +0.000 A 
ATOM     15  C   UNL     1       1.388   9.269  19.030  0.00  0.00    +0.000 A 
ATOM     16  O   UNL     1       1.392   9.914  17.987  0.00  0.00    +0.000 OA
ATOM     17  N   UNL     1       2.014   8.062  19.133  0.00  0.00    +0.000 N 
ATOM     18  H   UNL     1       2.452   7.745  18.280  0.00  0.00    +0.000 HD
ENDBRANCH   4   7
BRANCH   1  20
ATOM     19  C   UNL     1       3.629   1.264  18.539  0.00  0.00    +0.000 C 
ATOM     20  O   UNL     1       3.945   1.988  19.720  0.00  0.00    +0.000 OA
ENDBRANCH   1  20
BRANCH   6  21
ATOM     21  O   UNL     1       5.480   4.280  19.008  0.00  0.00    +0.000 OA
BRANCH  21  22
ATOM     22  C   UNL     1       5.749   4.413  17.665  0.00  0.00    +0.000 A 
ATOM     23  C   UNL     1       7.080   4.736  17.369  0.00  0.00    +0.000 A 
ATOM     24  C   UNL     1       7.500   4.883  16.046  0.00  0.00    +0.000 A 
ATOM     25  C   UNL     1       6.583   4.705  15.020  0.00  0.00    +0.000 A 
ATOM     26  F   UNL     1       6.978   4.858  13.747  0.00  0.00    +0.000 F 
ATOM     27  C   UNL     1       5.262   4.366  15.293  0.00  0.00    +0.000 A 
ATOM     28  C   UNL     1       4.844   4.199  16.618  0.00  0.00    +0.000 A 
ENDBRANCH  21  22
ENDBRANCH   6  21
TORSDOF 4
ENDMDL
MODEL 2
REMARK VINA RESULT:      -8.9      1.564      1.942
REMARK  Name = 
REMARK  5 active torsions:
REMARK  status: ('A' for Active; 'I' for Inactive)
REMARK    1  A    between atoms: C_1  and  O_2
REMARK    2  A    between atoms: O_2  and  C_3
REMARK    3  A    between atoms: C_6  and  C_7
REMARK    4  A    between atoms: C_19  and  O_20
REMARK    5  A    between atoms: O_20  and  C_21
REMARK                            x       y       z     vdW  Elec       q    Type
REMARK                         _______ _______ _______ _____ _____    ______ ____
ROOT
ATOM      1  C   UNL     1       3.325   3.390  19.835  0.00  0.00    +0.000 A 
ATOM      2  C   UNL     1       2.227   3.578  20.684  0.00  0.00    +0.000 A 
ATOM      3  C   UNL     1       1.639   4.835  20.822  0.00  0.00    +0.000 A 
ATOM      4  C   UNL     1       2.166   5.930  20.133  0.00  0.00    +0.000 A 
ATOM      5  C   UNL     1       3.264   5.759  19.287  0.00  0.00    +0.000 A 
ATOM      6  C   UNL     1       3.869   4.498  19.160  0.00  0.00    +0.000 A 
ENDROOT
BRANCH   4   7
ATOM      7  C   UNL     1       1.656   7.294  20.402  0.00  0.00    +0.000 A 
ATOM      8  N   UNL     1       0.997   7.592  21.478  0.00  0.00    +0.000 NA
ATOM      9  C   UNL     1       0.476   8.904  21.583  0.00  0.00    +0.000 A 
ATOM     10  C   UNL     1      -0.141   9.307  22.766  0.00  0.00    +0.000 A 
ATOM     11  C   UNL     1      -0.728  10.577  22.865  0.00  0.00    +0.000 A 
ATOM     12  C   UNL     1      -0.722  11.447  21.774  0.00  0.00    +0.000 A 
ATOM     13  C   UNL     1      -0.092  11.066  20.593  0.00  0.00    +0.000 A 
ATOM     14  C   UNL     1       0.520   9.810  20.519  0.00  0.00    +0.000 A 
ATOM     15  C   UNL     1       1.253   9.406  19.316  0.00  0.00    +0.000 A 
ATOM     16  O   UNL     1       1.290  10.097  18.304  0.00  0.00    +0.000 OA
ATOM     17  N   UNL     1       1.875   8.194  19.384  0.00  0.00    +0.000 N 
ATOM     18  H   UNL     1       2.339   7.916  18.533  0.00  0.00    +0.000 HD
ENDBRANCH   4   7
BRANCH   1  20
ATOM     19  C   UNL     1       3.495   1.443  18.504  0.00  0.00    +0.000 C 
ATOM     20  O   UNL     1       3.914   2.167  19.654  0.00  0.00    +0.000 OA
ENDBRANCH   1  20
BRANCH   6  21
ATOM     21  O   UNL     1       4.890   4.437  18.236  0.00  0.00    +0.000 OA
BRANCH  21  22
ATOM     22  C   UNL     1       5.876   5.395  18.171  0.00  0.00    +0.000 A 
ATOM     23  C   UNL     1       5.673   6.369  17.183  0.00  0.00    +0.000 A 
ATOM     24  C   UNL     1       6.584   7.413  17.015  0.00  0.00    +0.000 A 
ATOM     25  C   UNL     1       7.698   7.480  17.840  0.00  0.00    +0.000 A 
ATOM     26  F   UNL     1       8.583   8.474  17.674  0.00  0.00    +0.000 F 
ATOM     27  C   UNL     1       7.907   6.533  18.837  0.00  0.00    +0.000 A 
ATOM     28  C   UNL     1       6.984   5.497  19.019  0.00  0.00    +0.000 A 
ENDBRANCH  21  22
ENDBRANCH   6  21
TORSDOF 4
ENDMDL
MODEL 3
REMARK VINA RESULT:      -8.8      1.175      1.850
REMARK  Name = 
REMARK  5 active torsions:
REMARK  status: ('A' for Active; 'I' for Inactive)
REMARK    1  A    between atoms: C_1  and  O_2
REMARK    2  A    between atoms: O_2  and  C_3
REMARK    3  A    between atoms: C_6  and  C_7
REMARK    4  A    between atoms: C_19  and  O_20
REMARK    5  A    between atoms: O_20  and  C_21
REMARK                            x       y       z     vdW  Elec       q    Type
REMARK                         _______ _______ _______ _____ _____    ______ ____
ROOT
ATOM      1  C   UNL     1       3.358   3.394  19.894  0.00  0.00    +0.000 A 
ATOM      2  C   UNL     1       2.040   3.613  20.313  0.00  0.00    +0.000 A 
ATOM      3  C   UNL     1       1.500   4.899  20.326  0.00  0.00    +0.000 A 
ATOM      4  C   UNL     1       2.288   5.989  19.950  0.00  0.00    +0.000 A 
ATOM      5  C   UNL     1       3.607   5.786  19.535  0.00  0.00    +0.000 A 
ATOM      6  C   UNL     1       4.158   4.494  19.537  0.00  0.00    +0.000 A 
ENDROOT
BRANCH   4   7
ATOM      7  C   UNL     1       1.780   7.370  20.121  0.00  0.00    +0.000 A 
ATOM      8  N   UNL     1       1.706   8.211  19.138  0.00  0.00    +0.000 NA
ATOM      9  C   UNL     1       1.294   9.532  19.439  0.00  0.00    +0.000 A 
ATOM     10  C   UNL     1       1.090  10.442  18.402  0.00  0.00    +0.000 A 
ATOM     11  C   UNL     1       0.753  11.774  18.682  0.00  0.00    +0.000 A 
ATOM     12  C   UNL     1       0.639  12.214  20.003  0.00  0.00    +0.000 A 
ATOM     13  C   UNL     1       0.821  11.312  21.047  0.00  0.00    +0.000 A 
ATOM     14  C   UNL     1       1.122   9.977  20.753  0.00  0.00    +0.000 A 
ATOM     15  C   UNL     1       1.249   8.988  21.825  0.00  0.00    +0.000 A 
ATOM     16  O   UNL     1       1.188   9.290  23.012  0.00  0.00    +0.000 OA
ATOM     17  N   UNL     1       1.466   7.704  21.418  0.00  0.00    +0.000 N 
ATOM     18  H   UNL     1       1.592   7.044  22.172  0.00  0.00    +0.000 HD
ENDBRANCH   4   7
BRANCH   1  20
ATOM     19  C   UNL     1       3.622   1.383  18.678  0.00  0.00    +0.000 C 
ATOM     20  O   UNL     1       3.915   2.143  19.844  0.00  0.00    +0.000 OA
ENDBRANCH   1  20
BRANCH   6  21
ATOM     21  O   UNL     1       5.437   4.411  19.032  0.00  0.00    +0.000 OA
BRANCH  21  22
ATOM     22  C   UNL     1       5.699   4.500  17.683  0.00  0.00    +0.000 A 
ATOM     23  C   UNL     1       7.034   4.794  17.371  0.00  0.00    +0.000 A 
ATOM     24  C   UNL     1       7.447   4.896  16.041  0.00  0.00    +0.000 A 
ATOM     25  C   UNL     1       6.521   4.702  15.026  0.00  0.00    +0.000 A 
ATOM     26  F   UNL     1       6.910   4.811  13.748  0.00  0.00    +0.000 F 
ATOM     27  C   UNL     1       5.197   4.392  15.317  0.00  0.00    +0.000 A 
ATOM     28  C   UNL     1       4.785   4.270  16.649  0.00  0.00    +0.000 A 
ENDBRANCH  21  22
ENDBRANCH   6  21
TORSDOF 4
ENDMDL
MODEL 4
REMARK VINA RESULT:      -8.6      0.518      1.066
REMARK  Name = 
REMARK  5 active torsions:
REMARK  status: ('A' for Active; 'I' for Inactive)
REMARK    1  A    between atoms: C_1  and  O_2
REMARK    2  A    between atoms: O_2  and  C_3
REMARK    3  A    between atoms: C_6  and  C_7
REMARK    4  A    between atoms: C_19  and  O_20
REMARK    5  A    between atoms: O_20  and  C_21
REMARK                            x       y       z     vdW  Elec       q    Type
REMARK                         _______ _______ _______ _____ _____    ______ ____
ROOT
ATOM      1  C   UNL     1       3.561   3.228  19.681  0.00  0.00    +0.000 A 
ATOM      2  C   UNL     1       2.219   3.421  20.034  0.00  0.00    +0.000 A 
ATOM      3  C   UNL     1       1.674   4.703  20.093  0.00  0.00    +0.000 A 
ATOM      4  C   UNL     1       2.479   5.815  19.830  0.00  0.00    +0.000 A 
ATOM      5  C   UNL     1       3.820   5.638  19.482  0.00  0.00    +0.000 A 
ATOM      6  C   UNL     1       4.376   4.349  19.440  0.00  0.00    +0.000 A 
ENDROOT
BRANCH   4   7
ATOM      7  C   UNL     1       1.955   7.182  20.053  0.00  0.00    +0.000 A 
ATOM      8  N   UNL     1       1.327   7.519  21.135  0.00  0.00    +0.000 NA
ATOM      9  C   UNL     1       0.788   8.827  21.198  0.00  0.00    +0.000 A 
ATOM     10  C   UNL     1       0.202   9.274  22.381  0.00  0.00    +0.000 A 
ATOM     11  C   UNL     1      -0.401  10.538  22.441  0.00  0.00    +0.000 A 
ATOM     12  C   UNL     1      -0.445  11.358  21.312  0.00  0.00    +0.000 A 
ATOM     13  C   UNL     1       0.153  10.932  20.129  0.00  0.00    +0.000 A 
ATOM     14  C   UNL     1       0.783   9.683  20.093  0.00  0.00    +0.000 A 
ATOM     15  C   UNL     1       1.482   9.236  18.885  0.00  0.00    +0.000 A 
ATOM     16  O   UNL     1       1.475   9.880  17.842  0.00  0.00    +0.000 OA
ATOM     17  N   UNL     1       2.126   8.037  18.989  0.00  0.00    +0.000 N 
ATOM     18  H   UNL     1       2.567   7.727  18.136  0.00  0.00    +0.000 HD
ENDBRANCH   4   7
BRANCH   1  20
ATOM     19  C   UNL     1       4.893   1.568  20.712  0.00  0.00    +0.000 C 
ATOM     20  O   UNL     1       4.126   1.984  19.589  0.00  0.00    +0.000 OA
ENDBRANCH   1  20
BRANCH   6  21
ATOM     21  O   UNL     1       5.683   4.297  19.006  0.00  0.00    +0.000 OA
BRANCH  21  22
ATOM     22  C   UNL     1       6.018   4.405  17.676  0.00  0.00    +0.000 A 
ATOM     23  C   UNL     1       5.001   4.024  16.789  0.00  0.00    +0.000 A 
ATOM     24  C   UNL     1       5.196   4.100  15.409  0.00  0.00    +0.000 A 
ATOM     25  C   UNL     1       6.410   4.559  14.919  0.00  0.00    +0.000 A 
ATOM     26  F   UNL     1       6.606   4.621  13.594  0.00  0.00    +0.000 F 
ATOM     27  C   UNL     1       7.424   4.958  15.783  0.00  0.00    +0.000 A 
ATOM     28  C   UNL     1       7.224   4.901  17.167  0.00  0.00    +0.000 A 
ENDBRANCH  21  22
ENDBRANCH   6  21
TORSDOF 4
ENDMDL
MODEL 5
REMARK VINA RESULT:      -8.6      3.565      8.503
REMARK  Name = 
REMARK  5 active torsions:
REMARK  status: ('A' for Active; 'I' for Inactive)
REMARK    1  A    between atoms: C_1  and  O_2
REMARK    2  A    between atoms: O_2  and  C_3
REMARK    3  A    between atoms: C_6  and  C_7
REMARK    4  A    between atoms: C_19  and  O_20
REMARK    5  A    between atoms: O_20  and  C_21
REMARK                            x       y       z     vdW  Elec       q    Type
REMARK                         _______ _______ _______ _____ _____    ______ ____
ROOT
ATOM      1  C   UNL     1       0.133   9.647  20.981  0.00  0.00    +0.000 A 
ATOM      2  C   UNL     1       0.725   8.564  21.643  0.00  0.00    +0.000 A 
ATOM      3  C   UNL     1       1.618   7.724  20.980  0.00  0.00    +0.000 A 
ATOM      4  C   UNL     1       1.907   7.940  19.630  0.00  0.00    +0.000 A 
ATOM      5  C   UNL     1       1.320   9.013  18.955  0.00  0.00    +0.000 A 
ATOM      6  C   UNL     1       0.406   9.850  19.616  0.00  0.00    +0.000 A 
ENDROOT
BRANCH   4   7
ATOM      7  C   UNL     1       2.719   6.958  18.876  0.00  0.00    +0.000 A 
ATOM      8  N   UNL     1       3.482   7.299  17.886  0.00  0.00    +0.000 NA
ATOM      9  C   UNL     1       4.139   6.263  17.179  0.00  0.00    +0.000 A 
ATOM     10  C   UNL     1       5.056   6.585  16.180  0.00  0.00    +0.000 A 
ATOM     11  C   UNL     1       5.662   5.575  15.419  0.00  0.00    +0.000 A 
ATOM     12  C   UNL     1       5.339   4.235  15.636  0.00  0.00    +0.000 A 
ATOM     13  C   UNL     1       4.440   3.897  16.643  0.00  0.00    +0.000 A 
ATOM     14  C   UNL     1       3.869   4.912  17.418  0.00  0.00    +0.000 A 
ATOM     15  C   UNL     1       2.974   4.587  18.531  0.00  0.00    +0.000 A 
ATOM     16  O   UNL     1       2.618   3.440  18.778  0.00  0.00    +0.000 OA
ATOM     17  N   UNL     1       2.538   5.651  19.266  0.00  0.00    +0.000 N 
ATOM     18  H   UNL     1       1.891   5.411  20.002  0.00  0.00    +0.000 HD
ENDBRANCH   4   7
BRANCH   1  20
ATOM     19  C   UNL     1      -0.824  10.374  23.017  0.00  0.00    +0.000 C 
ATOM     20  O   UNL     1      -0.729  10.509  21.605  0.00  0.00    +0.000 OA
ENDBRANCH   1  20
BRANCH   6  21
ATOM     21  O   UNL     1      -0.042  10.920  18.871  0.00  0.00    +0.000 OA
BRANCH  21  22
ATOM     22  C   UNL     1      -1.334  10.997  18.404  0.00  0.00    +0.000 A 
ATOM     23  C   UNL     1      -1.629  10.106  17.363  0.00  0.00    +0.000 A 
ATOM     24  C   UNL     1      -2.908  10.062  16.805  0.00  0.00    +0.000 A 
ATOM     25  C   UNL     1      -3.891  10.910  17.294  0.00  0.00    +0.000 A 
ATOM     26  F   UNL     1      -5.117  10.880  16.752  0.00  0.00    +0.000 F 
ATOM     27  C   UNL     1      -3.622  11.788  18.339  0.00  0.00    +0.000 A 
ATOM     28  C   UNL     1      -2.346  11.820  18.912  0.00  0.00    +0.000 A 
ENDBRANCH  21  22
ENDBRANCH   6  21
TORSDOF 4
ENDMDL
MODEL 6
REMARK VINA RESULT:      -8.5      3.631      8.621
REMARK  Name = 
REMARK  5 active torsions:
REMARK  status: ('A' for Active; 'I' for Inactive)
REMARK    1  A    between atoms: C_1  and  O_2
REMARK    2  A    between atoms: O_2  and  C_3
REMARK    3  A    between atoms: C_6  and  C_7
REMARK    4  A    between atoms: C_19  and  O_20
REMARK    5  A    between atoms: O_20  and  C_21
REMARK                            x       y       z     vdW  Elec       q    Type
REMARK                         _______ _______ _______ _____ _____    ______ ____
ROOT
ATOM      1  C   UNL     1       0.060  10.577  21.449  0.00  0.00    +0.000 A 
ATOM      2  C   UNL     1       0.654   9.688  22.354  0.00  0.00    +0.000 A 
ATOM      3  C   UNL     1       1.380   8.587  21.900  0.00  0.00    +0.000 A 
ATOM      4  C   UNL     1       1.493   8.345  20.529  0.00  0.00    +0.000 A 
ATOM      5  C   UNL     1       0.902   9.220  19.615  0.00  0.00    +0.000 A 
ATOM      6  C   UNL     1       0.155  10.319  20.070  0.00  0.00    +0.000 A 
ENDROOT
BRANCH   4   7
ATOM      7  C   UNL     1       2.116   7.092  20.044  0.00  0.00    +0.000 A 
ATOM      8  N   UNL     1       2.729   7.014  18.904  0.00  0.00    +0.000 NA
ATOM      9  C   UNL     1       3.202   5.743  18.502  0.00  0.00    +0.000 A 
ATOM     10  C   UNL     1       3.964   5.627  17.340  0.00  0.00    +0.000 A 
ATOM     11  C   UNL     1       4.380   4.368  16.885  0.00  0.00    +0.000 A 
ATOM     12  C   UNL     1       4.019   3.210  17.576  0.00  0.00    +0.000 A 
ATOM     13  C   UNL     1       3.276   3.311  18.748  0.00  0.00    +0.000 A 
ATOM     14  C   UNL     1       2.897   4.576  19.210  0.00  0.00    +0.000 A 
ATOM     15  C   UNL     1       2.175   4.723  20.476  0.00  0.00    +0.000 A 
ATOM     16  O   UNL     1       1.798   3.760  21.135  0.00  0.00    +0.000 OA
ATOM     17  N   UNL     1       1.926   6.006  20.867  0.00  0.00    +0.000 N 
ATOM     18  H   UNL     1       1.392   6.085  21.720  0.00  0.00    +0.000 HD
ENDBRANCH   4   7
BRANCH   1  20
ATOM     19  C   UNL     1      -1.474  11.501  22.993  0.00  0.00    +0.000 C 
ATOM     20  O   UNL     1      -0.639  11.682  21.856  0.00  0.00    +0.000 OA
ENDBRANCH   1  20
BRANCH   6  21
ATOM     21  O   UNL     1      -0.310  11.153  19.076  0.00  0.00    +0.000 OA
BRANCH  21  22
ATOM     22  C   UNL     1      -1.556  10.999  18.515  0.00  0.00    +0.000 A 
ATOM     23  C   UNL     1      -2.538  11.853  19.038  0.00  0.00    +0.000 A 
ATOM     24  C   UNL     1      -3.844  11.820  18.549  0.00  0.00    +0.000 A 
ATOM     25  C   UNL     1      -4.166  10.931  17.533  0.00  0.00    +0.000 A 
ATOM     26  F   UNL     1      -5.423  10.886  17.068  0.00  0.00    +0.000 F 
ATOM     27  C   UNL     1      -3.202  10.089  16.989  0.00  0.00    +0.000 A 
ATOM     28  C   UNL     1      -1.886  10.135  17.465  0.00  0.00    +0.000 A 
ENDBRANCH  21  22
ENDBRANCH   6  21
TORSDOF 4
ENDMDL
MODEL 7
REMARK VINA RESULT:      -8.5      1.937      2.676
REMARK  Name = 
REMARK  5 active torsions:
REMARK  status: ('A' for Active; 'I' for Inactive)
REMARK    1  A    between atoms: C_1  and  O_2
REMARK    2  A    between atoms: O_2  and  C_3
REMARK    3  A    between atoms: C_6  and  C_7
REMARK    4  A    between atoms: C_19  and  O_20
REMARK    5  A    between atoms: O_20  and  C_21
REMARK                            x       y       z     vdW  Elec       q    Type
REMARK                         _______ _______ _______ _____ _____    ______ ____
ROOT
ATOM      1  C   UNL     1       3.356   3.453  19.929  0.00  0.00    +0.000 A 
ATOM      2  C   UNL     1       2.197   3.706  20.674  0.00  0.00    +0.000 A 
ATOM      3  C   UNL     1       1.633   4.981  20.705  0.00  0.00    +0.000 A 
ATOM      4  C   UNL     1       2.243   6.030  20.012  0.00  0.00    +0.000 A 
ATOM      5  C   UNL     1       3.403   5.794  19.269  0.00  0.00    +0.000 A 
ATOM      6  C   UNL     1       3.982   4.515  19.251  0.00  0.00    +0.000 A 
ENDROOT
BRANCH   4   7
ATOM      7  C   UNL     1       1.749   7.416  20.175  0.00  0.00    +0.000 A 
ATOM      8  N   UNL     1       1.670   8.248  19.184  0.00  0.00    +0.000 NA
ATOM      9  C   UNL     1       1.273   9.575  19.476  0.00  0.00    +0.000 A 
ATOM     10  C   UNL     1       1.065  10.477  18.432  0.00  0.00    +0.000 A 
ATOM     11  C   UNL     1       0.743  11.814  18.702  0.00  0.00    +0.000 A 
ATOM     12  C   UNL     1       0.648  12.269  20.019  0.00  0.00    +0.000 A 
ATOM     13  C   UNL     1       0.834  11.376  21.070  0.00  0.00    +0.000 A 
ATOM     14  C   UNL     1       1.120  10.036  20.787  0.00  0.00    +0.000 A 
ATOM     15  C   UNL     1       1.252   9.056  21.868  0.00  0.00    +0.000 A 
ATOM     16  O   UNL     1       1.207   9.371  23.052  0.00  0.00    +0.000 OA
ATOM     17  N   UNL     1       1.453   7.767  21.472  0.00  0.00    +0.000 N 
ATOM     18  H   UNL     1       1.582   7.113  22.231  0.00  0.00    +0.000 HD
ENDBRANCH   4   7
BRANCH   1  20
ATOM     19  C   UNL     1       3.581   1.440  18.710  0.00  0.00    +0.000 C 
ATOM     20  O   UNL     1       3.925   2.210  19.854  0.00  0.00    +0.000 OA
ENDBRANCH   1  20
BRANCH   6  21
ATOM     21  O   UNL     1       5.074   4.387  18.420  0.00  0.00    +0.000 OA
BRANCH  21  22
ATOM     22  C   UNL     1       6.000   5.393  18.267  0.00  0.00    +0.000 A 
ATOM     23  C   UNL     1       5.710   6.296  17.235  0.00  0.00    +0.000 A 
ATOM     24  C   UNL     1       6.554   7.378  16.979  0.00  0.00    +0.000 A 
ATOM     25  C   UNL     1       7.688   7.554  17.759  0.00  0.00    +0.000 A 
ATOM     26  F   UNL     1       8.509   8.584  17.509  0.00  0.00    +0.000 F 
ATOM     27  C   UNL     1       7.982   6.678  18.799  0.00  0.00    +0.000 A 
ATOM     28  C   UNL     1       7.127   5.604  19.070  0.00  0.00    +0.000 A 
ENDBRANCH  21  22
ENDBRANCH   6  21
TORSDOF 4
ENDMDL
MODEL 8
REMARK VINA RESULT:      -8.5      3.224      7.802
REMARK  Name = 
REMARK  5 active torsions:
REMARK  status: ('A' for Active; 'I' for Inactive)
REMARK    1  A    between atoms: C_1  and  O_2
REMARK    2  A    between atoms: O_2  and  C_3
REMARK    3  A    between atoms: C_6  and  C_7
REMARK    4  A    between atoms: C_19  and  O_20
REMARK    5  A    between atoms: O_20  and  C_21
REMARK                            x       y       z     vdW  Elec       q    Type
REMARK                         _______ _______ _______ _____ _____    ______ ____
ROOT
ATOM      1  C   UNL     1       1.940   3.759  19.433  0.00  0.00    +0.000 A 
ATOM      2  C   UNL     1       2.197   2.772  18.473  0.00  0.00    +0.000 A 
ATOM      3  C   UNL     1       3.161   2.972  17.485  0.00  0.00    +0.000 A 
ATOM      4  C   UNL     1       3.858   4.181  17.426  0.00  0.00    +0.000 A 
ATOM      5  C   UNL     1       3.607   5.177  18.373  0.00  0.00    +0.000 A 
ATOM      6  C   UNL     1       2.626   4.985  19.359  0.00  0.00    +0.000 A 
ENDROOT
BRANCH   4   7
ATOM      7  C   UNL     1       4.757   4.467  16.285  0.00  0.00    +0.000 A 
ATOM      8  N   UNL     1       4.709   3.799  15.175  0.00  0.00    +0.000 NA
ATOM      9  C   UNL     1       5.680   4.097  14.190  0.00  0.00    +0.000 A 
ATOM     10  C   UNL     1       5.602   3.487  12.938  0.00  0.00    +0.000 A 
ATOM     11  C   UNL     1       6.594   3.712  11.974  0.00  0.00    +0.000 A 
ATOM     12  C   UNL     1       7.687   4.533  12.261  0.00  0.00    +0.000 A 
ATOM     13  C   UNL     1       7.768   5.165  13.498  0.00  0.00    +0.000 A 
ATOM     14  C   UNL     1       6.753   4.959  14.438  0.00  0.00    +0.000 A 
ATOM     15  C   UNL     1       6.772   5.663  15.723  0.00  0.00    +0.000 A 
ATOM     16  O   UNL     1       7.702   6.383  16.066  0.00  0.00    +0.000 OA
ATOM     17  N   UNL     1       5.692   5.446  16.529  0.00  0.00    +0.000 N 
ATOM     18  H   UNL     1       5.743   5.907  17.425  0.00  0.00    +0.000 HD
ENDBRANCH   4   7
BRANCH   1  20
ATOM     19  C   UNL     1       1.477   2.885  21.581  0.00  0.00    +0.000 C 
ATOM     20  O   UNL     1       1.020   3.590  20.433  0.00  0.00    +0.000 OA
ENDBRANCH   1  20
BRANCH   6  21
ATOM     21  O   UNL     1       2.528   6.002  20.283  0.00  0.00    +0.000 OA
BRANCH  21  22
ATOM     22  C   UNL     1       1.989   7.229  19.967  0.00  0.00    +0.000 A 
ATOM     23  C   UNL     1       1.244   7.817  20.999  0.00  0.00    +0.000 A 
ATOM     24  C   UNL     1       0.655   9.071  20.826  0.00  0.00    +0.000 A 
ATOM     25  C   UNL     1       0.815   9.734  19.617  0.00  0.00    +0.000 A 
ATOM     26  F   UNL     1       0.241  10.933  19.441  0.00  0.00    +0.000 F 
ATOM     27  C   UNL     1       1.566   9.174  18.589  0.00  0.00    +0.000 A 
ATOM     28  C   UNL     1       2.173   7.926  18.768  0.00  0.00    +0.000 A 
ENDBRANCH  21  22
ENDBRANCH   6  21
TORSDOF 4
ENDMDL
MODEL 9
REMARK VINA RESULT:      -8.3      1.021      1.111
REMARK  Name = 
REMARK  5 active torsions:
REMARK  status: ('A' for Active; 'I' for Inactive)
REMARK    1  A    between atoms: C_1  and  O_2
REMARK    2  A    between atoms: O_2  and  C_3
REMARK    3  A    between atoms: C_6  and  C_7
REMARK    4  A    between atoms: C_19  and  O_20
REMARK    5  A    between atoms: O_20  and  C_21
REMARK                            x       y       z     vdW  Elec       q    Type
REMARK                         _______ _______ _______ _____ _____    ______ ____
ROOT
ATOM      1  C   UNL     1       3.717   4.104  19.686  0.00  0.00    +0.000 A 
ATOM      2  C   UNL     1       2.457   4.100  20.298  0.00  0.00    +0.000 A 
ATOM      3  C   UNL     1       1.741   5.285  20.466  0.00  0.00    +0.000 A 
ATOM      4  C   UNL     1       2.296   6.499  20.052  0.00  0.00    +0.000 A 
ATOM      5  C   UNL     1       3.554   6.519  19.445  0.00  0.00    +0.000 A 
ATOM      6  C   UNL     1       4.284   5.329  19.290  0.00  0.00    +0.000 A 
ENDROOT
BRANCH   4   7
ATOM      7  C   UNL     1       1.621   7.775  20.377  0.00  0.00    +0.000 A 
ATOM      8  N   UNL     1       1.014   7.975  21.505  0.00  0.00    +0.000 NA
ATOM      9  C   UNL     1       0.322   9.199  21.668  0.00  0.00    +0.000 A 
ATOM     10  C   UNL     1      -0.251   9.508  22.901  0.00  0.00    +0.000 A 
ATOM     11  C   UNL     1      -1.002  10.681  23.062  0.00  0.00    +0.000 A 
ATOM     12  C   UNL     1      -1.205  11.545  21.984  0.00  0.00    +0.000 A 
ATOM     13  C   UNL     1      -0.623  11.261  20.753  0.00  0.00    +0.000 A 
ATOM     14  C   UNL     1       0.153  10.104  20.615  0.00  0.00    +0.000 A 
ATOM     15  C   UNL     1       0.838   9.811  19.353  0.00  0.00    +0.000 A 
ATOM     16  O   UNL     1       0.696  10.502  18.351  0.00  0.00    +0.000 OA
ATOM     17  N   UNL     1       1.629   8.700  19.358  0.00  0.00    +0.000 N 
ATOM     18  H   UNL     1       2.059   8.491  18.469  0.00  0.00    +0.000 HD
ENDBRANCH   4   7
BRANCH   1  20
ATOM     19  C   UNL     1       4.412   2.013  20.542  0.00  0.00    +0.000 C 
ATOM     20  O   UNL     1       4.438   2.958  19.480  0.00  0.00    +0.000 OA
ENDBRANCH   1  20
BRANCH   6  21
ATOM     21  O   UNL     1       5.472   5.465  18.606  0.00  0.00    +0.000 OA
BRANCH  21  22
ATOM     22  C   UNL     1       5.560   5.279  17.245  0.00  0.00    +0.000 A 
ATOM     23  C   UNL     1       6.079   4.034  16.862  0.00  0.00    +0.000 A 
ATOM     24  C   UNL     1       6.206   3.701  15.513  0.00  0.00    +0.000 A 
ATOM     25  C   UNL     1       5.812   4.616  14.548  0.00  0.00    +0.000 A 
ATOM     26  F   UNL     1       5.945   4.306  13.250  0.00  0.00    +0.000 F 
ATOM     27  C   UNL     1       5.278   5.849  14.908  0.00  0.00    +0.000 A 
ATOM     28  C   UNL     1       5.131   6.177  16.261  0.00  0.00    +0.000 A 
ENDBRANCH  21  22
ENDBRANCH   6  21
TORSDOF 4
ENDMDL
