MODEL 1
REMARK VINA RESULT:      -8.0      0.000      0.000
REMARK  Name = 
REMARK  6 active torsions:
REMARK  status: ('A' for Active; 'I' for Inactive)
REMARK    1  A    between atoms: C_1  and  S_2
REMARK    2  A    between atoms: S_2  and  C_5
REMARK    3  A    between atoms: C_8  and  C_9
REMARK    4  A    between atoms: C_9  and  N_10
REMARK    5  A    between atoms: C_11  and  C_13
REMARK    6  A    between atoms: N_21  and  C_22
REMARK                            x       y       z     vdW  Elec       q    Type
REMARK                         _______ _______ _______ _____ _____    ______ ____
ROOT
ATOM      1  C   UNL     1       0.071  10.080  21.560  0.00  0.00    +0.000 A 
ATOM      2  C   UNL     1      -0.457  10.655  22.708  0.00  0.00    +0.000 A 
ATOM      3  N   UNL     1      -0.625  11.984  22.900  0.00  0.00    +0.000 NA
ATOM      4  C   UNL     1      -0.247  12.847  21.928  0.00  0.00    +0.000 A 
ATOM      5  C   UNL     1       0.321  12.349  20.760  0.00  0.00    +0.000 A 
ATOM      6  C   UNL     1       0.472  10.975  20.556  0.00  0.00    +0.000 A 
ATOM      7  C   UNL     1       0.996  10.869  19.253  0.00  0.00    +0.000 A 
ATOM      8  N   UNL     1       1.083  12.048  18.637  0.00  0.00    +0.000 NA
ATOM      9  N   UNL     1       0.758  12.956  19.592  0.00  0.00    +0.000 N 
ENDROOT
BRANCH   9  10
ATOM     10  C   UNL     1       0.882  14.342  19.302  0.00  0.00    +0.000 A 
ATOM     11  C   UNL     1      -0.271  15.066  18.952  0.00  0.00    +0.000 A 
ATOM     12  C   UNL     1      -0.174  16.423  18.643  0.00  0.00    +0.000 A 
ATOM     13  C   UNL     1       1.073  17.038  18.643  0.00  0.00    +0.000 A 
ATOM     14  F   UNL     1       1.170  18.331  18.311  0.00  0.00    +0.000 F 
ATOM     15  C   UNL     1       2.223  16.326  18.966  0.00  0.00    +0.000 A 
ATOM     16  C   UNL     1       2.132  14.976  19.311  0.00  0.00    +0.000 A 
ENDBRANCH   9  10
BRANCH   1  18
ATOM     17  N   UNL     1       1.459   8.162  21.035  0.00  0.00    +0.000 N 
ATOM     18  C   UNL     1       0.208   8.621  21.390  0.00  0.00    +0.000 C 
ATOM     19  O   UNL     1      -0.759   7.892  21.579  0.00  0.00    +0.000 OA
ATOM     20  H   UNL     1       2.259   8.772  21.118  0.00  0.00    +0.000 HD
BRANCH  17  21
ATOM     21  C   UNL     1       1.722   6.754  20.828  0.00  0.00    +0.000 C 
BRANCH  21  25
ATOM     22  C   UNL     1       4.467   6.130  17.570  0.00  0.00    +0.000 A 
ATOM     23  C   UNL     1       3.574   7.197  17.529  0.00  0.00    +0.000 A 
ATOM     24  C   UNL     1       2.684   7.384  18.589  0.00  0.00    +0.000 A 
ATOM     25  C   UNL     1       2.678   6.509  19.687  0.00  0.00    +0.000 A 
ATOM     26  C   UNL     1       3.562   5.418  19.693  0.00  0.00    +0.000 A 
ATOM     27  C   UNL     1       4.454   5.223  18.633  0.00  0.00    +0.000 A 
BRANCH  22  29
ATOM     28  C   UNL     1       5.390   4.214  15.787  0.00  0.00    +0.000 C 
ATOM     29  S   UNL     1       5.640   5.908  16.251  0.00  0.00    +0.000 S 
ATOM     30  O   UNL     1       6.970   6.031  16.816  0.00  0.00    +0.000 OA
ATOM     31  O   UNL     1       5.217   6.746  15.145  0.00  0.00    +0.000 OA
ENDBRANCH  22  29
ENDBRANCH  21  25
ENDBRANCH  17  21
ENDBRANCH   1  18
TORSDOF 5
ENDMDL
MODEL 2
REMARK VINA RESULT:      -8.0      5.205      9.550
REMARK  Name = 
REMARK  6 active torsions:
REMARK  status: ('A' for Active; 'I' for Inactive)
REMARK    1  A    between atoms: C_1  and  S_2
REMARK    2  A    between atoms: S_2  and  C_5
REMARK    3  A    between atoms: C_8  and  C_9
REMARK    4  A    between atoms: C_9  and  N_10
REMARK    5  A    between atoms: C_11  and  C_13
REMARK    6  A    between atoms: N_21  and  C_22
REMARK                            x       y       z     vdW  Elec       q    Type
REMARK                         _______ _______ _______ _____ _____    ______ ____
ROOT
ATOM      1  C   UNL     1       2.765   4.550  19.098  0.00  0.00    +0.000 A 
ATOM      2  C   UNL     1       2.711   3.163  19.139  0.00  0.00    +0.000 A 
ATOM      3  N   UNL     1       3.325   2.339  18.256  0.00  0.00    +0.000 NA
ATOM      4  C   UNL     1       4.039   2.874  17.238  0.00  0.00    +0.000 A 
ATOM      5  C   UNL     1       4.113   4.257  17.112  0.00  0.00    +0.000 A 
ATOM      6  C   UNL     1       3.498   5.104  18.038  0.00  0.00    +0.000 A 
ATOM      7  C   UNL     1       3.862   6.400  17.623  0.00  0.00    +0.000 A 
ATOM      8  N   UNL     1       4.708   6.392  16.594  0.00  0.00    +0.000 NA
ATOM      9  N   UNL     1       4.786   5.088  16.226  0.00  0.00    +0.000 N 
ENDROOT
BRANCH   9  10
ATOM     10  C   UNL     1       5.513   4.738  15.057  0.00  0.00    +0.000 A 
ATOM     11  C   UNL     1       6.813   5.246  14.891  0.00  0.00    +0.000 A 
ATOM     12  C   UNL     1       7.541   4.935  13.742  0.00  0.00    +0.000 A 
ATOM     13  C   UNL     1       6.954   4.158  12.749  0.00  0.00    +0.000 A 
ATOM     14  F   UNL     1       7.640   3.890  11.631  0.00  0.00    +0.000 F 
ATOM     15  C   UNL     1       5.660   3.669  12.892  0.00  0.00    +0.000 A 
ATOM     16  C   UNL     1       4.937   3.946  14.055  0.00  0.00    +0.000 A 
ENDBRANCH   9  10
BRANCH   1  18
ATOM     17  N   UNL     1       2.470   6.730  20.117  0.00  0.00    +0.000 N 
ATOM     18  C   UNL     1       2.099   5.402  20.101  0.00  0.00    +0.000 C 
ATOM     19  O   UNL     1       1.259   4.919  20.851  0.00  0.00    +0.000 OA
ATOM     20  H   UNL     1       2.985   7.117  19.340  0.00  0.00    +0.000 HD
BRANCH  17  21
ATOM     21  C   UNL     1       1.899   7.669  21.060  0.00  0.00    +0.000 C 
BRANCH  21  25
ATOM     22  C   UNL     1      -0.452  10.674  19.066  0.00  0.00    +0.000 A 
ATOM     23  C   UNL     1       0.513   9.965  18.356  0.00  0.00    +0.000 A 
ATOM     24  C   UNL     1       1.273   8.998  19.017  0.00  0.00    +0.000 A 
ATOM     25  C   UNL     1       1.079   8.738  20.382  0.00  0.00    +0.000 A 
ATOM     26  C   UNL     1       0.126   9.489  21.089  0.00  0.00    +0.000 A 
ATOM     27  C   UNL     1      -0.639  10.461  20.435  0.00  0.00    +0.000 A 
BRANCH  22  29
ATOM     28  C   UNL     1      -2.720  12.234  19.427  0.00  0.00    +0.000 C 
ATOM     29  S   UNL     1      -1.463  11.874  18.227  0.00  0.00    +0.000 S 
ATOM     30  O   UNL     1      -2.093  11.211  17.099  0.00  0.00    +0.000 OA
ATOM     31  O   UNL     1      -0.662  13.067  18.040  0.00  0.00    +0.000 OA
ENDBRANCH  22  29
ENDBRANCH  21  25
ENDBRANCH  17  21
ENDBRANCH   1  18
TORSDOF 5
ENDMDL
MODEL 3
REMARK VINA RESULT:      -8.0      5.415     10.043
REMARK  Name = 
REMARK  6 active torsions:
REMARK  status: ('A' for Active; 'I' for Inactive)
REMARK    1  A    between atoms: C_1  and  S_2
REMARK    2  A    between atoms: S_2  and  C_5
REMARK    3  A    between atoms: C_8  and  C_9
REMARK    4  A    between atoms: C_9  and  N_10
REMARK    5  A    between atoms: C_11  and  C_13
REMARK    6  A    between atoms: N_21  and  C_22
REMARK                            x       y       z     vdW  Elec       q    Type
REMARK                         _______ _______ _______ _____ _____    ______ ____
ROOT
ATOM      1  C   UNL     1       0.075  10.574  20.605  0.00  0.00    +0.000 A 
ATOM      2  C   UNL     1      -0.064  11.249  19.400  0.00  0.00    +0.000 A 
ATOM      3  N   UNL     1       0.421  10.817  18.211  0.00  0.00    +0.000 NA
ATOM      4  C   UNL     1       1.111   9.654  18.161  0.00  0.00    +0.000 A 
ATOM      5  C   UNL     1       1.319   8.935  19.334  0.00  0.00    +0.000 A 
ATOM      6  C   UNL     1       0.797   9.372  20.554  0.00  0.00    +0.000 A 
ATOM      7  C   UNL     1       1.145   8.357  21.467  0.00  0.00    +0.000 A 
ATOM      8  N   UNL     1       1.743   7.321  20.881  0.00  0.00    +0.000 NA
ATOM      9  N   UNL     1       1.930   7.717  19.596  0.00  0.00    +0.000 N 
ENDROOT
BRANCH   9  10
ATOM     10  C   UNL     1       2.675   6.887  18.715  0.00  0.00    +0.000 A 
ATOM     11  C   UNL     1       2.385   5.512  18.674  0.00  0.00    +0.000 A 
ATOM     12  C   UNL     1       3.114   4.671  17.834  0.00  0.00    +0.000 A 
ATOM     13  C   UNL     1       4.152   5.197  17.072  0.00  0.00    +0.000 A 
ATOM     14  F   UNL     1       4.875   4.384  16.293  0.00  0.00    +0.000 F 
ATOM     15  C   UNL     1       4.462   6.552  17.121  0.00  0.00    +0.000 A 
ATOM     16  C   UNL     1       3.715   7.408  17.934  0.00  0.00    +0.000 A 
ENDBRANCH   9  10
BRANCH   1  18
ATOM     17  N   UNL     1      -0.775  12.425  21.920  0.00  0.00    +0.000 N 
ATOM     18  C   UNL     1      -0.497  11.075  21.869  0.00  0.00    +0.000 C 
ATOM     19  O   UNL     1      -0.711  10.299  22.793  0.00  0.00    +0.000 OA
ATOM     20  H   UNL     1      -0.795  12.966  21.067  0.00  0.00    +0.000 HD
BRANCH  17  21
ATOM     21  C   UNL     1      -1.329  13.044  23.105  0.00  0.00    +0.000 C 
BRANCH  21  25
ATOM     22  C   UNL     1      -5.615  12.731  23.356  0.00  0.00    +0.000 A 
ATOM     23  C   UNL     1      -4.834  12.470  24.479  0.00  0.00    +0.000 A 
ATOM     24  C   UNL     1      -3.444  12.568  24.382  0.00  0.00    +0.000 A 
ATOM     25  C   UNL     1      -2.830  12.921  23.170  0.00  0.00    +0.000 A 
ATOM     26  C   UNL     1      -3.634  13.146  22.040  0.00  0.00    +0.000 A 
ATOM     27  C   UNL     1      -5.026  13.047  22.129  0.00  0.00    +0.000 A 
BRANCH  22  29
ATOM     28  C   UNL     1      -7.916  13.519  22.018  0.00  0.00    +0.000 C 
ATOM     29  S   UNL     1      -7.389  12.659  23.478  0.00  0.00    +0.000 S 
ATOM     30  O   UNL     1      -7.786  13.444  24.632  0.00  0.00    +0.000 OA
ATOM     31  O   UNL     1      -7.780  11.269  23.349  0.00  0.00    +0.000 OA
ENDBRANCH  22  29
ENDBRANCH  21  25
ENDBRANCH  17  21
ENDBRANCH   1  18
TORSDOF 5
ENDMDL
MODEL 4
REMARK VINA RESULT:      -8.0      5.320     10.027
REMARK  Name = 
REMARK  6 active torsions:
REMARK  status: ('A' for Active; 'I' for Inactive)
REMARK    1  A    between atoms: C_1  and  S_2
REMARK    2  A    between atoms: S_2  and  C_5
REMARK    3  A    between atoms: C_8  and  C_9
REMARK    4  A    between atoms: C_9  and  N_10
REMARK    5  A    between atoms: C_11  and  C_13
REMARK    6  A    between atoms: N_21  and  C_22
REMARK                            x       y       z     vdW  Elec       q    Type
REMARK                         _______ _______ _______ _____ _____    ______ ____
ROOT
ATOM      1  C   UNL     1       1.265  10.037  19.711  0.00  0.00    +0.000 A 
ATOM      2  C   UNL     1       1.593  10.463  18.431  0.00  0.00    +0.000 A 
ATOM      3  N   UNL     1       2.096   9.668  17.457  0.00  0.00    +0.000 NA
ATOM      4  C   UNL     1       2.323   8.360  17.721  0.00  0.00    +0.000 A 
ATOM      5  C   UNL     1       2.049   7.865  18.992  0.00  0.00    +0.000 A 
ATOM      6  C   UNL     1       1.508   8.683  19.987  0.00  0.00    +0.000 A 
ATOM      7  C   UNL     1       1.302   7.817  21.079  0.00  0.00    +0.000 A 
ATOM      8  N   UNL     1       1.587   6.548  20.789  0.00  0.00    +0.000 NA
ATOM      9  N   UNL     1       2.129   6.595  19.546  0.00  0.00    +0.000 N 
ENDROOT
BRANCH   9  10
ATOM     10  C   UNL     1       2.673   5.411  18.980  0.00  0.00    +0.000 A 
ATOM     11  C   UNL     1       1.845   4.598  18.186  0.00  0.00    +0.000 A 
ATOM     12  C   UNL     1       2.348   3.419  17.636  0.00  0.00    +0.000 A 
ATOM     13  C   UNL     1       3.656   3.037  17.913  0.00  0.00    +0.000 A 
ATOM     14  F   UNL     1       4.126   1.887  17.414  0.00  0.00    +0.000 F 
ATOM     15  C   UNL     1       4.477   3.822  18.716  0.00  0.00    +0.000 A 
ATOM     16  C   UNL     1       3.993   5.022  19.243  0.00  0.00    +0.000 A 
ENDBRANCH   9  10
BRANCH   1  18
ATOM     17  N   UNL     1      -0.237  11.854  20.280  0.00  0.00    +0.000 N 
ATOM     18  C   UNL     1       0.694  10.940  20.728  0.00  0.00    +0.000 C 
ATOM     19  O   UNL     1       1.043  10.840  21.899  0.00  0.00    +0.000 OA
ATOM     20  H   UNL     1      -0.652  11.741  19.366  0.00  0.00    +0.000 HD
BRANCH  17  21
ATOM     21  C   UNL     1      -0.865  12.803  21.175  0.00  0.00    +0.000 C 
BRANCH  21  25
ATOM     22  C   UNL     1      -5.156  12.499  21.028  0.00  0.00    +0.000 A 
ATOM     23  C   UNL     1      -4.418  12.456  19.849  0.00  0.00    +0.000 A 
ATOM     24  C   UNL     1      -3.027  12.563  19.910  0.00  0.00    +0.000 A 
ATOM     25  C   UNL     1      -2.370  12.716  21.141  0.00  0.00    +0.000 A 
ATOM     26  C   UNL     1      -3.135  12.794  22.316  0.00  0.00    +0.000 A 
ATOM     27  C   UNL     1      -4.529  12.690  22.263  0.00  0.00    +0.000 A 
BRANCH  22  29
ATOM     28  C   UNL     1      -7.162  11.273  19.552  0.00  0.00    +0.000 C 
ATOM     29  S   UNL     1      -6.925  12.314  20.970  0.00  0.00    +0.000 S 
ATOM     30  O   UNL     1      -7.497  13.614  20.677  0.00  0.00    +0.000 OA
ATOM     31  O   UNL     1      -7.326  11.569  22.148  0.00  0.00    +0.000 OA
ENDBRANCH  22  29
ENDBRANCH  21  25
ENDBRANCH  17  21
ENDBRANCH   1  18
TORSDOF 5
ENDMDL
MODEL 5
REMARK VINA RESULT:      -7.9      0.689      1.484
REMARK  Name = 
REMARK  6 active torsions:
REMARK  status: ('A' for Active; 'I' for Inactive)
REMARK    1  A    between atoms: C_1  and  S_2
REMARK    2  A    between atoms: S_2  and  C_5
REMARK    3  A    between atoms: C_8  and  C_9
REMARK    4  A    between atoms: C_9  and  N_10
REMARK    5  A    between atoms: C_11  and  C_13
REMARK    6  A    between atoms: N_21  and  C_22
REMARK                            x       y       z     vdW  Elec       q    Type
REMARK                         _______ _______ _______ _____ _____    ______ ____
ROOT
ATOM      1  C   UNL     1       0.048   9.990  21.511  0.00  0.00    +0.000 A 
ATOM      2  C   UNL     1      -0.471  10.582  22.654  0.00  0.00    +0.000 A 
ATOM      3  N   UNL     1      -0.632  11.916  22.829  0.00  0.00    +0.000 NA
ATOM      4  C   UNL     1      -0.255  12.763  21.843  0.00  0.00    +0.000 A 
ATOM      5  C   UNL     1       0.304  12.246  20.678  0.00  0.00    +0.000 A 
ATOM      6  C   UNL     1       0.447  10.869  20.492  0.00  0.00    +0.000 A 
ATOM      7  C   UNL     1       0.963  10.743  19.188  0.00  0.00    +0.000 A 
ATOM      8  N   UNL     1       1.052  11.912  18.555  0.00  0.00    +0.000 NA
ATOM      9  N   UNL     1       0.736  12.836  19.499  0.00  0.00    +0.000 N 
ENDROOT
BRANCH   9  10
ATOM     10  C   UNL     1       0.864  14.216  19.189  0.00  0.00    +0.000 A 
ATOM     11  C   UNL     1       2.148  14.789  19.170  0.00  0.00    +0.000 A 
ATOM     12  C   UNL     1       2.300  16.147  18.889  0.00  0.00    +0.000 A 
ATOM     13  C   UNL     1       1.173  16.932  18.671  0.00  0.00    +0.000 A 
ATOM     14  F   UNL     1       1.318  18.242  18.437  0.00  0.00    +0.000 F 
ATOM     15  C   UNL     1      -0.103  16.380  18.709  0.00  0.00    +0.000 A 
ATOM     16  C   UNL     1      -0.263  15.015  18.955  0.00  0.00    +0.000 A 
ENDBRANCH   9  10
BRANCH   1  18
ATOM     17  N   UNL     1       1.423   8.059  20.998  0.00  0.00    +0.000 N 
ATOM     18  C   UNL     1       0.178   8.528  21.361  0.00  0.00    +0.000 C 
ATOM     19  O   UNL     1      -0.790   7.805  21.570  0.00  0.00    +0.000 OA
ATOM     20  H   UNL     1       2.227   8.667  21.064  0.00  0.00    +0.000 HD
BRANCH  17  21
ATOM     21  C   UNL     1       1.679   6.647  20.809  0.00  0.00    +0.000 C 
BRANCH  21  25
ATOM     22  C   UNL     1       4.391   5.822  17.569  0.00  0.00    +0.000 A 
ATOM     23  C   UNL     1       4.318   4.949  18.651  0.00  0.00    +0.000 A 
ATOM     24  C   UNL     1       3.439   5.233  19.699  0.00  0.00    +0.000 A 
ATOM     25  C   UNL     1       2.637   6.384  19.674  0.00  0.00    +0.000 A 
ATOM     26  C   UNL     1       2.752   7.271  18.591  0.00  0.00    +0.000 A 
ATOM     27  C   UNL     1       3.632   6.995  17.539  0.00  0.00    +0.000 A 
BRANCH  22  29
ATOM     28  C   UNL     1       7.074   5.451  16.961  0.00  0.00    +0.000 C 
ATOM     29  S   UNL     1       5.469   5.448  16.204  0.00  0.00    +0.000 S 
ATOM     30  O   UNL     1       5.408   6.560  15.273  0.00  0.00    +0.000 OA
ATOM     31  O   UNL     1       5.176   4.095  15.773  0.00  0.00    +0.000 OA
ENDBRANCH  22  29
ENDBRANCH  21  25
ENDBRANCH  17  21
ENDBRANCH   1  18
TORSDOF 5
ENDMDL
MODEL 6
REMARK VINA RESULT:      -7.9      3.664      4.796
REMARK  Name = 
REMARK  6 active torsions:
REMARK  status: ('A' for Active; 'I' for Inactive)
REMARK    1  A    between atoms: C_1  and  S_2
REMARK    2  A    between atoms: S_2  and  C_5
REMARK    3  A    between atoms: C_8  and  C_9
REMARK    4  A    between atoms: C_9  and  N_10
REMARK    5  A    between atoms: C_11  and  C_13
REMARK    6  A    between atoms: N_21  and  C_22
REMARK                            x       y       z     vdW  Elec       q    Type
REMARK                         _______ _______ _______ _____ _____    ______ ____
ROOT
ATOM      1  C   UNL     1       0.137  10.783  18.616  0.00  0.00    +0.000 A 
ATOM      2  C   UNL     1      -0.971  10.652  17.790  0.00  0.00    +0.000 A 
ATOM      3  N   UNL     1      -2.207  11.129  18.071  0.00  0.00    +0.000 NA
ATOM      4  C   UNL     1      -2.416  11.774  19.243  0.00  0.00    +0.000 A 
ATOM      5  C   UNL     1      -1.361  11.917  20.139  0.00  0.00    +0.000 A 
ATOM      6  C   UNL     1      -0.082  11.443  19.834  0.00  0.00    +0.000 A 
ATOM      7  C   UNL     1       0.709  11.841  20.929  0.00  0.00    +0.000 A 
ATOM      8  N   UNL     1       0.035  12.583  21.807  0.00  0.00    +0.000 NA
ATOM      9  N   UNL     1      -1.249  12.550  21.369  0.00  0.00    +0.000 N 
ENDROOT
BRANCH   9  10
ATOM     10  C   UNL     1      -2.269  13.140  22.162  0.00  0.00    +0.000 A 
ATOM     11  C   UNL     1      -2.850  12.380  23.192  0.00  0.00    +0.000 A 
ATOM     12  C   UNL     1      -3.868  12.928  23.972  0.00  0.00    +0.000 A 
ATOM     13  C   UNL     1      -4.328  14.210  23.696  0.00  0.00    +0.000 A 
ATOM     14  F   UNL     1      -5.330  14.722  24.422  0.00  0.00    +0.000 F 
ATOM     15  C   UNL     1      -3.776  14.963  22.665  0.00  0.00    +0.000 A 
ATOM     16  C   UNL     1      -2.732  14.436  21.901  0.00  0.00    +0.000 A 
ENDBRANCH   9  10
BRANCH   1  18
ATOM     17  N   UNL     1       1.587   8.897  18.145  0.00  0.00    +0.000 N 
ATOM     18  C   UNL     1       1.469  10.268  18.248  0.00  0.00    +0.000 C 
ATOM     19  O   UNL     1       2.390  11.049  18.041  0.00  0.00    +0.000 OA
ATOM     20  H   UNL     1       0.756   8.324  18.100  0.00  0.00    +0.000 HD
BRANCH  17  21
ATOM     21  C   UNL     1       2.842   8.264  17.801  0.00  0.00    +0.000 C 
BRANCH  21  25
ATOM     22  C   UNL     1       3.196   4.242  19.294  0.00  0.00    +0.000 A 
ATOM     23  C   UNL     1       3.573   4.530  17.985  0.00  0.00    +0.000 A 
ATOM     24  C   UNL     1       3.446   5.839  17.511  0.00  0.00    +0.000 A 
ATOM     25  C   UNL     1       2.942   6.857  18.335  0.00  0.00    +0.000 A 
ATOM     26  C   UNL     1       2.534   6.538  19.641  0.00  0.00    +0.000 A 
ATOM     27  C   UNL     1       2.656   5.230  20.122  0.00  0.00    +0.000 A 
BRANCH  22  29
ATOM     28  C   UNL     1       2.479   2.639  21.444  0.00  0.00    +0.000 C 
ATOM     29  S   UNL     1       3.399   2.591  19.927  0.00  0.00    +0.000 S 
ATOM     30  O   UNL     1       4.802   2.412  20.255  0.00  0.00    +0.000 OA
ATOM     31  O   UNL     1       2.723   1.687  19.018  0.00  0.00    +0.000 OA
ENDBRANCH  22  29
ENDBRANCH  21  25
ENDBRANCH  17  21
ENDBRANCH   1  18
TORSDOF 5
ENDMDL
MODEL 7
REMARK VINA RESULT:      -7.9      3.836      4.878
REMARK  Name = 
REMARK  6 active torsions:
REMARK  status: ('A' for Active; 'I' for Inactive)
REMARK    1  A    between atoms: C_1  and  S_2
REMARK    2  A    between atoms: S_2  and  C_5
REMARK    3  A    between atoms: C_8  and  C_9
REMARK    4  A    between atoms: C_9  and  N_10
REMARK    5  A    between atoms: C_11  and  C_13
REMARK    6  A    between atoms: N_21  and  C_22
REMARK                            x       y       z     vdW  Elec       q    Type
REMARK                         _______ _______ _______ _____ _____    ______ ____
ROOT
ATOM      1  C   UNL     1      -0.092  11.103  20.769  0.00  0.00    +0.000 A 
ATOM      2  C   UNL     1       0.250  10.659  22.039  0.00  0.00    +0.000 A 
ATOM      3  N   UNL     1      -0.499  10.845  23.151  0.00  0.00    +0.000 NA
ATOM      4  C   UNL     1      -1.667  11.523  23.057  0.00  0.00    +0.000 A 
ATOM      5  C   UNL     1      -2.063  12.027  21.822  0.00  0.00    +0.000 A 
ATOM      6  C   UNL     1      -1.298  11.813  20.673  0.00  0.00    +0.000 A 
ATOM      7  C   UNL     1      -2.054  12.393  19.635  0.00  0.00    +0.000 A 
ATOM      8  N   UNL     1      -3.234  12.849  20.052  0.00  0.00    +0.000 NA
ATOM      9  N   UNL     1      -3.197  12.708  21.402  0.00  0.00    +0.000 N 
ENDROOT
BRANCH   9  10
ATOM     10  C   UNL     1      -4.263  13.228  22.184  0.00  0.00    +0.000 A 
ATOM     11  C   UNL     1      -5.566  12.755  21.953  0.00  0.00    +0.000 A 
ATOM     12  C   UNL     1      -6.634  13.264  22.693  0.00  0.00    +0.000 A 
ATOM     13  C   UNL     1      -6.403  14.269  23.626  0.00  0.00    +0.000 A 
ATOM     14  F   UNL     1      -7.432  14.782  24.310  0.00  0.00    +0.000 F 
ATOM     15  C   UNL     1      -5.121  14.761  23.847  0.00  0.00    +0.000 A 
ATOM     16  C   UNL     1      -4.041  14.232  23.136  0.00  0.00    +0.000 A 
ENDBRANCH   9  10
BRANCH   1  18
ATOM     17  N   UNL     1       1.018   9.527  19.297  0.00  0.00    +0.000 N 
ATOM     18  C   UNL     1       0.749  10.849  19.584  0.00  0.00    +0.000 C 
ATOM     19  O   UNL     1       1.154  11.789  18.910  0.00  0.00    +0.000 OA
ATOM     20  H   UNL     1       0.478   8.797  19.741  0.00  0.00    +0.000 HD
BRANCH  17  21
ATOM     21  C   UNL     1       1.839   9.144  18.169  0.00  0.00    +0.000 C 
BRANCH  21  25
ATOM     22  C   UNL     1       3.765   5.348  18.810  0.00  0.00    +0.000 A 
ATOM     23  C   UNL     1       2.859   5.832  19.749  0.00  0.00    +0.000 A 
ATOM     24  C   UNL     1       2.247   7.069  19.532  0.00  0.00    +0.000 A 
ATOM     25  C   UNL     1       2.537   7.825  18.386  0.00  0.00    +0.000 A 
ATOM     26  C   UNL     1       3.481   7.335  17.468  0.00  0.00    +0.000 A 
ATOM     27  C   UNL     1       4.100   6.099  17.680  0.00  0.00    +0.000 A 
BRANCH  22  29
ATOM     28  C   UNL     1       4.107   2.900  17.545  0.00  0.00    +0.000 C 
ATOM     29  S   UNL     1       4.515   3.752  19.048  0.00  0.00    +0.000 S 
ATOM     30  O   UNL     1       3.823   3.096  20.141  0.00  0.00    +0.000 OA
ATOM     31  O   UNL     1       5.952   3.944  19.081  0.00  0.00    +0.000 OA
ENDBRANCH  22  29
ENDBRANCH  21  25
ENDBRANCH  17  21
ENDBRANCH   1  18
TORSDOF 5
ENDMDL
MODEL 8
REMARK VINA RESULT:      -7.8      5.417      9.810
REMARK  Name = 
REMARK  6 active torsions:
REMARK  status: ('A' for Active; 'I' for Inactive)
REMARK    1  A    between atoms: C_1  and  S_2
REMARK    2  A    between atoms: S_2  and  C_5
REMARK    3  A    between atoms: C_8  and  C_9
REMARK    4  A    between atoms: C_9  and  N_10
REMARK    5  A    between atoms: C_11  and  C_13
REMARK    6  A    between atoms: N_21  and  C_22
REMARK                            x       y       z     vdW  Elec       q    Type
REMARK                         _______ _______ _______ _____ _____    ______ ____
ROOT
ATOM      1  C   UNL     1       0.609   9.671  20.263  0.00  0.00    +0.000 A 
ATOM      2  C   UNL     1       0.520   8.845  21.376  0.00  0.00    +0.000 A 
ATOM      3  N   UNL     1       1.113   7.633  21.488  0.00  0.00    +0.000 NA
ATOM      4  C   UNL     1       1.841   7.153  20.452  0.00  0.00    +0.000 A 
ATOM      5  C   UNL     1       1.949   7.909  19.289  0.00  0.00    +0.000 A 
ATOM      6  C   UNL     1       1.355   9.169  19.186  0.00  0.00    +0.000 A 
ATOM      7  C   UNL     1       1.751   9.641  17.919  0.00  0.00    +0.000 A 
ATOM      8  N   UNL     1       2.596   8.814  17.304  0.00  0.00    +0.000 NA
ATOM      9  N   UNL     1       2.642   7.717  18.103  0.00  0.00    +0.000 N 
ENDROOT
BRANCH   9  10
ATOM     10  C   UNL     1       3.360   6.571  17.667  0.00  0.00    +0.000 A 
ATOM     11  C   UNL     1       4.592   6.751  17.014  0.00  0.00    +0.000 A 
ATOM     12  C   UNL     1       5.307   5.644  16.558  0.00  0.00    +0.000 A 
ATOM     13  C   UNL     1       4.772   4.371  16.717  0.00  0.00    +0.000 A 
ATOM     14  F   UNL     1       5.442   3.311  16.246  0.00  0.00    +0.000 F 
ATOM     15  C   UNL     1       3.544   4.181  17.341  0.00  0.00    +0.000 A 
ATOM     16  C   UNL     1       2.837   5.282  17.832  0.00  0.00    +0.000 A 
ENDBRANCH   9  10
BRANCH   1  18
ATOM     17  N   UNL     1      -0.953  11.184  19.190  0.00  0.00    +0.000 N 
ATOM     18  C   UNL     1      -0.036  10.996  20.202  0.00  0.00    +0.000 C 
ATOM     19  O   UNL     1       0.247  11.851  21.034  0.00  0.00    +0.000 OA
ATOM     20  H   UNL     1      -1.312  10.387  18.684  0.00  0.00    +0.000 HD
BRANCH  17  21
ATOM     21  C   UNL     1      -1.647  12.442  19.014  0.00  0.00    +0.000 C 
BRANCH  21  25
ATOM     22  C   UNL     1      -5.542  12.378  20.847  0.00  0.00    +0.000 A 
ATOM     23  C   UNL     1      -5.388  11.944  19.533  0.00  0.00    +0.000 A 
ATOM     24  C   UNL     1      -4.119  11.977  18.948  0.00  0.00    +0.000 A 
ATOM     25  C   UNL     1      -3.007  12.444  19.666  0.00  0.00    +0.000 A 
ATOM     26  C   UNL     1      -3.191  12.911  20.978  0.00  0.00    +0.000 A 
ATOM     27  C   UNL     1      -4.458  12.884  21.569  0.00  0.00    +0.000 A 
BRANCH  22  29
ATOM     28  C   UNL     1      -7.844  10.828  20.911  0.00  0.00    +0.000 C 
ATOM     29  S   UNL     1      -7.142  12.295  21.621  0.00  0.00    +0.000 S 
ATOM     30  O   UNL     1      -7.916  13.434  21.162  0.00  0.00    +0.000 OA
ATOM     31  O   UNL     1      -6.932  12.056  23.036  0.00  0.00    +0.000 OA
ENDBRANCH  22  29
ENDBRANCH  21  25
ENDBRANCH  17  21
ENDBRANCH   1  18
TORSDOF 5
ENDMDL
MODEL 9
REMARK VINA RESULT:      -7.8      5.426     10.069
REMARK  Name = 
REMARK  6 active torsions:
REMARK  status: ('A' for Active; 'I' for Inactive)
REMARK    1  A    between atoms: C_1  and  S_2
REMARK    2  A    between atoms: S_2  and  C_5
REMARK    3  A    between atoms: C_8  and  C_9
REMARK    4  A    between atoms: C_9  and  N_10
REMARK    5  A    between atoms: C_11  and  C_13
REMARK    6  A    between atoms: N_21  and  C_22
REMARK                            x       y       z     vdW  Elec       q    Type
REMARK                         _______ _______ _______ _____ _____    ______ ____
ROOT
ATOM      1  C   UNL     1       1.077  10.193  19.753  0.00  0.00    +0.000 A 
ATOM      2  C   UNL     1       1.437  10.643  18.491  0.00  0.00    +0.000 A 
ATOM      3  N   UNL     1       2.009   9.878  17.531  0.00  0.00    +0.000 NA
ATOM      4  C   UNL     1       2.277   8.577  17.793  0.00  0.00    +0.000 A 
ATOM      5  C   UNL     1       1.973   8.060  19.048  0.00  0.00    +0.000 A 
ATOM      6  C   UNL     1       1.362   8.847  20.028  0.00  0.00    +0.000 A 
ATOM      7  C   UNL     1       1.148   7.964  21.104  0.00  0.00    +0.000 A 
ATOM      8  N   UNL     1       1.493   6.709  20.816  0.00  0.00    +0.000 NA
ATOM      9  N   UNL     1       2.081   6.789  19.595  0.00  0.00    +0.000 N 
ENDROOT
BRANCH   9  10
ATOM     10  C   UNL     1       2.693   5.632  19.042  0.00  0.00    +0.000 A 
ATOM     11  C   UNL     1       1.981   4.879  18.091  0.00  0.00    +0.000 A 
ATOM     12  C   UNL     1       2.550   3.727  17.548  0.00  0.00    +0.000 A 
ATOM     13  C   UNL     1       3.803   3.311  17.984  0.00  0.00    +0.000 A 
ATOM     14  F   UNL     1       4.333   2.186  17.488  0.00  0.00    +0.000 F 
ATOM     15  C   UNL     1       4.507   4.036  18.939  0.00  0.00    +0.000 A 
ATOM     16  C   UNL     1       3.960   5.210  19.464  0.00  0.00    +0.000 A 
ENDBRANCH   9  10
BRANCH   1  18
ATOM     17  N   UNL     1      -0.548  11.913  20.284  0.00  0.00    +0.000 N 
ATOM     18  C   UNL     1       0.431  11.063  20.754  0.00  0.00    +0.000 C 
ATOM     19  O   UNL     1       0.766  10.993  21.931  0.00  0.00    +0.000 OA
ATOM     20  H   UNL     1      -0.939  11.768  19.364  0.00  0.00    +0.000 HD
BRANCH  17  21
ATOM     21  C   UNL     1      -1.250  12.825  21.162  0.00  0.00    +0.000 C 
BRANCH  21  25
ATOM     22  C   UNL     1      -5.535  12.548  20.841  0.00  0.00    +0.000 A 
ATOM     23  C   UNL     1      -4.947  12.804  22.077  0.00  0.00    +0.000 A 
ATOM     24  C   UNL     1      -3.556  12.884  22.168  0.00  0.00    +0.000 A 
ATOM     25  C   UNL     1      -2.748  12.706  21.034  0.00  0.00    +0.000 A 
ATOM     26  C   UNL     1      -3.358  12.413  19.803  0.00  0.00    +0.000 A 
ATOM     27  C   UNL     1      -4.751  12.329  19.705  0.00  0.00    +0.000 A 
BRANCH  22  29
ATOM     28  C   UNL     1      -7.638  10.752  20.613  0.00  0.00    +0.000 C 
ATOM     29  S   UNL     1      -7.307  12.493  20.700  0.00  0.00    +0.000 S 
ATOM     30  O   UNL     1      -7.669  13.086  19.426  0.00  0.00    +0.000 OA
ATOM     31  O   UNL     1      -7.861  12.996  21.943  0.00  0.00    +0.000 OA
ENDBRANCH  22  29
ENDBRANCH  21  25
ENDBRANCH  17  21
ENDBRANCH   1  18
TORSDOF 5
ENDMDL
