MODEL 1
REMARK VINA RESULT:      -7.0      0.000      0.000
REMARK  Name = 
REMARK  2 active torsions:
REMARK  status: ('A' for Active; 'I' for Inactive)
REMARK    1  A    between atoms: N_7  and  C_8
REMARK    2  A    between atoms: C_8  and  C_9
REMARK                            x       y       z     vdW  Elec       q    Type
REMARK                         _______ _______ _______ _____ _____    ______ ____
ROOT
ATOM      1  O   UNL     1       1.956   3.219  22.172  0.00  0.00    +0.000 OA
ATOM      2  C   UNL     1       2.740   2.860  21.311  0.00  0.00    +0.000 C 
ATOM      3  O   UNL     1       3.837   2.065  21.543  0.00  0.00    +0.000 OA
ATOM      4  C   UNL     1       4.443   1.764  20.269  0.00  0.00    +0.000 C 
ATOM      5  C   UNL     1       3.976   2.899  19.396  0.00  0.00    +0.000 C 
ATOM      6  C   UNL     1       3.859   2.645  17.887  0.00  0.00    +0.000 C 
ATOM      7  N   UNL     1       3.143   3.747  17.176  0.00  0.00    +0.000 NA
ATOM      8  C   UNL     1       1.806   3.932  17.813  0.00  0.00    +0.000 C 
ATOM      9  C   UNL     1       1.818   4.139  19.346  0.00  0.00    +0.000 C 
ATOM     10  N   UNL     1       2.704   3.185  19.983  0.00  0.00    +0.000 N 
ENDROOT
BRANCH   7  11
ATOM     11  C   UNL     1       3.964   4.972  17.182  0.00  0.00    +0.000 C 
BRANCH  11  12
ATOM     12  C   UNL     1       5.159   4.959  16.267  0.00  0.00    +0.000 A 
ATOM     13  C   UNL     1       5.119   4.276  15.043  0.00  0.00    +0.000 A 
ATOM     14  C   UNL     1       6.212   4.329  14.186  0.00  0.00    +0.000 A 
ATOM     15  C   UNL     1       7.315   5.065  14.578  0.00  0.00    +0.000 A 
ATOM     16  N   UNL     1       7.396   5.729  15.751  0.00  0.00    +0.000 NA
ATOM     17  C   UNL     1       6.319   5.661  16.569  0.00  0.00    +0.000 A 
ENDBRANCH  11  12
ENDBRANCH   7  11
TORSDOF 2
ENDMDL
MODEL 2
REMARK VINA RESULT:      -6.9      2.969      5.615
REMARK  Name = 
REMARK  2 active torsions:
REMARK  status: ('A' for Active; 'I' for Inactive)
REMARK    1  A    between atoms: N_7  and  C_8
REMARK    2  A    between atoms: C_8  and  C_9
REMARK                            x       y       z     vdW  Elec       q    Type
REMARK                         _______ _______ _______ _____ _____    ______ ____
ROOT
ATOM      1  O   UNL     1       8.331   5.262  19.977  0.00  0.00    +0.000 OA
ATOM      2  C   UNL     1       7.753   5.843  19.075  0.00  0.00    +0.000 C 
ATOM      3  O   UNL     1       8.157   7.043  18.541  0.00  0.00    +0.000 OA
ATOM      4  C   UNL     1       7.293   7.344  17.426  0.00  0.00    +0.000 C 
ATOM      5  C   UNL     1       6.048   6.556  17.740  0.00  0.00    +0.000 C 
ATOM      6  C   UNL     1       5.172   6.099  16.567  0.00  0.00    +0.000 C 
ATOM      7  N   UNL     1       4.128   5.114  16.984  0.00  0.00    +0.000 NA
ATOM      8  C   UNL     1       4.802   3.964  17.655  0.00  0.00    +0.000 C 
ATOM      9  C   UNL     1       5.754   4.332  18.817  0.00  0.00    +0.000 C 
ATOM     10  N   UNL     1       6.605   5.445  18.447  0.00  0.00    +0.000 N 
ENDROOT
BRANCH   7  11
ATOM     11  C   UNL     1       3.119   5.774  17.835  0.00  0.00    +0.000 C 
BRANCH  11  12
ATOM     12  C   UNL     1       2.287   4.856  18.689  0.00  0.00    +0.000 A 
ATOM     13  C   UNL     1       1.508   3.845  18.108  0.00  0.00    +0.000 A 
ATOM     14  C   UNL     1       0.796   2.969  18.919  0.00  0.00    +0.000 A 
ATOM     15  C   UNL     1       0.885   3.129  20.290  0.00  0.00    +0.000 A 
ATOM     16  N   UNL     1       1.617   4.093  20.887  0.00  0.00    +0.000 NA
ATOM     17  C   UNL     1       2.300   4.935  20.076  0.00  0.00    +0.000 A 
ENDBRANCH  11  12
ENDBRANCH   7  11
TORSDOF 2
ENDMDL
MODEL 3
REMARK VINA RESULT:      -6.9      1.322      1.643
REMARK  Name = 
REMARK  2 active torsions:
REMARK  status: ('A' for Active; 'I' for Inactive)
REMARK    1  A    between atoms: N_7  and  C_8
REMARK    2  A    between atoms: C_8  and  C_9
REMARK                            x       y       z     vdW  Elec       q    Type
REMARK                         _______ _______ _______ _____ _____    ______ ____
ROOT
ATOM      1  O   UNL     1       2.063   3.413  22.101  0.00  0.00    +0.000 OA
ATOM      2  C   UNL     1       1.998   3.179  20.907  0.00  0.00    +0.000 C 
ATOM      3  O   UNL     1       1.309   2.122  20.361  0.00  0.00    +0.000 OA
ATOM      4  C   UNL     1       1.368   2.250  18.926  0.00  0.00    +0.000 C 
ATOM      5  C   UNL     1       2.602   3.088  18.712  0.00  0.00    +0.000 C 
ATOM      6  C   UNL     1       2.670   3.957  17.449  0.00  0.00    +0.000 C 
ATOM      7  N   UNL     1       3.807   4.927  17.485  0.00  0.00    +0.000 NA
ATOM      8  C   UNL     1       3.687   5.753  18.722  0.00  0.00    +0.000 C 
ATOM      9  C   UNL     1       3.554   4.962  20.045  0.00  0.00    +0.000 C 
ATOM     10  N   UNL     1       2.597   3.882  19.900  0.00  0.00    +0.000 N 
ENDROOT
BRANCH   7  11
ATOM     11  C   UNL     1       5.091   4.208  17.389  0.00  0.00    +0.000 C 
BRANCH  11  12
ATOM     12  C   UNL     1       5.857   4.411  16.110  0.00  0.00    +0.000 A 
ATOM     13  C   UNL     1       5.398   3.862  14.904  0.00  0.00    +0.000 A 
ATOM     14  C   UNL     1       6.087   4.113  13.723  0.00  0.00    +0.000 A 
ATOM     15  C   UNL     1       7.217   4.910  13.783  0.00  0.00    +0.000 A 
ATOM     16  N   UNL     1       7.695   5.450  14.924  0.00  0.00    +0.000 NA
ATOM     17  C   UNL     1       7.007   5.189  16.060  0.00  0.00    +0.000 A 
ENDBRANCH  11  12
ENDBRANCH   7  11
TORSDOF 2
ENDMDL
MODEL 4
REMARK VINA RESULT:      -6.9      3.044      5.721
REMARK  Name = 
REMARK  2 active torsions:
REMARK  status: ('A' for Active; 'I' for Inactive)
REMARK    1  A    between atoms: N_7  and  C_8
REMARK    2  A    between atoms: C_8  and  C_9
REMARK                            x       y       z     vdW  Elec       q    Type
REMARK                         _______ _______ _______ _____ _____    ______ ____
ROOT
ATOM      1  O   UNL     1       8.420   5.247  19.894  0.00  0.00    +0.000 OA
ATOM      2  C   UNL     1       7.839   5.880  19.030  0.00  0.00    +0.000 C 
ATOM      3  O   UNL     1       8.223   7.123  18.587  0.00  0.00    +0.000 OA
ATOM      4  C   UNL     1       7.364   7.486  17.487  0.00  0.00    +0.000 C 
ATOM      5  C   UNL     1       6.133   6.652  17.730  0.00  0.00    +0.000 C 
ATOM      6  C   UNL     1       5.278   6.263  16.517  0.00  0.00    +0.000 C 
ATOM      7  N   UNL     1       4.250   5.230  16.851  0.00  0.00    +0.000 NA
ATOM      8  C   UNL     1       4.941   4.048  17.446  0.00  0.00    +0.000 C 
ATOM      9  C   UNL     1       5.874   4.351  18.642  0.00  0.00    +0.000 C 
ATOM     10  N   UNL     1       6.706   5.505  18.362  0.00  0.00    +0.000 N 
ENDROOT
BRANCH   7  11
ATOM     11  C   UNL     1       3.220   5.806  17.736  0.00  0.00    +0.000 C 
BRANCH  11  12
ATOM     12  C   UNL     1       2.360   4.812  18.467  0.00  0.00    +0.000 A 
ATOM     13  C   UNL     1       2.226   4.867  19.862  0.00  0.00    +0.000 A 
ATOM     14  C   UNL     1       1.378   3.977  20.511  0.00  0.00    +0.000 A 
ATOM     15  C   UNL     1       0.686   3.057  19.744  0.00  0.00    +0.000 A 
ATOM     16  N   UNL     1       0.793   2.967  18.402  0.00  0.00    +0.000 NA
ATOM     17  C   UNL     1       1.627   3.843  17.793  0.00  0.00    +0.000 A 
ENDBRANCH  11  12
ENDBRANCH   7  11
TORSDOF 2
ENDMDL
MODEL 5
REMARK VINA RESULT:      -6.9      3.122      5.950
REMARK  Name = 
REMARK  2 active torsions:
REMARK  status: ('A' for Active; 'I' for Inactive)
REMARK    1  A    between atoms: N_7  and  C_8
REMARK    2  A    between atoms: C_8  and  C_9
REMARK                            x       y       z     vdW  Elec       q    Type
REMARK                         _______ _______ _______ _____ _____    ______ ____
ROOT
ATOM      1  O   UNL     1       7.621   5.636  14.695  0.00  0.00    +0.000 OA
ATOM      2  C   UNL     1       7.281   5.306  15.817  0.00  0.00    +0.000 C 
ATOM      3  O   UNL     1       7.973   4.420  16.609  0.00  0.00    +0.000 OA
ATOM      4  C   UNL     1       7.326   4.381  17.898  0.00  0.00    +0.000 C 
ATOM      5  C   UNL     1       5.923   4.834  17.586  0.00  0.00    +0.000 C 
ATOM      6  C   UNL     1       5.125   5.520  18.703  0.00  0.00    +0.000 C 
ATOM      7  N   UNL     1       3.867   6.151  18.200  0.00  0.00    +0.000 NA
ATOM      8  C   UNL     1       4.218   7.101  17.104  0.00  0.00    +0.000 C 
ATOM      9  C   UNL     1       5.074   6.513  15.958  0.00  0.00    +0.000 C 
ATOM     10  N   UNL     1       6.163   5.718  16.489  0.00  0.00    +0.000 N 
ENDROOT
BRANCH   7  11
ATOM     11  C   UNL     1       2.909   5.110  17.782  0.00  0.00    +0.000 C 
BRANCH  11  12
ATOM     12  C   UNL     1       2.313   4.290  18.893  0.00  0.00    +0.000 A 
ATOM     13  C   UNL     1       2.196   2.898  18.776  0.00  0.00    +0.000 A 
ATOM     14  C   UNL     1       1.699   2.153  19.840  0.00  0.00    +0.000 A 
ATOM     15  C   UNL     1       1.333   2.825  20.993  0.00  0.00    +0.000 A 
ATOM     16  N   UNL     1       1.423   4.164  21.142  0.00  0.00    +0.000 NA
ATOM     17  C   UNL     1       1.908   4.866  20.091  0.00  0.00    +0.000 A 
ENDBRANCH  11  12
ENDBRANCH   7  11
TORSDOF 2
ENDMDL
MODEL 6
REMARK VINA RESULT:      -6.8      3.049      5.992
REMARK  Name = 
REMARK  2 active torsions:
REMARK  status: ('A' for Active; 'I' for Inactive)
REMARK    1  A    between atoms: N_7  and  C_8
REMARK    2  A    between atoms: C_8  and  C_9
REMARK                            x       y       z     vdW  Elec       q    Type
REMARK                         _______ _______ _______ _____ _____    ______ ____
ROOT
ATOM      1  O   UNL     1       7.493   5.441  14.651  0.00  0.00    +0.000 OA
ATOM      2  C   UNL     1       7.260   5.210  15.825  0.00  0.00    +0.000 C 
ATOM      3  O   UNL     1       8.062   4.448  16.641  0.00  0.00    +0.000 OA
ATOM      4  C   UNL     1       7.518   4.506  17.975  0.00  0.00    +0.000 C 
ATOM      5  C   UNL     1       6.070   4.848  17.735  0.00  0.00    +0.000 C 
ATOM      6  C   UNL     1       5.317   5.600  18.840  0.00  0.00    +0.000 C 
ATOM      7  N   UNL     1       3.988   6.108  18.381  0.00  0.00    +0.000 NA
ATOM      8  C   UNL     1       4.197   6.958  17.173  0.00  0.00    +0.000 C 
ATOM      9  C   UNL     1       4.999   6.304  16.024  0.00  0.00    +0.000 C 
ATOM     10  N   UNL     1       6.172   5.627  16.541  0.00  0.00    +0.000 N 
ENDROOT
BRANCH   7  11
ATOM     11  C   UNL     1       3.068   4.979  18.145  0.00  0.00    +0.000 C 
BRANCH  11  12
ATOM     12  C   UNL     1       2.706   4.170  19.361  0.00  0.00    +0.000 A 
ATOM     13  C   UNL     1       1.456   4.322  19.979  0.00  0.00    +0.000 A 
ATOM     14  C   UNL     1       1.119   3.520  21.063  0.00  0.00    +0.000 A 
ATOM     15  C   UNL     1       2.043   2.587  21.498  0.00  0.00    +0.000 A 
ATOM     16  N   UNL     1       3.258   2.416  20.936  0.00  0.00    +0.000 NA
ATOM     17  C   UNL     1       3.563   3.210  19.883  0.00  0.00    +0.000 A 
ENDBRANCH  11  12
ENDBRANCH   7  11
TORSDOF 2
ENDMDL
MODEL 7
REMARK VINA RESULT:      -6.7      1.133      2.012
REMARK  Name = 
REMARK  2 active torsions:
REMARK  status: ('A' for Active; 'I' for Inactive)
REMARK    1  A    between atoms: N_7  and  C_8
REMARK    2  A    between atoms: C_8  and  C_9
REMARK                            x       y       z     vdW  Elec       q    Type
REMARK                         _______ _______ _______ _____ _____    ______ ____
ROOT
ATOM      1  O   UNL     1       2.985   2.219  21.946  0.00  0.00    +0.000 OA
ATOM      2  C   UNL     1       2.510   2.875  21.035  0.00  0.00    +0.000 C 
ATOM      3  O   UNL     1       1.164   2.985  20.779  0.00  0.00    +0.000 OA
ATOM      4  C   UNL     1       0.994   3.933  19.706  0.00  0.00    +0.000 C 
ATOM      5  C   UNL     1       2.327   3.890  19.003  0.00  0.00    +0.000 C 
ATOM      6  C   UNL     1       2.779   5.143  18.243  0.00  0.00    +0.000 C 
ATOM      7  N   UNL     1       4.211   5.068  17.820  0.00  0.00    +0.000 NA
ATOM      8  C   UNL     1       5.050   4.818  19.029  0.00  0.00    +0.000 C 
ATOM      9  C   UNL     1       4.633   3.606  19.893  0.00  0.00    +0.000 C 
ATOM     10  N   UNL     1       3.198   3.592  20.096  0.00  0.00    +0.000 N 
ENDROOT
BRANCH   7  11
ATOM     11  C   UNL     1       4.378   4.041  16.774  0.00  0.00    +0.000 C 
BRANCH  11  12
ATOM     12  C   UNL     1       5.447   4.321  15.753  0.00  0.00    +0.000 A 
ATOM     13  C   UNL     1       5.392   3.740  14.478  0.00  0.00    +0.000 A 
ATOM     14  C   UNL     1       6.356   4.061  13.529  0.00  0.00    +0.000 A 
ATOM     15  C   UNL     1       7.350   4.956  13.885  0.00  0.00    +0.000 A 
ATOM     16  N   UNL     1       7.443   5.530  15.103  0.00  0.00    +0.000 NA
ATOM     17  C   UNL     1       6.492   5.200  16.010  0.00  0.00    +0.000 A 
ENDBRANCH  11  12
ENDBRANCH   7  11
TORSDOF 2
ENDMDL
MODEL 8
REMARK VINA RESULT:      -6.6      1.469      2.316
REMARK  Name = 
REMARK  2 active torsions:
REMARK  status: ('A' for Active; 'I' for Inactive)
REMARK    1  A    between atoms: N_7  and  C_8
REMARK    2  A    between atoms: C_8  and  C_9
REMARK                            x       y       z     vdW  Elec       q    Type
REMARK                         _______ _______ _______ _____ _____    ______ ____
ROOT
ATOM      1  O   UNL     1       1.793   1.585  20.067  0.00  0.00    +0.000 OA
ATOM      2  C   UNL     1       1.866   2.801  20.077  0.00  0.00    +0.000 C 
ATOM      3  O   UNL     1       0.869   3.635  20.526  0.00  0.00    +0.000 OA
ATOM      4  C   UNL     1       1.372   4.986  20.489  0.00  0.00    +0.000 C 
ATOM      5  C   UNL     1       2.467   4.911  19.457  0.00  0.00    +0.000 C 
ATOM      6  C   UNL     1       3.628   5.908  19.566  0.00  0.00    +0.000 C 
ATOM      7  N   UNL     1       4.764   5.564  18.658  0.00  0.00    +0.000 NA
ATOM      8  C   UNL     1       5.201   4.169  18.954  0.00  0.00    +0.000 C 
ATOM      9  C   UNL     1       4.086   3.097  18.924  0.00  0.00    +0.000 C 
ATOM     10  N   UNL     1       2.911   3.563  19.633  0.00  0.00    +0.000 N 
ENDROOT
BRANCH   7  11
ATOM     11  C   UNL     1       4.367   5.763  17.251  0.00  0.00    +0.000 C 
BRANCH  11  12
ATOM     12  C   UNL     1       5.386   5.352  16.223  0.00  0.00    +0.000 A 
ATOM     13  C   UNL     1       5.075   4.399  15.244  0.00  0.00    +0.000 A 
ATOM     14  C   UNL     1       6.011   4.081  14.266  0.00  0.00    +0.000 A 
ATOM     15  C   UNL     1       7.234   4.727  14.297  0.00  0.00    +0.000 A 
ATOM     16  N   UNL     1       7.574   5.644  15.228  0.00  0.00    +0.000 NA
ATOM     17  C   UNL     1       6.646   5.935  16.169  0.00  0.00    +0.000 A 
ENDBRANCH  11  12
ENDBRANCH   7  11
TORSDOF 2
ENDMDL
MODEL 9
REMARK VINA RESULT:      -6.6      1.692      2.067
REMARK  Name = 
REMARK  2 active torsions:
REMARK  status: ('A' for Active; 'I' for Inactive)
REMARK    1  A    between atoms: N_7  and  C_8
REMARK    2  A    between atoms: C_8  and  C_9
REMARK                            x       y       z     vdW  Elec       q    Type
REMARK                         _______ _______ _______ _____ _____    ______ ____
ROOT
ATOM      1  O   UNL     1       1.320   2.697  22.026  0.00  0.00    +0.000 OA
ATOM      2  C   UNL     1       1.521   2.825  20.831  0.00  0.00    +0.000 C 
ATOM      3  O   UNL     1       1.350   1.825  19.904  0.00  0.00    +0.000 OA
ATOM      4  C   UNL     1       1.570   2.392  18.596  0.00  0.00    +0.000 C 
ATOM      5  C   UNL     1       2.434   3.591  18.888  0.00  0.00    +0.000 C 
ATOM      6  C   UNL     1       2.369   4.777  17.918  0.00  0.00    +0.000 C 
ATOM      7  N   UNL     1       3.058   5.991  18.453  0.00  0.00    +0.000 NA
ATOM      8  C   UNL     1       2.466   6.326  19.780  0.00  0.00    +0.000 C 
ATOM      9  C   UNL     1       2.435   5.173  20.810  0.00  0.00    +0.000 C 
ATOM     10  N   UNL     1       1.967   3.948  20.191  0.00  0.00    +0.000 N 
ENDROOT
BRANCH   7  11
ATOM     11  C   UNL     1       4.515   5.764  18.506  0.00  0.00    +0.000 C 
BRANCH  11  12
ATOM     12  C   UNL     1       5.188   5.542  17.179  0.00  0.00    +0.000 A 
ATOM     13  C   UNL     1       5.957   4.392  16.948  0.00  0.00    +0.000 A 
ATOM     14  C   UNL     1       6.518   4.176  15.695  0.00  0.00    +0.000 A 
ATOM     15  C   UNL     1       6.294   5.119  14.707  0.00  0.00    +0.000 A 
ATOM     16  N   UNL     1       5.567   6.242  14.892  0.00  0.00    +0.000 NA
ATOM     17  C   UNL     1       5.032   6.429  16.122  0.00  0.00    +0.000 A 
ENDBRANCH  11  12
ENDBRANCH   7  11
TORSDOF 2
ENDMDL
