MODEL 1
REMARK VINA RESULT:      -7.4      0.000      0.000
REMARK  Name = 
REMARK  8 active torsions:
REMARK  status: ('A' for Active; 'I' for Inactive)
REMARK    1  A    between atoms: C_1  and  C_2
REMARK    2  A    between atoms: C_2  and  O_3
REMARK    3  A    between atoms: C_2  and  C_11
REMARK    4  A    between atoms: O_3  and  C_4
REMARK    5  A    between atoms: N_13  and  C_14
REMARK    6  A    between atoms: N_13  and  C_22
REMARK    7  A    between atoms: C_14  and  C_15
REMARK    8  A    between atoms: C_22  and  C_23
REMARK                            x       y       z     vdW  Elec       q    Type
REMARK                         _______ _______ _______ _____ _____    ______ ____
ROOT
ATOM      1  C   UNL     1       3.306   7.434  17.823  0.00  0.00    +0.000 C 
ATOM      2  O   UNL     1       4.368   8.003  17.539  0.00  0.00    +0.000 OA
ATOM      3  N   UNL     1       3.306   6.049  18.022  0.00  0.00    +0.000 N 
ENDROOT
BRANCH   1   5
ATOM      4  C   UNL     1       1.799   8.336  19.695  0.00  0.00    +0.000 C 
ATOM      5  C   UNL     1       2.000   8.262  18.176  0.00  0.00    +0.000 C 
BRANCH   5   6
ATOM      6  O   UNL     1       1.680   9.515  17.580  0.00  0.00    +0.000 OA
BRANCH   6   7
ATOM      7  C   UNL     1       0.537  10.152  17.964  0.00  0.00    +0.000 A 
ATOM      8  C   UNL     1      -0.739   9.648  17.723  0.00  0.00    +0.000 A 
ATOM      9  C   UNL     1      -1.864  10.261  18.274  0.00  0.00    +0.000 A 
ATOM     10  C   UNL     1      -1.725  11.427  19.022  0.00  0.00    +0.000 A 
ATOM     11  C   UNL     1      -0.469  12.014  19.156  0.00  0.00    +0.000 A 
ATOM     12  C   UNL     1       0.658  11.389  18.613  0.00  0.00    +0.000 A 
ATOM     13 CL   UNL     1       2.187  12.180  18.773  0.00  0.00    +0.000 Cl
ENDBRANCH   6   7
ENDBRANCH   5   6
ENDBRANCH   1   5
BRANCH   3  14
ATOM     14  C   UNL     1       2.082   5.251  18.063  0.00  0.00    +0.000 C 
BRANCH  14  15
ATOM     15  C   UNL     1       1.906   4.274  19.211  0.00  0.00    +0.000 A 
ATOM     16  C   UNL     1       1.735   4.784  20.522  0.00  0.00    +0.000 A 
ATOM     17  C   UNL     1       1.941   3.964  21.634  0.00  0.00    +0.000 A 
ATOM     18  C   UNL     1       2.293   2.628  21.468  0.00  0.00    +0.000 A 
ATOM     19  C   UNL     1       2.377   2.089  20.186  0.00  0.00    +0.000 A 
ATOM     20  C   UNL     1       2.176   2.902  19.063  0.00  0.00    +0.000 A 
ATOM     21 CL   UNL     1       2.323   2.158  17.511  0.00  0.00    +0.000 Cl
ENDBRANCH  14  15
ENDBRANCH   3  14
BRANCH   3  22
ATOM     22  C   UNL     1       4.559   5.452  18.545  0.00  0.00    +0.000 C 
BRANCH  22  23
ATOM     23  C   UNL     1       5.166   4.354  17.600  0.00  0.00    +0.000 C 
ATOM     24  C   UNL     1       5.291   4.802  16.147  0.00  0.00    +0.000 C 
ATOM     25  C   UNL     1       6.642   5.483  16.100  0.00  0.00    +0.000 C 
ATOM     26  C   UNL     1       7.484   4.657  17.050  0.00  0.00    +0.000 C 
ATOM     27  N   UNL     1       6.551   3.949  17.933  0.00  0.00    +0.000 NA
ATOM     28  H   UNL     1       6.763   4.219  18.904  0.00  0.00    +0.000 HD
ENDBRANCH  22  23
ENDBRANCH   3  22
TORSDOF 7
ENDMDL
MODEL 2
REMARK VINA RESULT:      -6.9      1.111      1.440
REMARK  Name = 
REMARK  8 active torsions:
REMARK  status: ('A' for Active; 'I' for Inactive)
REMARK    1  A    between atoms: C_1  and  C_2
REMARK    2  A    between atoms: C_2  and  O_3
REMARK    3  A    between atoms: C_2  and  C_11
REMARK    4  A    between atoms: O_3  and  C_4
REMARK    5  A    between atoms: N_13  and  C_14
REMARK    6  A    between atoms: N_13  and  C_22
REMARK    7  A    between atoms: C_14  and  C_15
REMARK    8  A    between atoms: C_22  and  C_23
REMARK                            x       y       z     vdW  Elec       q    Type
REMARK                         _______ _______ _______ _____ _____    ______ ____
ROOT
ATOM      1  C   UNL     1       3.053   7.635  17.917  0.00  0.00    +0.000 C 
ATOM      2  O   UNL     1       4.068   8.281  17.623  0.00  0.00    +0.000 OA
ATOM      3  N   UNL     1       3.144   6.246  18.051  0.00  0.00    +0.000 N 
ENDROOT
BRANCH   1   5
ATOM      4  C   UNL     1       1.551   8.327  19.881  0.00  0.00    +0.000 C 
ATOM      5  C   UNL     1       1.714   8.365  18.356  0.00  0.00    +0.000 C 
BRANCH   5   6
ATOM      6  O   UNL     1       1.312   9.635  17.854  0.00  0.00    +0.000 OA
BRANCH   6   7
ATOM      7  C   UNL     1       0.562  10.449  18.652  0.00  0.00    +0.000 A 
ATOM      8  C   UNL     1       1.078  11.125  19.755  0.00  0.00    +0.000 A 
ATOM      9  C   UNL     1       0.305  12.063  20.441  0.00  0.00    +0.000 A 
ATOM     10  C   UNL     1      -1.016  12.285  20.065  0.00  0.00    +0.000 A 
ATOM     11  C   UNL     1      -1.582  11.516  19.049  0.00  0.00    +0.000 A 
ATOM     12  C   UNL     1      -0.801  10.586  18.357  0.00  0.00    +0.000 A 
ATOM     13 CL   UNL     1      -1.562   9.630  17.134  0.00  0.00    +0.000 Cl
ENDBRANCH   6   7
ENDBRANCH   5   6
ENDBRANCH   1   5
BRANCH   3  14
ATOM     14  C   UNL     1       1.973   5.372  18.099  0.00  0.00    +0.000 C 
BRANCH  14  15
ATOM     15  C   UNL     1       1.897   4.338  19.207  0.00  0.00    +0.000 A 
ATOM     16  C   UNL     1       1.709   4.780  20.541  0.00  0.00    +0.000 A 
ATOM     17  C   UNL     1       2.002   3.936  21.615  0.00  0.00    +0.000 A 
ATOM     18  C   UNL     1       2.459   2.641  21.389  0.00  0.00    +0.000 A 
ATOM     19  C   UNL     1       2.563   2.163  20.084  0.00  0.00    +0.000 A 
ATOM     20  C   UNL     1       2.276   3.001  18.999  0.00  0.00    +0.000 A 
ATOM     21 CL   UNL     1       2.455   2.335  17.415  0.00  0.00    +0.000 Cl
ENDBRANCH  14  15
ENDBRANCH   3  14
BRANCH   3  22
ATOM     22  C   UNL     1       4.450   5.704  18.500  0.00  0.00    +0.000 C 
BRANCH  22  23
ATOM     23  C   UNL     1       5.135   4.772  17.437  0.00  0.00    +0.000 C 
ATOM     24  C   UNL     1       5.749   5.533  16.266  0.00  0.00    +0.000 C 
ATOM     25  C   UNL     1       7.141   5.872  16.754  0.00  0.00    +0.000 C 
ATOM     26  C   UNL     1       7.529   4.660  17.577  0.00  0.00    +0.000 C 
ATOM     27  N   UNL     1       6.281   3.987  17.950  0.00  0.00    +0.000 NA
ATOM     28  H   UNL     1       6.235   3.946  18.978  0.00  0.00    +0.000 HD
ENDBRANCH  22  23
ENDBRANCH   3  22
TORSDOF 7
ENDMDL
MODEL 3
REMARK VINA RESULT:      -6.9      2.402      4.595
REMARK  Name = 
REMARK  8 active torsions:
REMARK  status: ('A' for Active; 'I' for Inactive)
REMARK    1  A    between atoms: C_1  and  C_2
REMARK    2  A    between atoms: C_2  and  O_3
REMARK    3  A    between atoms: C_2  and  C_11
REMARK    4  A    between atoms: O_3  and  C_4
REMARK    5  A    between atoms: N_13  and  C_14
REMARK    6  A    between atoms: N_13  and  C_22
REMARK    7  A    between atoms: C_14  and  C_15
REMARK    8  A    between atoms: C_22  and  C_23
REMARK                            x       y       z     vdW  Elec       q    Type
REMARK                         _______ _______ _______ _____ _____    ______ ____
ROOT
ATOM      1  C   UNL     1       3.230   5.101  20.193  0.00  0.00    +0.000 C 
ATOM      2  O   UNL     1       3.140   4.217  21.055  0.00  0.00    +0.000 OA
ATOM      3  N   UNL     1       4.238   5.010  19.226  0.00  0.00    +0.000 N 
ENDROOT
BRANCH   1   5
ATOM      4  C   UNL     1       0.744   5.667  20.487  0.00  0.00    +0.000 C 
ATOM      5  C   UNL     1       2.105   6.207  20.030  0.00  0.00    +0.000 C 
BRANCH   5   6
ATOM      6  O   UNL     1       2.263   7.556  20.459  0.00  0.00    +0.000 OA
BRANCH   6   7
ATOM      7  C   UNL     1       1.526   8.529  19.849  0.00  0.00    +0.000 A 
ATOM      8  C   UNL     1       1.634   8.835  18.495  0.00  0.00    +0.000 A 
ATOM      9  C   UNL     1       0.748   9.729  17.893  0.00  0.00    +0.000 A 
ATOM     10  C   UNL     1      -0.216  10.375  18.661  0.00  0.00    +0.000 A 
ATOM     11  C   UNL     1      -0.246  10.179  20.040  0.00  0.00    +0.000 A 
ATOM     12  C   UNL     1       0.636   9.273  20.637  0.00  0.00    +0.000 A 
ATOM     13 CL   UNL     1       0.586   9.096  22.356  0.00  0.00    +0.000 Cl
ENDBRANCH   6   7
ENDBRANCH   5   6
ENDBRANCH   1   5
BRANCH   3  14
ATOM     14  C   UNL     1       4.615   6.128  18.363  0.00  0.00    +0.000 C 
BRANCH  14  15
ATOM     15  C   UNL     1       5.543   5.847  17.195  0.00  0.00    +0.000 A 
ATOM     16  C   UNL     1       4.989   5.734  15.895  0.00  0.00    +0.000 A 
ATOM     17  C   UNL     1       5.711   5.121  14.868  0.00  0.00    +0.000 A 
ATOM     18  C   UNL     1       6.994   4.634  15.103  0.00  0.00    +0.000 A 
ATOM     19  C   UNL     1       7.585   4.818  16.351  0.00  0.00    +0.000 A 
ATOM     20  C   UNL     1       6.871   5.428  17.390  0.00  0.00    +0.000 A 
ATOM     21 CL   UNL     1       7.671   5.594  18.911  0.00  0.00    +0.000 Cl
ENDBRANCH  14  15
ENDBRANCH   3  14
BRANCH   3  22
ATOM     22  C   UNL     1       4.679   3.645  18.850  0.00  0.00    +0.000 C 
BRANCH  22  23
ATOM     23  C   UNL     1       3.785   2.986  17.740  0.00  0.00    +0.000 C 
ATOM     24  C   UNL     1       3.335   1.570  18.081  0.00  0.00    +0.000 C 
ATOM     25  C   UNL     1       2.063   1.782  18.873  0.00  0.00    +0.000 C 
ATOM     26  C   UNL     1       1.429   2.984  18.203  0.00  0.00    +0.000 C 
ATOM     27  N   UNL     1       2.502   3.682  17.487  0.00  0.00    +0.000 NA
ATOM     28  H   UNL     1       2.556   4.643  17.851  0.00  0.00    +0.000 HD
ENDBRANCH  22  23
ENDBRANCH   3  22
TORSDOF 7
ENDMDL
MODEL 4
REMARK VINA RESULT:      -6.8      2.373      4.313
REMARK  Name = 
REMARK  8 active torsions:
REMARK  status: ('A' for Active; 'I' for Inactive)
REMARK    1  A    between atoms: C_1  and  C_2
REMARK    2  A    between atoms: C_2  and  O_3
REMARK    3  A    between atoms: C_2  and  C_11
REMARK    4  A    between atoms: O_3  and  C_4
REMARK    5  A    between atoms: N_13  and  C_14
REMARK    6  A    between atoms: N_13  and  C_22
REMARK    7  A    between atoms: C_14  and  C_15
REMARK    8  A    between atoms: C_22  and  C_23
REMARK                            x       y       z     vdW  Elec       q    Type
REMARK                         _______ _______ _______ _____ _____    ______ ____
ROOT
ATOM      1  C   UNL     1       2.435   6.991  19.710  0.00  0.00    +0.000 C 
ATOM      2  O   UNL     1       1.825   6.359  20.582  0.00  0.00    +0.000 OA
ATOM      3  N   UNL     1       3.517   6.387  19.061  0.00  0.00    +0.000 N 
ENDROOT
BRANCH   1   5
ATOM      4  C   UNL     1       1.961   8.422  17.632  0.00  0.00    +0.000 C 
ATOM      5  C   UNL     1       1.885   8.375  19.164  0.00  0.00    +0.000 C 
BRANCH   5   6
ATOM      6  O   UNL     1       0.670   8.968  19.610  0.00  0.00    +0.000 OA
BRANCH   6   7
ATOM      7  C   UNL     1       0.578  10.329  19.647  0.00  0.00    +0.000 A 
ATOM      8  C   UNL     1       1.242  11.116  20.585  0.00  0.00    +0.000 A 
ATOM      9  C   UNL     1       1.238  12.507  20.479  0.00  0.00    +0.000 A 
ATOM     10  C   UNL     1       0.511  13.125  19.466  0.00  0.00    +0.000 A 
ATOM     11  C   UNL     1      -0.266  12.354  18.605  0.00  0.00    +0.000 A 
ATOM     12  C   UNL     1      -0.248  10.959  18.706  0.00  0.00    +0.000 A 
ATOM     13 CL   UNL     1      -1.261  10.050  17.640  0.00  0.00    +0.000 Cl
ENDBRANCH   6   7
ENDBRANCH   5   6
ENDBRANCH   1   5
BRANCH   3  14
ATOM     14  C   UNL     1       4.475   7.134  18.248  0.00  0.00    +0.000 C 
BRANCH  14  15
ATOM     15  C   UNL     1       5.394   6.351  17.328  0.00  0.00    +0.000 A 
ATOM     16  C   UNL     1       5.036   6.210  15.963  0.00  0.00    +0.000 A 
ATOM     17  C   UNL     1       5.623   5.216  15.176  0.00  0.00    +0.000 A 
ATOM     18  C   UNL     1       6.585   4.367  15.715  0.00  0.00    +0.000 A 
ATOM     19  C   UNL     1       7.012   4.552  17.029  0.00  0.00    +0.000 A 
ATOM     20  C   UNL     1       6.429   5.543  17.829  0.00  0.00    +0.000 A 
ATOM     21 CL   UNL     1       7.000   5.687  19.453  0.00  0.00    +0.000 Cl
ENDBRANCH  14  15
ENDBRANCH   3  14
BRANCH   3  22
ATOM     22  C   UNL     1       3.474   4.911  18.926  0.00  0.00    +0.000 C 
BRANCH  22  23
ATOM     23  C   UNL     1       2.342   4.408  17.959  0.00  0.00    +0.000 C 
ATOM     24  C   UNL     1       2.787   3.278  17.037  0.00  0.00    +0.000 C 
ATOM     25  C   UNL     1       2.536   2.031  17.856  0.00  0.00    +0.000 C 
ATOM     26  C   UNL     1       1.273   2.364  18.624  0.00  0.00    +0.000 C 
ATOM     27  N   UNL     1       1.162   3.826  18.640  0.00  0.00    +0.000 NA
ATOM     28  H   UNL     1       1.146   4.135  19.621  0.00  0.00    +0.000 HD
ENDBRANCH  22  23
ENDBRANCH   3  22
TORSDOF 7
ENDMDL
MODEL 5
REMARK VINA RESULT:      -6.8      1.184      1.694
REMARK  Name = 
REMARK  8 active torsions:
REMARK  status: ('A' for Active; 'I' for Inactive)
REMARK    1  A    between atoms: C_1  and  C_2
REMARK    2  A    between atoms: C_2  and  O_3
REMARK    3  A    between atoms: C_2  and  C_11
REMARK    4  A    between atoms: O_3  and  C_4
REMARK    5  A    between atoms: N_13  and  C_14
REMARK    6  A    between atoms: N_13  and  C_22
REMARK    7  A    between atoms: C_14  and  C_15
REMARK    8  A    between atoms: C_22  and  C_23
REMARK                            x       y       z     vdW  Elec       q    Type
REMARK                         _______ _______ _______ _____ _____    ______ ____
ROOT
ATOM      1  C   UNL     1       2.918   7.612  17.936  0.00  0.00    +0.000 C 
ATOM      2  O   UNL     1       3.887   8.336  17.672  0.00  0.00    +0.000 OA
ATOM      3  N   UNL     1       3.103   6.227  18.018  0.00  0.00    +0.000 N 
ENDROOT
BRANCH   1   5
ATOM      4  C   UNL     1       1.526   8.492  19.905  0.00  0.00    +0.000 C 
ATOM      5  C   UNL     1       1.530   8.231  18.393  0.00  0.00    +0.000 C 
BRANCH   5   6
ATOM      6  O   UNL     1       0.886   9.302  17.710  0.00  0.00    +0.000 OA
BRANCH   6   7
ATOM      7  C   UNL     1       1.058  10.573  18.174  0.00  0.00    +0.000 A 
ATOM      8  C   UNL     1       2.270  11.256  18.106  0.00  0.00    +0.000 A 
ATOM      9  C   UNL     1       2.350  12.605  18.451  0.00  0.00    +0.000 A 
ATOM     10  C   UNL     1       1.224  13.267  18.932  0.00  0.00    +0.000 A 
ATOM     11  C   UNL     1       0.041  12.559  19.132  0.00  0.00    +0.000 A 
ATOM     12  C   UNL     1      -0.038  11.211  18.772  0.00  0.00    +0.000 A 
ATOM     13 CL   UNL     1      -1.516  10.368  19.079  0.00  0.00    +0.000 Cl
ENDBRANCH   6   7
ENDBRANCH   5   6
ENDBRANCH   1   5
BRANCH   3  14
ATOM     14  C   UNL     1       1.994   5.275  18.026  0.00  0.00    +0.000 C 
BRANCH  14  15
ATOM     15  C   UNL     1       1.912   4.284  19.173  0.00  0.00    +0.000 A 
ATOM     16  C   UNL     1       1.712   4.776  20.487  0.00  0.00    +0.000 A 
ATOM     17  C   UNL     1       1.998   3.974  21.595  0.00  0.00    +0.000 A 
ATOM     18  C   UNL     1       2.460   2.673  21.422  0.00  0.00    +0.000 A 
ATOM     19  C   UNL     1       2.576   2.146  20.137  0.00  0.00    +0.000 A 
ATOM     20  C   UNL     1       2.295   2.940  19.018  0.00  0.00    +0.000 A 
ATOM     21 CL   UNL     1       2.489   2.215  17.463  0.00  0.00    +0.000 Cl
ENDBRANCH  14  15
ENDBRANCH   3  14
BRANCH   3  22
ATOM     22  C   UNL     1       4.441   5.760  18.455  0.00  0.00    +0.000 C 
BRANCH  22  23
ATOM     23  C   UNL     1       5.353   5.286  17.266  0.00  0.00    +0.000 C 
ATOM     24  C   UNL     1       6.329   6.354  16.784  0.00  0.00    +0.000 C 
ATOM     25  C   UNL     1       7.533   6.166  17.683  0.00  0.00    +0.000 C 
ATOM     26  C   UNL     1       7.588   4.666  17.885  0.00  0.00    +0.000 C 
ATOM     27  N   UNL     1       6.247   4.150  17.588  0.00  0.00    +0.000 NA
ATOM     28  H   UNL     1       5.898   3.666  18.427  0.00  0.00    +0.000 HD
ENDBRANCH  22  23
ENDBRANCH   3  22
TORSDOF 7
ENDMDL
MODEL 6
REMARK VINA RESULT:      -6.7      1.776      2.217
REMARK  Name = 
REMARK  8 active torsions:
REMARK  status: ('A' for Active; 'I' for Inactive)
REMARK    1  A    between atoms: C_1  and  C_2
REMARK    2  A    between atoms: C_2  and  O_3
REMARK    3  A    between atoms: C_2  and  C_11
REMARK    4  A    between atoms: O_3  and  C_4
REMARK    5  A    between atoms: N_13  and  C_14
REMARK    6  A    between atoms: N_13  and  C_22
REMARK    7  A    between atoms: C_14  and  C_15
REMARK    8  A    between atoms: C_22  and  C_23
REMARK                            x       y       z     vdW  Elec       q    Type
REMARK                         _______ _______ _______ _____ _____    ______ ____
ROOT
ATOM      1  C   UNL     1       3.005   7.630  18.277  0.00  0.00    +0.000 C 
ATOM      2  O   UNL     1       3.697   7.770  17.261  0.00  0.00    +0.000 OA
ATOM      3  N   UNL     1       3.203   6.507  19.088  0.00  0.00    +0.000 N 
ENDROOT
BRANCH   1   5
ATOM      4  C   UNL     1       2.123  10.003  17.850  0.00  0.00    +0.000 C 
ATOM      5  C   UNL     1       2.058   8.793  18.792  0.00  0.00    +0.000 C 
BRANCH   5   6
ATOM      6  O   UNL     1       0.716   8.581  19.221  0.00  0.00    +0.000 OA
BRANCH   6   7
ATOM      7  C   UNL     1       0.285   9.201  20.357  0.00  0.00    +0.000 A 
ATOM      8  C   UNL     1       0.638   8.784  21.638  0.00  0.00    +0.000 A 
ATOM      9  C   UNL     1       0.297   9.546  22.756  0.00  0.00    +0.000 A 
ATOM     10  C   UNL     1      -0.461  10.703  22.604  0.00  0.00    +0.000 A 
ATOM     11  C   UNL     1      -0.934  11.056  21.342  0.00  0.00    +0.000 A 
ATOM     12  C   UNL     1      -0.579  10.297  20.223  0.00  0.00    +0.000 A 
ATOM     13 CL   UNL     1      -1.226  10.755  18.687  0.00  0.00    +0.000 Cl
ENDBRANCH   6   7
ENDBRANCH   5   6
ENDBRANCH   1   5
BRANCH   3  14
ATOM     14  C   UNL     1       2.257   6.097  20.124  0.00  0.00    +0.000 C 
BRANCH  14  15
ATOM     15  C   UNL     1       1.835   4.639  20.169  0.00  0.00    +0.000 A 
ATOM     16  C   UNL     1       2.068   3.897  21.354  0.00  0.00    +0.000 A 
ATOM     17  C   UNL     1       2.052   2.500  21.330  0.00  0.00    +0.000 A 
ATOM     18  C   UNL     1       1.781   1.820  20.147  0.00  0.00    +0.000 A 
ATOM     19  C   UNL     1       1.462   2.536  18.995  0.00  0.00    +0.000 A 
ATOM     20  C   UNL     1       1.478   3.936  19.005  0.00  0.00    +0.000 A 
ATOM     21 CL   UNL     1       1.094   4.744  17.528  0.00  0.00    +0.000 Cl
ENDBRANCH  14  15
ENDBRANCH   3  14
BRANCH   3  22
ATOM     22  C   UNL     1       4.572   5.938  19.114  0.00  0.00    +0.000 C 
BRANCH  22  23
ATOM     23  C   UNL     1       4.702   4.595  18.309  0.00  0.00    +0.000 C 
ATOM     24  C   UNL     1       4.447   4.754  16.814  0.00  0.00    +0.000 C 
ATOM     25  C   UNL     1       5.805   5.129  16.260  0.00  0.00    +0.000 C 
ATOM     26  C   UNL     1       6.766   4.325  17.111  0.00  0.00    +0.000 C 
ATOM     27  N   UNL     1       6.050   3.981  18.345  0.00  0.00    +0.000 NA
ATOM     28  H   UNL     1       6.580   4.365  19.139  0.00  0.00    +0.000 HD
ENDBRANCH  22  23
ENDBRANCH   3  22
TORSDOF 7
ENDMDL
MODEL 7
REMARK VINA RESULT:      -6.7      2.451      4.367
REMARK  Name = 
REMARK  8 active torsions:
REMARK  status: ('A' for Active; 'I' for Inactive)
REMARK    1  A    between atoms: C_1  and  C_2
REMARK    2  A    between atoms: C_2  and  O_3
REMARK    3  A    between atoms: C_2  and  C_11
REMARK    4  A    between atoms: O_3  and  C_4
REMARK    5  A    between atoms: N_13  and  C_14
REMARK    6  A    between atoms: N_13  and  C_22
REMARK    7  A    between atoms: C_14  and  C_15
REMARK    8  A    between atoms: C_22  and  C_23
REMARK                            x       y       z     vdW  Elec       q    Type
REMARK                         _______ _______ _______ _____ _____    ______ ____
ROOT
ATOM      1  C   UNL     1       2.449   6.904  19.692  0.00  0.00    +0.000 C 
ATOM      2  O   UNL     1       1.778   6.258  20.507  0.00  0.00    +0.000 OA
ATOM      3  N   UNL     1       3.577   6.311  19.114  0.00  0.00    +0.000 N 
ENDROOT
BRANCH   1   5
ATOM      4  C   UNL     1       2.457   8.527  17.703  0.00  0.00    +0.000 C 
ATOM      5  C   UNL     1       1.939   8.297  19.129  0.00  0.00    +0.000 C 
BRANCH   5   6
ATOM      6  O   UNL     1       0.589   8.740  19.235  0.00  0.00    +0.000 OA
BRANCH   6   7
ATOM      7  C   UNL     1       0.191   9.360  20.383  0.00  0.00    +0.000 A 
ATOM      8  C   UNL     1      -0.220   8.672  21.522  0.00  0.00    +0.000 A 
ATOM      9  C   UNL     1      -0.467   9.352  22.715  0.00  0.00    +0.000 A 
ATOM     10  C   UNL     1      -0.365  10.739  22.759  0.00  0.00    +0.000 A 
ATOM     11  C   UNL     1      -0.086  11.447  21.592  0.00  0.00    +0.000 A 
ATOM     12  C   UNL     1       0.173  10.762  20.402  0.00  0.00    +0.000 A 
ATOM     13 CL   UNL     1       0.473  11.689  18.974  0.00  0.00    +0.000 Cl
ENDBRANCH   6   7
ENDBRANCH   5   6
ENDBRANCH   1   5
BRANCH   3  14
ATOM     14  C   UNL     1       4.590   7.070  18.384  0.00  0.00    +0.000 C 
BRANCH  14  15
ATOM     15  C   UNL     1       5.474   6.322  17.404  0.00  0.00    +0.000 A 
ATOM     16  C   UNL     1       5.039   6.180  16.062  0.00  0.00    +0.000 A 
ATOM     17  C   UNL     1       5.606   5.210  15.232  0.00  0.00    +0.000 A 
ATOM     18  C   UNL     1       6.623   4.386  15.704  0.00  0.00    +0.000 A 
ATOM     19  C   UNL     1       7.123   4.574  16.991  0.00  0.00    +0.000 A 
ATOM     20  C   UNL     1       6.561   5.541  17.834  0.00  0.00    +0.000 A 
ATOM     21 CL   UNL     1       7.225   5.690  19.422  0.00  0.00    +0.000 Cl
ENDBRANCH  14  15
ENDBRANCH   3  14
BRANCH   3  22
ATOM     22  C   UNL     1       3.545   4.837  18.953  0.00  0.00    +0.000 C 
BRANCH  22  23
ATOM     23  C   UNL     1       2.404   4.341  17.994  0.00  0.00    +0.000 C 
ATOM     24  C   UNL     1       2.837   3.210  17.066  0.00  0.00    +0.000 C 
ATOM     25  C   UNL     1       2.587   1.962  17.885  0.00  0.00    +0.000 C 
ATOM     26  C   UNL     1       1.331   2.299  18.662  0.00  0.00    +0.000 C 
ATOM     27  N   UNL     1       1.227   3.762  18.682  0.00  0.00    +0.000 NA
ATOM     28  H   UNL     1       1.218   4.069  19.664  0.00  0.00    +0.000 HD
ENDBRANCH  22  23
ENDBRANCH   3  22
TORSDOF 7
ENDMDL
MODEL 8
REMARK VINA RESULT:      -6.7      2.572      4.358
REMARK  Name = 
REMARK  8 active torsions:
REMARK  status: ('A' for Active; 'I' for Inactive)
REMARK    1  A    between atoms: C_1  and  C_2
REMARK    2  A    between atoms: C_2  and  O_3
REMARK    3  A    between atoms: C_2  and  C_11
REMARK    4  A    between atoms: O_3  and  C_4
REMARK    5  A    between atoms: N_13  and  C_14
REMARK    6  A    between atoms: N_13  and  C_22
REMARK    7  A    between atoms: C_14  and  C_15
REMARK    8  A    between atoms: C_22  and  C_23
REMARK                            x       y       z     vdW  Elec       q    Type
REMARK                         _______ _______ _______ _____ _____    ______ ____
ROOT
ATOM      1  C   UNL     1       2.504   7.001  19.589  0.00  0.00    +0.000 C 
ATOM      2  O   UNL     1       1.873   6.385  20.457  0.00  0.00    +0.000 OA
ATOM      3  N   UNL     1       3.602   6.386  18.977  0.00  0.00    +0.000 N 
ENDROOT
BRANCH   1   5
ATOM      4  C   UNL     1       1.757   8.274  17.488  0.00  0.00    +0.000 C 
ATOM      5  C   UNL     1       1.969   8.376  19.004  0.00  0.00    +0.000 C 
BRANCH   5   6
ATOM      6  O   UNL     1       0.908   9.120  19.597  0.00  0.00    +0.000 OA
BRANCH   6   7
ATOM      7  C   UNL     1       1.037  10.474  19.702  0.00  0.00    +0.000 A 
ATOM      8  C   UNL     1       1.579  11.272  18.699  0.00  0.00    +0.000 A 
ATOM      9  C   UNL     1       1.543  12.664  18.796  0.00  0.00    +0.000 A 
ATOM     10  C   UNL     1       1.018  13.267  19.934  0.00  0.00    +0.000 A 
ATOM     11  C   UNL     1       0.596  12.478  21.002  0.00  0.00    +0.000 A 
ATOM     12  C   UNL     1       0.623  11.084  20.895  0.00  0.00    +0.000 A 
ATOM     13 CL   UNL     1       0.127  10.150  22.263  0.00  0.00    +0.000 Cl
ENDBRANCH   6   7
ENDBRANCH   5   6
ENDBRANCH   1   5
BRANCH   3  14
ATOM     14  C   UNL     1       4.580   7.118  18.174  0.00  0.00    +0.000 C 
BRANCH  14  15
ATOM     15  C   UNL     1       5.477   6.324  17.243  0.00  0.00    +0.000 A 
ATOM     16  C   UNL     1       5.078   6.149  15.894  0.00  0.00    +0.000 A 
ATOM     17  C   UNL     1       5.650   5.144  15.110  0.00  0.00    +0.000 A 
ATOM     18  C   UNL     1       6.637   4.316  15.637  0.00  0.00    +0.000 A 
ATOM     19  C   UNL     1       7.102   4.533  16.932  0.00  0.00    +0.000 A 
ATOM     20  C   UNL     1       6.535   5.536  17.729  0.00  0.00    +0.000 A 
ATOM     21 CL   UNL     1       7.155   5.721  19.330  0.00  0.00    +0.000 Cl
ENDBRANCH  14  15
ENDBRANCH   3  14
BRANCH   3  22
ATOM     22  C   UNL     1       3.561   4.908  18.868  0.00  0.00    +0.000 C 
BRANCH  22  23
ATOM     23  C   UNL     1       2.419   4.386  17.924  0.00  0.00    +0.000 C 
ATOM     24  C   UNL     1       2.857   3.245  17.012  0.00  0.00    +0.000 C 
ATOM     25  C   UNL     1       2.623   2.008  17.852  0.00  0.00    +0.000 C 
ATOM     26  C   UNL     1       1.369   2.346  18.632  0.00  0.00    +0.000 C 
ATOM     27  N   UNL     1       1.251   3.808  18.629  0.00  0.00    +0.000 NA
ATOM     28  H   UNL     1       1.247   4.130  19.606  0.00  0.00    +0.000 HD
ENDBRANCH  22  23
ENDBRANCH   3  22
TORSDOF 7
ENDMDL
MODEL 9
REMARK VINA RESULT:      -6.6      2.182      3.926
REMARK  Name = 
REMARK  8 active torsions:
REMARK  status: ('A' for Active; 'I' for Inactive)
REMARK    1  A    between atoms: C_1  and  C_2
REMARK    2  A    between atoms: C_2  and  O_3
REMARK    3  A    between atoms: C_2  and  C_11
REMARK    4  A    between atoms: O_3  and  C_4
REMARK    5  A    between atoms: N_13  and  C_14
REMARK    6  A    between atoms: N_13  and  C_22
REMARK    7  A    between atoms: C_14  and  C_15
REMARK    8  A    between atoms: C_22  and  C_23
REMARK                            x       y       z     vdW  Elec       q    Type
REMARK                         _______ _______ _______ _____ _____    ______ ____
ROOT
ATOM      1  C   UNL     1       2.106   6.359  19.505  0.00  0.00    +0.000 C 
ATOM      2  O   UNL     1       1.411   5.942  20.440  0.00  0.00    +0.000 OA
ATOM      3  N   UNL     1       2.585   5.451  18.553  0.00  0.00    +0.000 N 
ENDROOT
BRANCH   1   5
ATOM      4  C   UNL     1       1.681   8.306  17.886  0.00  0.00    +0.000 C 
ATOM      5  C   UNL     1       2.283   7.913  19.242  0.00  0.00    +0.000 C 
BRANCH   5   6
ATOM      6  O   UNL     1       1.988   8.912  20.214  0.00  0.00    +0.000 OA
BRANCH   6   7
ATOM      7  C   UNL     1       1.059   9.865  19.914  0.00  0.00    +0.000 A 
ATOM      8  C   UNL     1       1.329  10.972  19.114  0.00  0.00    +0.000 A 
ATOM      9  C   UNL     1       0.304  11.830  18.713  0.00  0.00    +0.000 A 
ATOM     10  C   UNL     1      -0.995  11.620  19.166  0.00  0.00    +0.000 A 
ATOM     11  C   UNL     1      -1.251  10.595  20.075  0.00  0.00    +0.000 A 
ATOM     12  C   UNL     1      -0.224   9.731  20.464  0.00  0.00    +0.000 A 
ATOM     13 CL   UNL     1      -0.586   8.502  21.625  0.00  0.00    +0.000 Cl
ENDBRANCH   6   7
ENDBRANCH   5   6
ENDBRANCH   1   5
BRANCH   3  14
ATOM     14  C   UNL     1       3.640   5.783  17.598  0.00  0.00    +0.000 C 
BRANCH  14  15
ATOM     15  C   UNL     1       5.043   5.275  17.878  0.00  0.00    +0.000 A 
ATOM     16  C   UNL     1       5.654   5.604  19.115  0.00  0.00    +0.000 A 
ATOM     17  C   UNL     1       7.037   5.492  19.273  0.00  0.00    +0.000 A 
ATOM     18  C   UNL     1       7.831   5.032  18.227  0.00  0.00    +0.000 A 
ATOM     19  C   UNL     1       7.235   4.621  17.036  0.00  0.00    +0.000 A 
ATOM     20  C   UNL     1       5.850   4.731  16.864  0.00  0.00    +0.000 A 
ATOM     21 CL   UNL     1       5.197   4.220  15.348  0.00  0.00    +0.000 Cl
ENDBRANCH  14  15
ENDBRANCH   3  14
BRANCH   3  22
ATOM     22  C   UNL     1       1.751   4.251  18.299  0.00  0.00    +0.000 C 
BRANCH  22  23
ATOM     23  C   UNL     1       1.925   3.132  19.388  0.00  0.00    +0.000 C 
ATOM     24  C   UNL     1       2.034   1.727  18.805  0.00  0.00    +0.000 C 
ATOM     25  C   UNL     1       3.513   1.574  18.520  0.00  0.00    +0.000 C 
ATOM     26  C   UNL     1       4.169   2.322  19.662  0.00  0.00    +0.000 C 
ATOM     27  N   UNL     1       3.161   3.244  20.197  0.00  0.00    +0.000 NA
ATOM     28  H   UNL     1       3.533   4.201  20.124  0.00  0.00    +0.000 HD
ENDBRANCH  22  23
ENDBRANCH   3  22
TORSDOF 7
ENDMDL
