MODEL 1
REMARK VINA RESULT:      -7.6      0.000      0.000
REMARK  Name = 
REMARK  5 active torsions:
REMARK  status: ('A' for Active; 'I' for Inactive)
REMARK    1  A    between atoms: C_1  and  O_2
REMARK    2  A    between atoms: O_2  and  C_3
REMARK    3  A    between atoms: C_3  and  C_4
REMARK    4  A    between atoms: C_7  and  C_8
REMARK    5  A    between atoms: C_8  and  C_9
REMARK                            x       y       z     vdW  Elec       q    Type
REMARK                         _______ _______ _______ _____ _____    ______ ____
ROOT
ATOM      1  C   UNL     1       3.068   4.668  19.178  0.00  0.00    +0.000 C 
ATOM      2  C   UNL     1       2.897   3.838  20.487  0.00  0.00    +0.000 C 
ATOM      3  C   UNL     1       1.438   3.485  20.734  0.00  0.00    +0.000 C 
ATOM      4  O   UNL     1       0.938   2.700  19.655  0.00  0.00    +0.000 OA
ATOM      5  C   UNL     1       0.967   3.406  18.418  0.00  0.00    +0.000 C 
ATOM      6  C   UNL     1       2.389   3.814  18.060  0.00  0.00    +0.000 C 
ENDROOT
BRANCH   1   7
ATOM      7  C   UNL     1       2.482   6.102  19.303  0.00  0.00    +0.000 A 
ATOM      8  C   UNL     1       2.527   7.015  18.230  0.00  0.00    +0.000 A 
ATOM      9  C   UNL     1       2.036   8.321  18.356  0.00  0.00    +0.000 A 
ATOM     10  C   UNL     1       1.503   8.751  19.565  0.00  0.00    +0.000 A 
ATOM     11 CL   UNL     1       0.926  10.362  19.730  0.00  0.00    +0.000 Cl
ATOM     12  C   UNL     1       1.455   7.882  20.648  0.00  0.00    +0.000 A 
ATOM     13  C   UNL     1       1.947   6.577  20.519  0.00  0.00    +0.000 A 
ENDBRANCH   1   7
BRANCH   1  17
ATOM     14  C   UNL     1       6.467   4.749  17.997  0.00  0.00    +0.000 A 
ATOM     15  N   UNL     1       6.666   5.256  19.223  0.00  0.00    +0.000 NA
ATOM     16  O   UNL     1       5.383   5.294  19.769  0.00  0.00    +0.000 OA
ATOM     17  C   UNL     1       4.539   4.774  18.826  0.00  0.00    +0.000 A 
ATOM     18  N   UNL     1       5.162   4.407  17.726  0.00  0.00    +0.000 NA
BRANCH  14  19
ATOM     19  C   UNL     1       7.578   4.539  17.024  0.00  0.00    +0.000 C 
BRANCH  19  21
ATOM     20  C   UNL     1       6.967   4.868  14.765  0.00  0.00    +0.000 C 
ATOM     21  O   UNL     1       7.515   5.465  15.930  0.00  0.00    +0.000 OA
ENDBRANCH  19  21
ENDBRANCH  14  19
ENDBRANCH   1  17
TORSDOF 4
ENDMDL
MODEL 2
REMARK VINA RESULT:      -7.6      0.196      1.066
REMARK  Name = 
REMARK  5 active torsions:
REMARK  status: ('A' for Active; 'I' for Inactive)
REMARK    1  A    between atoms: C_1  and  O_2
REMARK    2  A    between atoms: O_2  and  C_3
REMARK    3  A    between atoms: C_3  and  C_4
REMARK    4  A    between atoms: C_7  and  C_8
REMARK    5  A    between atoms: C_8  and  C_9
REMARK                            x       y       z     vdW  Elec       q    Type
REMARK                         _______ _______ _______ _____ _____    ______ ____
ROOT
ATOM      1  C   UNL     1       3.037   4.841  19.159  0.00  0.00    +0.000 C 
ATOM      2  C   UNL     1       2.839   4.042  20.484  0.00  0.00    +0.000 C 
ATOM      3  C   UNL     1       1.367   3.758  20.746  0.00  0.00    +0.000 C 
ATOM      4  O   UNL     1       0.826   2.978  19.684  0.00  0.00    +0.000 OA
ATOM      5  C   UNL     1       0.877   3.660  18.435  0.00  0.00    +0.000 C 
ATOM      6  C   UNL     1       2.313   3.998  18.061  0.00  0.00    +0.000 C 
ENDROOT
BRANCH   1   7
ATOM      7  C   UNL     1       2.516   6.301  19.262  0.00  0.00    +0.000 A 
ATOM      8  C   UNL     1       1.978   6.812  20.460  0.00  0.00    +0.000 A 
ATOM      9  C   UNL     1       1.471   8.115  20.541  0.00  0.00    +0.000 A 
ATOM     10  C   UNL     1       1.475   8.935  19.419  0.00  0.00    +0.000 A 
ATOM     11 CL   UNL     1       0.828  10.525  19.510  0.00  0.00    +0.000 Cl
ATOM     12  C   UNL     1       1.986   8.460  18.217  0.00  0.00    +0.000 A 
ATOM     13  C   UNL     1       2.491   7.157  18.139  0.00  0.00    +0.000 A 
ENDBRANCH   1   7
BRANCH   1  17
ATOM     14  C   UNL     1       6.425   4.774  17.947  0.00  0.00    +0.000 A 
ATOM     15  N   UNL     1       6.664   5.210  19.192  0.00  0.00    +0.000 NA
ATOM     16  O   UNL     1       5.391   5.298  19.753  0.00  0.00    +0.000 OA
ATOM     17  C   UNL     1       4.509   4.875  18.796  0.00  0.00    +0.000 A 
ATOM     18  N   UNL     1       5.100   4.523  17.674  0.00  0.00    +0.000 NA
BRANCH  14  19
ATOM     19  C   UNL     1       7.513   4.544  16.952  0.00  0.00    +0.000 C 
BRANCH  19  21
ATOM     20  C   UNL     1       6.996   4.836  14.665  0.00  0.00    +0.000 C 
ATOM     21  O   UNL     1       7.442   5.466  15.856  0.00  0.00    +0.000 OA
ENDBRANCH  19  21
ENDBRANCH  14  19
ENDBRANCH   1  17
TORSDOF 4
ENDMDL
MODEL 3
REMARK VINA RESULT:      -7.5      1.464      1.574
REMARK  Name = 
REMARK  5 active torsions:
REMARK  status: ('A' for Active; 'I' for Inactive)
REMARK    1  A    between atoms: C_1  and  O_2
REMARK    2  A    between atoms: O_2  and  C_3
REMARK    3  A    between atoms: C_3  and  C_4
REMARK    4  A    between atoms: C_7  and  C_8
REMARK    5  A    between atoms: C_8  and  C_9
REMARK                            x       y       z     vdW  Elec       q    Type
REMARK                         _______ _______ _______ _____ _____    ______ ____
ROOT
ATOM      1  C   UNL     1       3.083   5.364  18.987  0.00  0.00    +0.000 C 
ATOM      2  C   UNL     1       2.728   4.450  20.200  0.00  0.00    +0.000 C 
ATOM      3  C   UNL     1       1.271   4.012  20.159  0.00  0.00    +0.000 C 
ATOM      4  O   UNL     1       1.020   3.271  18.968  0.00  0.00    +0.000 OA
ATOM      5  C   UNL     1       1.229   4.050  17.795  0.00  0.00    +0.000 C 
ATOM      6  C   UNL     1       2.666   4.546  17.723  0.00  0.00    +0.000 C 
ENDROOT
BRANCH   1   7
ATOM      7  C   UNL     1       2.402   6.758  19.075  0.00  0.00    +0.000 A 
ATOM      8  C   UNL     1       2.262   7.585  17.942  0.00  0.00    +0.000 A 
ATOM      9  C   UNL     1       1.686   8.859  18.030  0.00  0.00    +0.000 A 
ATOM     10  C   UNL     1       1.249   9.343  19.257  0.00  0.00    +0.000 A 
ATOM     11 CL   UNL     1       0.567  10.917  19.370  0.00  0.00    +0.000 Cl
ATOM     12  C   UNL     1       1.383   8.560  20.397  0.00  0.00    +0.000 A 
ATOM     13  C   UNL     1       1.960   7.287  20.306  0.00  0.00    +0.000 A 
ENDBRANCH   1   7
BRANCH   1  17
ATOM     14  C   UNL     1       6.584   6.021  18.474  0.00  0.00    +0.000 A 
ATOM     15  N   UNL     1       6.676   5.306  19.605  0.00  0.00    +0.000 NA
ATOM     16  O   UNL     1       5.347   5.015  19.912  0.00  0.00    +0.000 OA
ATOM     17  C   UNL     1       4.585   5.561  18.915  0.00  0.00    +0.000 A 
ATOM     18  N   UNL     1       5.302   6.173  17.997  0.00  0.00    +0.000 NA
BRANCH  14  19
ATOM     19  C   UNL     1       7.780   6.573  17.773  0.00  0.00    +0.000 C 
BRANCH  19  21
ATOM     20  C   UNL     1       7.983   8.927  17.813  0.00  0.00    +0.000 C 
ATOM     21  O   UNL     1       7.485   7.806  17.101  0.00  0.00    +0.000 OA
ENDBRANCH  19  21
ENDBRANCH  14  19
ENDBRANCH   1  17
TORSDOF 4
ENDMDL
MODEL 4
REMARK VINA RESULT:      -7.2      1.499      2.014
REMARK  Name = 
REMARK  5 active torsions:
REMARK  status: ('A' for Active; 'I' for Inactive)
REMARK    1  A    between atoms: C_1  and  O_2
REMARK    2  A    between atoms: O_2  and  C_3
REMARK    3  A    between atoms: C_3  and  C_4
REMARK    4  A    between atoms: C_7  and  C_8
REMARK    5  A    between atoms: C_8  and  C_9
REMARK                            x       y       z     vdW  Elec       q    Type
REMARK                         _______ _______ _______ _____ _____    ______ ____
ROOT
ATOM      1  C   UNL     1       3.585   4.011  18.323  0.00  0.00    +0.000 C 
ATOM      2  C   UNL     1       3.999   3.151  19.556  0.00  0.00    +0.000 C 
ATOM      3  C   UNL     1       2.784   2.708  20.358  0.00  0.00    +0.000 C 
ATOM      4  O   UNL     1       1.928   1.913  19.542  0.00  0.00    +0.000 OA
ATOM      5  C   UNL     1       1.419   2.639  18.427  0.00  0.00    +0.000 C 
ATOM      6  C   UNL     1       2.553   3.136  17.542  0.00  0.00    +0.000 C 
ENDROOT
BRANCH   1   7
ATOM      7  C   UNL     1       3.033   5.405  18.728  0.00  0.00    +0.000 A 
ATOM      8  C   UNL     1       2.444   5.630  19.989  0.00  0.00    +0.000 A 
ATOM      9  C   UNL     1       1.909   6.876  20.338  0.00  0.00    +0.000 A 
ATOM     10  C   UNL     1       1.935   7.926  19.428  0.00  0.00    +0.000 A 
ATOM     11 CL   UNL     1       1.254   9.448  19.846  0.00  0.00    +0.000 Cl
ATOM     12  C   UNL     1       2.496   7.736  18.170  0.00  0.00    +0.000 A 
ATOM     13  C   UNL     1       3.029   6.489  17.824  0.00  0.00    +0.000 A 
ENDBRANCH   1   7
BRANCH   1  17
ATOM     14  C   UNL     1       6.174   4.430  15.857  0.00  0.00    +0.000 A 
ATOM     15  N   UNL     1       6.929   4.521  16.961  0.00  0.00    +0.000 NA
ATOM     16  O   UNL     1       6.004   4.395  17.997  0.00  0.00    +0.000 OA
ATOM     17  C   UNL     1       4.781   4.209  17.411  0.00  0.00    +0.000 A 
ATOM     18  N   UNL     1       4.838   4.204  16.097  0.00  0.00    +0.000 NA
BRANCH  14  19
ATOM     19  C   UNL     1       6.744   4.529  14.482  0.00  0.00    +0.000 C 
BRANCH  19  21
ATOM     20  C   UNL     1       6.662   3.707  12.269  0.00  0.00    +0.000 C 
ATOM     21  O   UNL     1       6.143   3.586  13.584  0.00  0.00    +0.000 OA
ENDBRANCH  19  21
ENDBRANCH  14  19
ENDBRANCH   1  17
TORSDOF 4
ENDMDL
MODEL 5
REMARK VINA RESULT:      -7.2      1.477      1.679
REMARK  Name = 
REMARK  5 active torsions:
REMARK  status: ('A' for Active; 'I' for Inactive)
REMARK    1  A    between atoms: C_1  and  O_2
REMARK    2  A    between atoms: O_2  and  C_3
REMARK    3  A    between atoms: C_3  and  C_4
REMARK    4  A    between atoms: C_7  and  C_8
REMARK    5  A    between atoms: C_8  and  C_9
REMARK                            x       y       z     vdW  Elec       q    Type
REMARK                         _______ _______ _______ _____ _____    ______ ____
ROOT
ATOM      1  C   UNL     1       3.477   3.960  18.393  0.00  0.00    +0.000 C 
ATOM      2  C   UNL     1       3.889   3.152  19.661  0.00  0.00    +0.000 C 
ATOM      3  C   UNL     1       2.671   2.712  20.460  0.00  0.00    +0.000 C 
ATOM      4  O   UNL     1       1.843   1.872  19.660  0.00  0.00    +0.000 OA
ATOM      5  C   UNL     1       1.338   2.548  18.514  0.00  0.00    +0.000 C 
ATOM      6  C   UNL     1       2.475   3.038  17.628  0.00  0.00    +0.000 C 
ENDROOT
BRANCH   1   7
ATOM      7  C   UNL     1       2.890   5.356  18.742  0.00  0.00    +0.000 A 
ATOM      8  C   UNL     1       2.924   6.424  17.823  0.00  0.00    +0.000 A 
ATOM      9  C   UNL     1       2.433   7.693  18.153  0.00  0.00    +0.000 A 
ATOM     10  C   UNL     1       1.909   7.931  19.418  0.00  0.00    +0.000 A 
ATOM     11 CL   UNL     1       1.331   9.495  19.833  0.00  0.00    +0.000 Cl
ATOM     12  C   UNL     1       1.872   6.904  20.354  0.00  0.00    +0.000 A 
ATOM     13  C   UNL     1       2.364   5.637  20.022  0.00  0.00    +0.000 A 
ENDBRANCH   1   7
BRANCH   1  17
ATOM     14  C   UNL     1       6.097   4.332  15.953  0.00  0.00    +0.000 A 
ATOM     15  N   UNL     1       6.823   4.531  17.063  0.00  0.00    +0.000 NA
ATOM     16  O   UNL     1       5.882   4.432  18.087  0.00  0.00    +0.000 OA
ATOM     17  C   UNL     1       4.682   4.152  17.492  0.00  0.00    +0.000 A 
ATOM     18  N   UNL     1       4.767   4.061  16.182  0.00  0.00    +0.000 NA
BRANCH  14  19
ATOM     19  C   UNL     1       6.692   4.365  14.585  0.00  0.00    +0.000 C 
BRANCH  19  21
ATOM     20  C   UNL     1       6.432   3.543  12.386  0.00  0.00    +0.000 C 
ATOM     21  O   UNL     1       5.771   3.899  13.589  0.00  0.00    +0.000 OA
ENDBRANCH  19  21
ENDBRANCH  14  19
ENDBRANCH   1  17
TORSDOF 4
ENDMDL
MODEL 6
REMARK VINA RESULT:      -7.2      3.360      5.857
REMARK  Name = 
REMARK  5 active torsions:
REMARK  status: ('A' for Active; 'I' for Inactive)
REMARK    1  A    between atoms: C_1  and  O_2
REMARK    2  A    between atoms: O_2  and  C_3
REMARK    3  A    between atoms: C_3  and  C_4
REMARK    4  A    between atoms: C_7  and  C_8
REMARK    5  A    between atoms: C_8  and  C_9
REMARK                            x       y       z     vdW  Elec       q    Type
REMARK                         _______ _______ _______ _____ _____    ______ ____
ROOT
ATOM      1  C   UNL     1       2.370   4.938  19.787  0.00  0.00    +0.000 C 
ATOM      2  C   UNL     1       1.153   4.156  19.205  0.00  0.00    +0.000 C 
ATOM      3  C   UNL     1       1.344   2.652  19.339  0.00  0.00    +0.000 C 
ATOM      4  O   UNL     1       1.471   2.299  20.714  0.00  0.00    +0.000 OA
ATOM      5  C   UNL     1       2.613   2.895  21.320  0.00  0.00    +0.000 C 
ATOM      6  C   UNL     1       2.533   4.414  21.249  0.00  0.00    +0.000 C 
ENDROOT
BRANCH   1   7
ATOM      7  C   UNL     1       3.651   4.773  18.923  0.00  0.00    +0.000 A 
ATOM      8  C   UNL     1       4.929   5.090  19.426  0.00  0.00    +0.000 A 
ATOM      9  C   UNL     1       6.078   4.980  18.634  0.00  0.00    +0.000 A 
ATOM     10  C   UNL     1       5.977   4.564  17.312  0.00  0.00    +0.000 A 
ATOM     11 CL   UNL     1       7.383   4.455  16.331  0.00  0.00    +0.000 Cl
ATOM     12  C   UNL     1       4.731   4.256  16.778  0.00  0.00    +0.000 A 
ATOM     13  C   UNL     1       3.583   4.367  17.573  0.00  0.00    +0.000 A 
ENDBRANCH   1   7
BRANCH   1  17
ATOM     14  C   UNL     1       1.436   8.366  20.366  0.00  0.00    +0.000 A 
ATOM     15  N   UNL     1       1.867   8.484  19.102  0.00  0.00    +0.000 NA
ATOM     16  O   UNL     1       2.285   7.193  18.780  0.00  0.00    +0.000 OA
ATOM     17  C   UNL     1       2.034   6.415  19.878  0.00  0.00    +0.000 A 
ATOM     18  N   UNL     1       1.494   7.087  20.871  0.00  0.00    +0.000 NA
BRANCH  14  19
ATOM     19  C   UNL     1       0.902   9.521  21.145  0.00  0.00    +0.000 C 
BRANCH  19  21
ATOM     20  C   UNL     1       0.051   9.533  23.349  0.00  0.00    +0.000 C 
ATOM     21  O   UNL     1       1.211   9.414  22.542  0.00  0.00    +0.000 OA
ENDBRANCH  19  21
ENDBRANCH  14  19
ENDBRANCH   1  17
TORSDOF 4
ENDMDL
MODEL 7
REMARK VINA RESULT:      -7.2      1.166      1.451
REMARK  Name = 
REMARK  5 active torsions:
REMARK  status: ('A' for Active; 'I' for Inactive)
REMARK    1  A    between atoms: C_1  and  O_2
REMARK    2  A    between atoms: O_2  and  C_3
REMARK    3  A    between atoms: C_3  and  C_4
REMARK    4  A    between atoms: C_7  and  C_8
REMARK    5  A    between atoms: C_8  and  C_9
REMARK                            x       y       z     vdW  Elec       q    Type
REMARK                         _______ _______ _______ _____ _____    ______ ____
ROOT
ATOM      1  C   UNL     1       2.835   4.385  19.087  0.00  0.00    +0.000 C 
ATOM      2  C   UNL     1       3.179   3.704  20.447  0.00  0.00    +0.000 C 
ATOM      3  C   UNL     1       1.927   3.447  21.272  0.00  0.00    +0.000 C 
ATOM      4  O   UNL     1       1.047   2.579  20.563  0.00  0.00    +0.000 OA
ATOM      5  C   UNL     1       0.599   3.151  19.338  0.00  0.00    +0.000 C 
ATOM      6  C   UNL     1       1.775   3.452  18.419  0.00  0.00    +0.000 C 
ENDROOT
BRANCH   1   7
ATOM      7  C   UNL     1       2.348   5.850  19.263  0.00  0.00    +0.000 A 
ATOM      8  C   UNL     1       2.394   6.777  18.202  0.00  0.00    +0.000 A 
ATOM      9  C   UNL     1       1.993   8.108  18.373  0.00  0.00    +0.000 A 
ATOM     10  C   UNL     1       1.551   8.550  19.614  0.00  0.00    +0.000 A 
ATOM     11 CL   UNL     1       1.085  10.190  19.831  0.00  0.00    +0.000 Cl
ATOM     12  C   UNL     1       1.506   7.666  20.686  0.00  0.00    +0.000 A 
ATOM     13  C   UNL     1       1.907   6.336  20.513  0.00  0.00    +0.000 A 
ENDBRANCH   1   7
BRANCH   1  17
ATOM     14  C   UNL     1       5.929   4.554  17.257  0.00  0.00    +0.000 A 
ATOM     15  N   UNL     1       5.151   4.043  16.292  0.00  0.00    +0.000 NA
ATOM     16  O   UNL     1       3.910   3.909  16.915  0.00  0.00    +0.000 OA
ATOM     17  C   UNL     1       4.058   4.385  18.189  0.00  0.00    +0.000 A 
ATOM     18  N   UNL     1       5.277   4.811  18.441  0.00  0.00    +0.000 NA
BRANCH  14  19
ATOM     19  C   UNL     1       7.376   4.855  17.049  0.00  0.00    +0.000 C 
BRANCH  19  21
ATOM     20  C   UNL     1       7.517   7.186  17.407  0.00  0.00    +0.000 C 
ATOM     21  O   UNL     1       7.575   6.142  16.448  0.00  0.00    +0.000 OA
ENDBRANCH  19  21
ENDBRANCH  14  19
ENDBRANCH   1  17
TORSDOF 4
ENDMDL
MODEL 8
REMARK VINA RESULT:      -7.2      1.159      1.665
REMARK  Name = 
REMARK  5 active torsions:
REMARK  status: ('A' for Active; 'I' for Inactive)
REMARK    1  A    between atoms: C_1  and  O_2
REMARK    2  A    between atoms: O_2  and  C_3
REMARK    3  A    between atoms: C_3  and  C_4
REMARK    4  A    between atoms: C_7  and  C_8
REMARK    5  A    between atoms: C_8  and  C_9
REMARK                            x       y       z     vdW  Elec       q    Type
REMARK                         _______ _______ _______ _____ _____    ______ ____
ROOT
ATOM      1  C   UNL     1       3.102   5.036  19.110  0.00  0.00    +0.000 C 
ATOM      2  C   UNL     1       2.897   4.200  20.410  0.00  0.00    +0.000 C 
ATOM      3  C   UNL     1       1.433   3.840  20.614  0.00  0.00    +0.000 C 
ATOM      4  O   UNL     1       0.966   3.059  19.518  0.00  0.00    +0.000 OA
ATOM      5  C   UNL     1       1.028   3.770  18.286  0.00  0.00    +0.000 C 
ATOM      6  C   UNL     1       2.458   4.184  17.970  0.00  0.00    +0.000 C 
ENDROOT
BRANCH   1   7
ATOM      7  C   UNL     1       2.508   6.467  19.224  0.00  0.00    +0.000 A 
ATOM      8  C   UNL     1       1.974   6.953  20.435  0.00  0.00    +0.000 A 
ATOM      9  C   UNL     1       1.402   8.227  20.527  0.00  0.00    +0.000 A 
ATOM     10  C   UNL     1       1.334   9.044  19.404  0.00  0.00    +0.000 A 
ATOM     11 CL   UNL     1       0.607  10.597  19.509  0.00  0.00    +0.000 Cl
ATOM     12  C   UNL     1       1.839   8.592  18.190  0.00  0.00    +0.000 A 
ATOM     13  C   UNL     1       2.410   7.317  18.101  0.00  0.00    +0.000 A 
ENDBRANCH   1   7
BRANCH   1  17
ATOM     14  C   UNL     1       6.512   5.535  18.072  0.00  0.00    +0.000 A 
ATOM     15  N   UNL     1       6.731   4.684  19.084  0.00  0.00    +0.000 NA
ATOM     16  O   UNL     1       5.452   4.440  19.584  0.00  0.00    +0.000 OA
ATOM     17  C   UNL     1       4.583   5.148  18.800  0.00  0.00    +0.000 A 
ATOM     18  N   UNL     1       5.185   5.822  17.844  0.00  0.00    +0.000 NA
BRANCH  14  19
ATOM     19  C   UNL     1       7.616   6.094  17.238  0.00  0.00    +0.000 C 
BRANCH  19  21
ATOM     20  C   UNL     1       7.855   8.385  17.766  0.00  0.00    +0.000 C 
ATOM     21  O   UNL     1       7.350   7.444  16.832  0.00  0.00    +0.000 OA
ENDBRANCH  19  21
ENDBRANCH  14  19
ENDBRANCH   1  17
TORSDOF 4
ENDMDL
MODEL 9
REMARK VINA RESULT:      -7.2      1.159      1.787
REMARK  Name = 
REMARK  5 active torsions:
REMARK  status: ('A' for Active; 'I' for Inactive)
REMARK    1  A    between atoms: C_1  and  O_2
REMARK    2  A    between atoms: O_2  and  C_3
REMARK    3  A    between atoms: C_3  and  C_4
REMARK    4  A    between atoms: C_7  and  C_8
REMARK    5  A    between atoms: C_8  and  C_9
REMARK                            x       y       z     vdW  Elec       q    Type
REMARK                         _______ _______ _______ _____ _____    ______ ____
ROOT
ATOM      1  C   UNL     1       2.858   4.414  19.105  0.00  0.00    +0.000 C 
ATOM      2  C   UNL     1       3.184   3.703  20.454  0.00  0.00    +0.000 C 
ATOM      3  C   UNL     1       1.925   3.474  21.279  0.00  0.00    +0.000 C 
ATOM      4  O   UNL     1       1.016   2.646  20.559  0.00  0.00    +0.000 OA
ATOM      5  C   UNL     1       0.584   3.250  19.344  0.00  0.00    +0.000 C 
ATOM      6  C   UNL     1       1.767   3.526  18.426  0.00  0.00    +0.000 C 
ENDROOT
BRANCH   1   7
ATOM      7  C   UNL     1       2.418   5.892  19.303  0.00  0.00    +0.000 A 
ATOM      8  C   UNL     1       1.918   6.356  20.536  0.00  0.00    +0.000 A 
ATOM      9  C   UNL     1       1.484   7.677  20.702  0.00  0.00    +0.000 A 
ATOM     10  C   UNL     1       1.523   8.563  19.633  0.00  0.00    +0.000 A 
ATOM     11 CL   UNL     1       0.964  10.177  19.828  0.00  0.00    +0.000 Cl
ATOM     12  C   UNL     1       1.998   8.136  18.398  0.00  0.00    +0.000 A 
ATOM     13  C   UNL     1       2.431   6.815  18.235  0.00  0.00    +0.000 A 
ENDBRANCH   1   7
BRANCH   1  17
ATOM     14  C   UNL     1       5.942   4.545  17.254  0.00  0.00    +0.000 A 
ATOM     15  N   UNL     1       5.174   3.954  16.327  0.00  0.00    +0.000 NA
ATOM     16  O   UNL     1       3.939   3.830  16.962  0.00  0.00    +0.000 OA
ATOM     17  C   UNL     1       4.078   4.388  18.203  0.00  0.00    +0.000 A 
ATOM     18  N   UNL     1       5.286   4.860  18.422  0.00  0.00    +0.000 NA
BRANCH  14  19
ATOM     19  C   UNL     1       7.380   4.868  17.020  0.00  0.00    +0.000 C 
BRANCH  19  21
ATOM     20  C   UNL     1       7.561   7.189  17.426  0.00  0.00    +0.000 C 
ATOM     21  O   UNL     1       7.549   6.169  16.440  0.00  0.00    +0.000 OA
ENDBRANCH  19  21
ENDBRANCH  14  19
ENDBRANCH   1  17
TORSDOF 4
ENDMDL
