MODEL 1
REMARK VINA RESULT:      -7.2      0.000      0.000
REMARK  Name = 
REMARK  16 active torsions:
REMARK  status: ('A' for Active; 'I' for Inactive)
REMARK    1  A    between atoms: C_1  and  C_2
REMARK    2  A    between atoms: C_2  and  C_3
REMARK    3  A    between atoms: C_3  and  C_4
REMARK    4  A    between atoms: C_4  and  C_5
REMARK    5  A    between atoms: C_5  and  C_6
REMARK    6  A    between atoms: C_6  and  C_7
REMARK    7  A    between atoms: C_7  and  C_8
REMARK    8  A    between atoms: C_8  and  C_9
REMARK    9  A    between atoms: C_9  and  C_10
REMARK   10  A    between atoms: C_10  and  N_11
REMARK   11  A    between atoms: N_11  and  C_12
REMARK   12  A    between atoms: N_20  and  C1*_21
REMARK   13  A    between atoms: C4*_23  and  C5*_24
REMARK   14  A    between atoms: C5*_24  and  O5*_25
REMARK   15  A    between atoms: C3*_26  and  O3*_27
REMARK   16  A    between atoms: C2*_28  and  O2*_29
REMARK                            x       y       z     vdW  Elec       q    Type
REMARK                         _______ _______ _______ _____ _____    ______ ____
ROOT
ATOM      1  C   UNL     1       6.955   6.854  17.563  0.00  0.00    +0.000 A 
ATOM      2  N   UNL     1       7.823   5.834  17.815  0.00  0.00    +0.000 NA
ATOM      3  C   UNL     1       7.325   4.622  18.107  0.00  0.00    +0.000 A 
ATOM      4  N   UNL     1       6.033   4.240  18.190  0.00  0.00    +0.000 NA
ATOM      5  C   UNL     1       5.212   5.278  17.947  0.00  0.00    +0.000 A 
ATOM      6  C   UNL     1       5.580   6.576  17.633  0.00  0.00    +0.000 A 
ATOM      7  N   UNL     1       4.461   7.361  17.415  0.00  0.00    +0.000 NA
ATOM      8  C   UNL     1       3.444   6.549  17.595  0.00  0.00    +0.000 A 
ATOM      9  N   UNL     1       3.845   5.280  17.928  0.00  0.00    +0.000 N 
ENDROOT
BRANCH   9  10
ATOM     10  C1* UNL     1       2.957   4.154  18.129  0.00  0.00    +0.000 C 
ATOM     11  O4* UNL     1       1.883   4.527  19.014  0.00  0.00    +0.000 OA
ATOM     12  C4* UNL     1       1.645   3.436  19.939  0.00  0.00    +0.000 C 
ATOM     13  C3* UNL     1       2.496   2.257  19.465  0.00  0.00    +0.000 C 
ATOM     14  C2* UNL     1       3.636   2.912  18.702  0.00  0.00    +0.000 C 
BRANCH  13  15
ATOM     15  O3* UNL     1       1.777   1.412  18.547  0.00  0.00    +0.000 OA
ATOM     16  H3* UNL     1       2.314   1.278  17.744  0.00  0.00    +0.000 HD
ENDBRANCH  13  15
BRANCH  14  17
ATOM     17  O2* UNL     1       4.143   2.065  17.671  0.00  0.00    +0.000 OA
ATOM     18  H2* UNL     1       3.898   2.487  16.821  0.00  0.00    +0.000 HD
ENDBRANCH  14  17
BRANCH  12  19
ATOM     19  C5* UNL     1       1.988   3.896  21.360  0.00  0.00    +0.000 C 
BRANCH  19  20
ATOM     20  O5* UNL     1       1.822   2.820  22.281  0.00  0.00    +0.000 OA
ATOM     21  H5* UNL     1       2.053   3.174  23.162  0.00  0.00    +0.000 HD
ENDBRANCH  19  20
ENDBRANCH  12  19
ENDBRANCH   9  10
BRANCH   1  22
ATOM     22  N   UNL     1       7.428   8.133  17.276  0.00  0.00    +0.000 N 
ATOM     23  H   UNL     1       7.669   8.208  16.291  0.00  0.00    +0.000 HD
BRANCH  22  24
ATOM     24  C   UNL     1       8.385   8.679  18.222  0.00  0.00    +0.000 C 
BRANCH  24  25
ATOM     25  C   UNL     1       8.537  10.181  17.990  0.00  0.00    +0.000 C 
BRANCH  25  26
ATOM     26  C   UNL     1       9.701  10.773  18.787  0.00  0.00    +0.000 C 
BRANCH  26  27
ATOM     27  C   UNL     1      10.682  11.493  17.868  0.00  0.00    +0.000 C 
BRANCH  27  28
ATOM     28  C   UNL     1      11.838  12.087  18.668  0.00  0.00    +0.000 C 
BRANCH  28  29
ATOM     29  C   UNL     1      11.443  12.277  20.129  0.00  0.00    +0.000 C 
BRANCH  29  30
ATOM     30  C   UNL     1      10.967  13.704  20.386  0.00  0.00    +0.000 C 
BRANCH  30  31
ATOM     31  C   UNL     1      11.627  14.678  19.412  0.00  0.00    +0.000 C 
BRANCH  31  33
ATOM     32  C   UNL     1       9.299  14.885  18.497  0.00  0.00    +0.000 C 
ATOM     33  C   UNL     1      10.598  15.617  18.791  0.00  0.00    +0.000 C 
ENDBRANCH  31  33
ENDBRANCH  30  31
ENDBRANCH  29  30
ENDBRANCH  28  29
ENDBRANCH  27  28
ENDBRANCH  26  27
ENDBRANCH  25  26
ENDBRANCH  24  25
ENDBRANCH  22  24
ENDBRANCH   1  22
TORSDOF 15
ENDMDL
MODEL 2
REMARK VINA RESULT:      -7.0      1.511      1.935
REMARK  Name = 
REMARK  16 active torsions:
REMARK  status: ('A' for Active; 'I' for Inactive)
REMARK    1  A    between atoms: C_1  and  C_2
REMARK    2  A    between atoms: C_2  and  C_3
REMARK    3  A    between atoms: C_3  and  C_4
REMARK    4  A    between atoms: C_4  and  C_5
REMARK    5  A    between atoms: C_5  and  C_6
REMARK    6  A    between atoms: C_6  and  C_7
REMARK    7  A    between atoms: C_7  and  C_8
REMARK    8  A    between atoms: C_8  and  C_9
REMARK    9  A    between atoms: C_9  and  C_10
REMARK   10  A    between atoms: C_10  and  N_11
REMARK   11  A    between atoms: N_11  and  C_12
REMARK   12  A    between atoms: N_20  and  C1*_21
REMARK   13  A    between atoms: C4*_23  and  C5*_24
REMARK   14  A    between atoms: C5*_24  and  O5*_25
REMARK   15  A    between atoms: C3*_26  and  O3*_27
REMARK   16  A    between atoms: C2*_28  and  O2*_29
REMARK                            x       y       z     vdW  Elec       q    Type
REMARK                         _______ _______ _______ _____ _____    ______ ____
ROOT
ATOM      1  C   UNL     1       7.610   7.225  17.786  0.00  0.00    +0.000 A 
ATOM      2  N   UNL     1       8.264   6.739  18.878  0.00  0.00    +0.000 NA
ATOM      3  C   UNL     1       7.847   5.582  19.417  0.00  0.00    +0.000 A 
ATOM      4  N   UNL     1       6.830   4.787  19.022  0.00  0.00    +0.000 NA
ATOM      5  C   UNL     1       6.204   5.309  17.951  0.00  0.00    +0.000 A 
ATOM      6  C   UNL     1       6.522   6.485  17.291  0.00  0.00    +0.000 A 
ATOM      7  N   UNL     1       5.680   6.682  16.211  0.00  0.00    +0.000 NA
ATOM      8  C   UNL     1       4.874   5.644  16.224  0.00  0.00    +0.000 A 
ATOM      9  N   UNL     1       5.144   4.790  17.263  0.00  0.00    +0.000 N 
ENDROOT
BRANCH   9  10
ATOM     10  C1* UNL     1       4.465   3.533  17.503  0.00  0.00    +0.000 C 
ATOM     11  O4* UNL     1       3.183   3.534  16.846  0.00  0.00    +0.000 OA
ATOM     12  C4* UNL     1       2.206   2.937  17.736  0.00  0.00    +0.000 C 
ATOM     13  C3* UNL     1       2.978   2.369  18.927  0.00  0.00    +0.000 C 
ATOM     14  C2* UNL     1       4.243   3.211  18.979  0.00  0.00    +0.000 C 
BRANCH  13  15
ATOM     15  O3* UNL     1       3.367   0.999  18.710  0.00  0.00    +0.000 OA
ATOM     16  H3* UNL     1       2.981   0.440  19.410  0.00  0.00    +0.000 HD
ENDBRANCH  13  15
BRANCH  14  17
ATOM     17  O2* UNL     1       5.342   2.487  19.532  0.00  0.00    +0.000 OA
ATOM     18  H2* UNL     1       4.960   1.698  19.972  0.00  0.00    +0.000 HD
ENDBRANCH  14  17
BRANCH  12  19
ATOM     19  C5* UNL     1       1.175   3.998  18.135  0.00  0.00    +0.000 C 
BRANCH  19  20
ATOM     20  O5* UNL     1       0.844   3.870  19.516  0.00  0.00    +0.000 OA
ATOM     21  H5* UNL     1       0.040   3.316  19.556  0.00  0.00    +0.000 HD
ENDBRANCH  19  20
ENDBRANCH  12  19
ENDBRANCH   9  10
BRANCH   1  22
ATOM     22  N   UNL     1       7.996   8.432  17.207  0.00  0.00    +0.000 N 
ATOM     23  H   UNL     1       8.836   8.304  16.649  0.00  0.00    +0.000 HD
BRANCH  22  24
ATOM     24  C   UNL     1       7.969   9.590  18.084  0.00  0.00    +0.000 C 
BRANCH  24  25
ATOM     25  C   UNL     1       9.308   9.717  18.808  0.00  0.00    +0.000 C 
BRANCH  25  26
ATOM     26  C   UNL     1       9.425  11.035  19.575  0.00  0.00    +0.000 C 
BRANCH  26  27
ATOM     27  C   UNL     1      10.703  11.776  19.195  0.00  0.00    +0.000 C 
BRANCH  27  28
ATOM     28  C   UNL     1      10.789  11.967  17.684  0.00  0.00    +0.000 C 
BRANCH  28  29
ATOM     29  C   UNL     1      11.302  13.363  17.343  0.00  0.00    +0.000 C 
BRANCH  29  30
ATOM     30  C   UNL     1      10.963  14.355  18.453  0.00  0.00    +0.000 C 
BRANCH  30  31
ATOM     31  C   UNL     1      10.111  15.501  17.913  0.00  0.00    +0.000 C 
BRANCH  31  33
ATOM     32  C   UNL     1      11.436  17.567  17.389  0.00  0.00    +0.000 C 
ATOM     33  C   UNL     1      10.854  16.278  16.831  0.00  0.00    +0.000 C 
ENDBRANCH  31  33
ENDBRANCH  30  31
ENDBRANCH  29  30
ENDBRANCH  28  29
ENDBRANCH  27  28
ENDBRANCH  26  27
ENDBRANCH  25  26
ENDBRANCH  24  25
ENDBRANCH  22  24
ENDBRANCH   1  22
TORSDOF 15
ENDMDL
MODEL 3
REMARK VINA RESULT:      -7.0      1.357      1.674
REMARK  Name = 
REMARK  16 active torsions:
REMARK  status: ('A' for Active; 'I' for Inactive)
REMARK    1  A    between atoms: C_1  and  C_2
REMARK    2  A    between atoms: C_2  and  C_3
REMARK    3  A    between atoms: C_3  and  C_4
REMARK    4  A    between atoms: C_4  and  C_5
REMARK    5  A    between atoms: C_5  and  C_6
REMARK    6  A    between atoms: C_6  and  C_7
REMARK    7  A    between atoms: C_7  and  C_8
REMARK    8  A    between atoms: C_8  and  C_9
REMARK    9  A    between atoms: C_9  and  C_10
REMARK   10  A    between atoms: C_10  and  N_11
REMARK   11  A    between atoms: N_11  and  C_12
REMARK   12  A    between atoms: N_20  and  C1*_21
REMARK   13  A    between atoms: C4*_23  and  C5*_24
REMARK   14  A    between atoms: C5*_24  and  O5*_25
REMARK   15  A    between atoms: C3*_26  and  O3*_27
REMARK   16  A    between atoms: C2*_28  and  O2*_29
REMARK                            x       y       z     vdW  Elec       q    Type
REMARK                         _______ _______ _______ _____ _____    ______ ____
ROOT
ATOM      1  C   UNL     1       7.013   6.146  16.556  0.00  0.00    +0.000 A 
ATOM      2  N   UNL     1       6.950   5.620  15.301  0.00  0.00    +0.000 NA
ATOM      3  C   UNL     1       5.996   4.714  15.030  0.00  0.00    +0.000 A 
ATOM      4  N   UNL     1       5.043   4.223  15.850  0.00  0.00    +0.000 NA
ATOM      5  C   UNL     1       5.150   4.758  17.080  0.00  0.00    +0.000 A 
ATOM      6  C   UNL     1       6.076   5.698  17.503  0.00  0.00    +0.000 A 
ATOM      7  N   UNL     1       5.856   6.039  18.826  0.00  0.00    +0.000 NA
ATOM      8  C   UNL     1       4.820   5.318  19.188  0.00  0.00    +0.000 A 
ATOM      9  N   UNL     1       4.362   4.519  18.171  0.00  0.00    +0.000 N 
ENDROOT
BRANCH   9  10
ATOM     10  C1* UNL     1       3.200   3.658  18.249  0.00  0.00    +0.000 C 
ATOM     11  O4* UNL     1       2.134   4.334  18.945  0.00  0.00    +0.000 OA
ATOM     12  C4* UNL     1       1.494   3.389  19.840  0.00  0.00    +0.000 C 
ATOM     13  C3* UNL     1       2.084   2.012  19.529  0.00  0.00    +0.000 C 
ATOM     14  C2* UNL     1       3.452   2.324  18.946  0.00  0.00    +0.000 C 
BRANCH  13  15
ATOM     15  O3* UNL     1       1.322   1.317  18.524  0.00  0.00    +0.000 OA
ATOM     16  H3* UNL     1       1.506   1.710  17.650  0.00  0.00    +0.000 HD
ENDBRANCH  13  15
BRANCH  14  17
ATOM     17  O2* UNL     1       3.879   1.320  18.025  0.00  0.00    +0.000 OA
ATOM     18  H2* UNL     1       3.767   0.460  18.482  0.00  0.00    +0.000 HD
ENDBRANCH  14  17
BRANCH  12  19
ATOM     19  C5* UNL     1       1.725   3.832  21.288  0.00  0.00    +0.000 C 
BRANCH  19  20
ATOM     20  O5* UNL     1       2.242   5.161  21.321  0.00  0.00    +0.000 OA
ATOM     21  H5* UNL     1       2.552   5.312  22.235  0.00  0.00    +0.000 HD
ENDBRANCH  19  20
ENDBRANCH  12  19
ENDBRANCH   9  10
BRANCH   1  22
ATOM     22  N   UNL     1       8.000   7.073  16.888  0.00  0.00    +0.000 N 
ATOM     23  H   UNL     1       8.908   6.620  16.939  0.00  0.00    +0.000 HD
BRANCH  22  24
ATOM     24  C   UNL     1       7.668   7.989  17.965  0.00  0.00    +0.000 C 
BRANCH  24  25
ATOM     25  C   UNL     1       8.415   9.306  17.768  0.00  0.00    +0.000 C 
BRANCH  25  26
ATOM     26  C   UNL     1       9.123   9.764  19.044  0.00  0.00    +0.000 C 
BRANCH  26  27
ATOM     27  C   UNL     1       9.479  11.246  18.971  0.00  0.00    +0.000 C 
BRANCH  27  28
ATOM     28  C   UNL     1      10.974  11.457  19.191  0.00  0.00    +0.000 C 
BRANCH  28  29
ATOM     29  C   UNL     1      11.644  11.951  17.913  0.00  0.00    +0.000 C 
BRANCH  29  30
ATOM     30  C   UNL     1      11.891  13.456  17.973  0.00  0.00    +0.000 C 
BRANCH  30  31
ATOM     31  C   UNL     1      12.128  13.910  19.411  0.00  0.00    +0.000 C 
BRANCH  31  33
ATOM     32  C   UNL     1      10.469  14.719  21.113  0.00  0.00    +0.000 C 
ATOM     33  C   UNL     1      11.170  15.031  19.800  0.00  0.00    +0.000 C 
ENDBRANCH  31  33
ENDBRANCH  30  31
ENDBRANCH  29  30
ENDBRANCH  28  29
ENDBRANCH  27  28
ENDBRANCH  26  27
ENDBRANCH  25  26
ENDBRANCH  24  25
ENDBRANCH  22  24
ENDBRANCH   1  22
TORSDOF 15
ENDMDL
MODEL 4
REMARK VINA RESULT:      -6.9      6.181      9.457
REMARK  Name = 
REMARK  16 active torsions:
REMARK  status: ('A' for Active; 'I' for Inactive)
REMARK    1  A    between atoms: C_1  and  C_2
REMARK    2  A    between atoms: C_2  and  C_3
REMARK    3  A    between atoms: C_3  and  C_4
REMARK    4  A    between atoms: C_4  and  C_5
REMARK    5  A    between atoms: C_5  and  C_6
REMARK    6  A    between atoms: C_6  and  C_7
REMARK    7  A    between atoms: C_7  and  C_8
REMARK    8  A    between atoms: C_8  and  C_9
REMARK    9  A    between atoms: C_9  and  C_10
REMARK   10  A    between atoms: C_10  and  N_11
REMARK   11  A    between atoms: N_11  and  C_12
REMARK   12  A    between atoms: N_20  and  C1*_21
REMARK   13  A    between atoms: C4*_23  and  C5*_24
REMARK   14  A    between atoms: C5*_24  and  O5*_25
REMARK   15  A    between atoms: C3*_26  and  O3*_27
REMARK   16  A    between atoms: C2*_28  and  O2*_29
REMARK                            x       y       z     vdW  Elec       q    Type
REMARK                         _______ _______ _______ _____ _____    ______ ____
ROOT
ATOM      1  C   UNL     1       2.494   6.855  19.628  0.00  0.00    +0.000 A 
ATOM      2  N   UNL     1       2.921   6.922  18.336  0.00  0.00    +0.000 NA
ATOM      3  C   UNL     1       2.604   8.005  17.609  0.00  0.00    +0.000 A 
ATOM      4  N   UNL     1       1.895   9.092  17.981  0.00  0.00    +0.000 NA
ATOM      5  C   UNL     1       1.482   8.978  19.256  0.00  0.00    +0.000 A 
ATOM      6  C   UNL     1       1.733   7.927  20.124  0.00  0.00    +0.000 A 
ATOM      7  N   UNL     1       1.179   8.177  21.367  0.00  0.00    +0.000 NA
ATOM      8  C   UNL     1       0.609   9.354  21.247  0.00  0.00    +0.000 A 
ATOM      9  N   UNL     1       0.756   9.876  19.986  0.00  0.00    +0.000 N 
ENDROOT
BRANCH   9  10
ATOM     10  C1* UNL     1       0.288  11.181  19.568  0.00  0.00    +0.000 C 
ATOM     11  O4* UNL     1       0.158  12.047  20.713  0.00  0.00    +0.000 OA
ATOM     12  C4* UNL     1      -1.068  12.811  20.579  0.00  0.00    +0.000 C 
ATOM     13  C3* UNL     1      -1.616  12.530  19.179  0.00  0.00    +0.000 C 
ATOM     14  C2* UNL     1      -1.049  11.164  18.831  0.00  0.00    +0.000 C 
BRANCH  13  15
ATOM     15  O3* UNL     1      -1.121  13.474  18.210  0.00  0.00    +0.000 OA
ATOM     16  H3* UNL     1      -1.728  14.236  18.163  0.00  0.00    +0.000 HD
ENDBRANCH  13  15
BRANCH  14  17
ATOM     17  O2* UNL     1      -0.874  11.002  17.424  0.00  0.00    +0.000 OA
ATOM     18  H2* UNL     1      -0.242  11.698  17.143  0.00  0.00    +0.000 HD
ENDBRANCH  14  17
BRANCH  12  19
ATOM     19  C5* UNL     1      -2.035  12.412  21.698  0.00  0.00    +0.000 C 
BRANCH  19  20
ATOM     20  O5* UNL     1      -3.265  13.119  21.562  0.00  0.00    +0.000 OA
ATOM     21  H5* UNL     1      -3.418  13.572  22.414  0.00  0.00    +0.000 HD
ENDBRANCH  19  20
ENDBRANCH  12  19
ENDBRANCH   9  10
BRANCH   1  22
ATOM     22  N   UNL     1       2.783   5.740  20.413  0.00  0.00    +0.000 N 
ATOM     23  H   UNL     1       3.612   5.267  20.064  0.00  0.00    +0.000 HD
BRANCH  22  24
ATOM     24  C   UNL     1       1.649   4.898  20.755  0.00  0.00    +0.000 C 
BRANCH  24  25
ATOM     25  C   UNL     1       2.148   3.573  21.328  0.00  0.00    +0.000 C 
BRANCH  25  26
ATOM     26  C   UNL     1       1.602   2.370  20.556  0.00  0.00    +0.000 C 
BRANCH  26  27
ATOM     27  C   UNL     1       1.142   2.779  19.161  0.00  0.00    +0.000 C 
BRANCH  27  28
ATOM     28  C   UNL     1       2.113   2.271  18.099  0.00  0.00    +0.000 C 
BRANCH  28  29
ATOM     29  C   UNL     1       2.685   3.431  17.290  0.00  0.00    +0.000 C 
BRANCH  29  30
ATOM     30  C   UNL     1       4.185   3.580  17.535  0.00  0.00    +0.000 C 
BRANCH  30  31
ATOM     31  C   UNL     1       4.843   4.368  16.405  0.00  0.00    +0.000 C 
BRANCH  31  33
ATOM     32  C   UNL     1       6.591   5.738  17.575  0.00  0.00    +0.000 C 
ATOM     33  C   UNL     1       6.335   4.553  16.658  0.00  0.00    +0.000 C 
ENDBRANCH  31  33
ENDBRANCH  30  31
ENDBRANCH  29  30
ENDBRANCH  28  29
ENDBRANCH  27  28
ENDBRANCH  26  27
ENDBRANCH  25  26
ENDBRANCH  24  25
ENDBRANCH  22  24
ENDBRANCH   1  22
TORSDOF 15
ENDMDL
MODEL 5
REMARK VINA RESULT:      -6.9      1.458      1.757
REMARK  Name = 
REMARK  16 active torsions:
REMARK  status: ('A' for Active; 'I' for Inactive)
REMARK    1  A    between atoms: C_1  and  C_2
REMARK    2  A    between atoms: C_2  and  C_3
REMARK    3  A    between atoms: C_3  and  C_4
REMARK    4  A    between atoms: C_4  and  C_5
REMARK    5  A    between atoms: C_5  and  C_6
REMARK    6  A    between atoms: C_6  and  C_7
REMARK    7  A    between atoms: C_7  and  C_8
REMARK    8  A    between atoms: C_8  and  C_9
REMARK    9  A    between atoms: C_9  and  C_10
REMARK   10  A    between atoms: C_10  and  N_11
REMARK   11  A    between atoms: N_11  and  C_12
REMARK   12  A    between atoms: N_20  and  C1*_21
REMARK   13  A    between atoms: C4*_23  and  C5*_24
REMARK   14  A    between atoms: C5*_24  and  O5*_25
REMARK   15  A    between atoms: C3*_26  and  O3*_27
REMARK   16  A    between atoms: C2*_28  and  O2*_29
REMARK                            x       y       z     vdW  Elec       q    Type
REMARK                         _______ _______ _______ _____ _____    ______ ____
ROOT
ATOM      1  C   UNL     1       7.196   7.340  17.914  0.00  0.00    +0.000 A 
ATOM      2  N   UNL     1       8.161   6.731  18.659  0.00  0.00    +0.000 NA
ATOM      3  C   UNL     1       7.974   5.456  19.037  0.00  0.00    +0.000 A 
ATOM      4  N   UNL     1       6.927   4.645  18.778  0.00  0.00    +0.000 NA
ATOM      5  C   UNL     1       5.993   5.289  18.053  0.00  0.00    +0.000 A 
ATOM      6  C   UNL     1       6.049   6.594  17.592  0.00  0.00    +0.000 A 
ATOM      7  N   UNL     1       4.922   6.898  16.850  0.00  0.00    +0.000 NA
ATOM      8  C   UNL     1       4.205   5.797  16.866  0.00  0.00    +0.000 A 
ATOM      9  N   UNL     1       4.806   4.797  17.588  0.00  0.00    +0.000 N 
ENDROOT
BRANCH   9  10
ATOM     10  C1* UNL     1       4.287   3.453  17.737  0.00  0.00    +0.000 C 
ATOM     11  O4* UNL     1       3.003   3.348  17.091  0.00  0.00    +0.000 OA
ATOM     12  C4* UNL     1       2.120   2.572  17.941  0.00  0.00    +0.000 C 
ATOM     13  C3* UNL     1       2.976   2.014  19.080  0.00  0.00    +0.000 C 
ATOM     14  C2* UNL     1       4.131   2.996  19.185  0.00  0.00    +0.000 C 
BRANCH  13  15
ATOM     15  O3* UNL     1       3.523   0.721  18.755  0.00  0.00    +0.000 OA
ATOM     16  H3* UNL     1       4.494   0.788  18.696  0.00  0.00    +0.000 HD
ENDBRANCH  13  15
BRANCH  14  17
ATOM     17  O2* UNL     1       5.318   2.372  19.673  0.00  0.00    +0.000 OA
ATOM     18  H2* UNL     1       5.868   2.172  18.886  0.00  0.00    +0.000 HD
ENDBRANCH  14  17
BRANCH  12  19
ATOM     19  C5* UNL     1       0.976   3.466  18.428  0.00  0.00    +0.000 C 
BRANCH  19  20
ATOM     20  O5* UNL     1       0.499   3.013  19.693  0.00  0.00    +0.000 OA
ATOM     21  H5* UNL     1      -0.450   2.814  19.574  0.00  0.00    +0.000 HD
ENDBRANCH  19  20
ENDBRANCH  12  19
ENDBRANCH   9  10
BRANCH   1  22
ATOM     22  N   UNL     1       7.339   8.668  17.517  0.00  0.00    +0.000 N 
ATOM     23  H   UNL     1       6.871   8.823  16.628  0.00  0.00    +0.000 HD
BRANCH  22  24
ATOM     24  C   UNL     1       8.672   9.228  17.657  0.00  0.00    +0.000 C 
BRANCH  24  25
ATOM     25  C   UNL     1       8.615  10.472  18.542  0.00  0.00    +0.000 C 
BRANCH  25  26
ATOM     26  C   UNL     1       9.413  10.295  19.835  0.00  0.00    +0.000 C 
BRANCH  26  27
ATOM     27  C   UNL     1      10.308  11.502  20.095  0.00  0.00    +0.000 C 
BRANCH  27  28
ATOM     28  C   UNL     1       9.473  12.765  20.286  0.00  0.00    +0.000 C 
BRANCH  28  29
ATOM     29  C   UNL     1      10.334  13.908  20.814  0.00  0.00    +0.000 C 
BRANCH  29  30
ATOM     30  C   UNL     1      11.249  14.453  19.720  0.00  0.00    +0.000 C 
BRANCH  30  31
ATOM     31  C   UNL     1      10.438  14.879  18.498  0.00  0.00    +0.000 C 
BRANCH  31  33
ATOM     32  C   UNL     1      11.230  13.115  16.898  0.00  0.00    +0.000 C 
ATOM     33  C   UNL     1      11.201  14.603  17.207  0.00  0.00    +0.000 C 
ENDBRANCH  31  33
ENDBRANCH  30  31
ENDBRANCH  29  30
ENDBRANCH  28  29
ENDBRANCH  27  28
ENDBRANCH  26  27
ENDBRANCH  25  26
ENDBRANCH  24  25
ENDBRANCH  22  24
ENDBRANCH   1  22
TORSDOF 15
ENDMDL
MODEL 6
REMARK VINA RESULT:      -6.9      6.042      9.442
REMARK  Name = 
REMARK  16 active torsions:
REMARK  status: ('A' for Active; 'I' for Inactive)
REMARK    1  A    between atoms: C_1  and  C_2
REMARK    2  A    between atoms: C_2  and  C_3
REMARK    3  A    between atoms: C_3  and  C_4
REMARK    4  A    between atoms: C_4  and  C_5
REMARK    5  A    between atoms: C_5  and  C_6
REMARK    6  A    between atoms: C_6  and  C_7
REMARK    7  A    between atoms: C_7  and  C_8
REMARK    8  A    between atoms: C_8  and  C_9
REMARK    9  A    between atoms: C_9  and  C_10
REMARK   10  A    between atoms: C_10  and  N_11
REMARK   11  A    between atoms: N_11  and  C_12
REMARK   12  A    between atoms: N_20  and  C1*_21
REMARK   13  A    between atoms: C4*_23  and  C5*_24
REMARK   14  A    between atoms: C5*_24  and  O5*_25
REMARK   15  A    between atoms: C3*_26  and  O3*_27
REMARK   16  A    between atoms: C2*_28  and  O2*_29
REMARK                            x       y       z     vdW  Elec       q    Type
REMARK                         _______ _______ _______ _____ _____    ______ ____
ROOT
ATOM      1  C   UNL     1       3.048   6.976  18.479  0.00  0.00    +0.000 A 
ATOM      2  N   UNL     1       3.013   6.199  19.598  0.00  0.00    +0.000 NA
ATOM      3  C   UNL     1       2.224   6.573  20.618  0.00  0.00    +0.000 A 
ATOM      4  N   UNL     1       1.418   7.652  20.707  0.00  0.00    +0.000 NA
ATOM      5  C   UNL     1       1.493   8.397  19.589  0.00  0.00    +0.000 A 
ATOM      6  C   UNL     1       2.258   8.137  18.463  0.00  0.00    +0.000 A 
ATOM      7  N   UNL     1       2.051   9.107  17.498  0.00  0.00    +0.000 NA
ATOM      8  C   UNL     1       1.180   9.931  18.035  0.00  0.00    +0.000 A 
ATOM      9  N   UNL     1       0.819   9.551  19.303  0.00  0.00    +0.000 N 
ENDROOT
BRANCH   9  10
ATOM     10  C1* UNL     1      -0.165  10.226  20.124  0.00  0.00    +0.000 C 
ATOM     11  O4* UNL     1      -1.022  11.037  19.297  0.00  0.00    +0.000 OA
ATOM     12  C4* UNL     1      -1.248  12.303  19.967  0.00  0.00    +0.000 C 
ATOM     13  C3* UNL     1      -0.648  12.178  21.368  0.00  0.00    +0.000 C 
ATOM     14  C2* UNL     1       0.429  11.117  21.212  0.00  0.00    +0.000 C 
BRANCH  13  15
ATOM     15  O3* UNL     1      -1.612  11.694  22.323  0.00  0.00    +0.000 OA
ATOM     16  H3* UNL     1      -1.838  10.769  22.112  0.00  0.00    +0.000 HD
ENDBRANCH  13  15
BRANCH  14  17
ATOM     17  O2* UNL     1       0.645  10.396  22.425  0.00  0.00    +0.000 OA
ATOM     18  H2* UNL     1       1.300   9.696  22.217  0.00  0.00    +0.000 HD
ENDBRANCH  14  17
BRANCH  12  19
ATOM     19  C5* UNL     1      -0.621  13.429  19.139  0.00  0.00    +0.000 C 
BRANCH  19  20
ATOM     20  O5* UNL     1      -0.495  13.029  17.777  0.00  0.00    +0.000 OA
ATOM     21  H5* UNL     1       0.438  12.766  17.653  0.00  0.00    +0.000 HD
ENDBRANCH  19  20
ENDBRANCH  12  19
ENDBRANCH   9  10
BRANCH   1  22
ATOM     22  N   UNL     1       3.869   6.636  17.405  0.00  0.00    +0.000 N 
ATOM     23  H   UNL     1       3.435   5.907  16.845  0.00  0.00    +0.000 HD
BRANCH  22  24
ATOM     24  C   UNL     1       5.278   6.464  17.717  0.00  0.00    +0.000 C 
BRANCH  24  25
ATOM     25  C   UNL     1       5.522   5.043  18.220  0.00  0.00    +0.000 C 
BRANCH  25  26
ATOM     26  C   UNL     1       5.024   3.988  17.230  0.00  0.00    +0.000 C 
BRANCH  26  27
ATOM     27  C   UNL     1       3.919   3.137  17.847  0.00  0.00    +0.000 C 
BRANCH  27  28
ATOM     28  C   UNL     1       2.640   3.226  17.021  0.00  0.00    +0.000 C 
BRANCH  28  29
ATOM     29  C   UNL     1       1.473   3.701  17.880  0.00  0.00    +0.000 C 
BRANCH  29  30
ATOM     30  C   UNL     1       1.144   2.680  18.967  0.00  0.00    +0.000 C 
BRANCH  30  31
ATOM     31  C   UNL     1       0.736   3.379  20.262  0.00  0.00    +0.000 C 
BRANCH  31  33
ATOM     32  C   UNL     1       2.877   2.711  21.388  0.00  0.00    +0.000 C 
ATOM     33  C   UNL     1       1.359   2.699  21.476  0.00  0.00    +0.000 C 
ENDBRANCH  31  33
ENDBRANCH  30  31
ENDBRANCH  29  30
ENDBRANCH  28  29
ENDBRANCH  27  28
ENDBRANCH  26  27
ENDBRANCH  25  26
ENDBRANCH  24  25
ENDBRANCH  22  24
ENDBRANCH   1  22
TORSDOF 15
ENDMDL
MODEL 7
REMARK VINA RESULT:      -6.9      6.067      9.422
REMARK  Name = 
REMARK  16 active torsions:
REMARK  status: ('A' for Active; 'I' for Inactive)
REMARK    1  A    between atoms: C_1  and  C_2
REMARK    2  A    between atoms: C_2  and  C_3
REMARK    3  A    between atoms: C_3  and  C_4
REMARK    4  A    between atoms: C_4  and  C_5
REMARK    5  A    between atoms: C_5  and  C_6
REMARK    6  A    between atoms: C_6  and  C_7
REMARK    7  A    between atoms: C_7  and  C_8
REMARK    8  A    between atoms: C_8  and  C_9
REMARK    9  A    between atoms: C_9  and  C_10
REMARK   10  A    between atoms: C_10  and  N_11
REMARK   11  A    between atoms: N_11  and  C_12
REMARK   12  A    between atoms: N_20  and  C1*_21
REMARK   13  A    between atoms: C4*_23  and  C5*_24
REMARK   14  A    between atoms: C5*_24  and  O5*_25
REMARK   15  A    between atoms: C3*_26  and  O3*_27
REMARK   16  A    between atoms: C2*_28  and  O2*_29
REMARK                            x       y       z     vdW  Elec       q    Type
REMARK                         _______ _______ _______ _____ _____    ______ ____
ROOT
ATOM      1  C   UNL     1       2.141   7.080  19.949  0.00  0.00    +0.000 A 
ATOM      2  N   UNL     1       2.406   7.074  18.612  0.00  0.00    +0.000 NA
ATOM      3  C   UNL     1       2.113   8.169  17.893  0.00  0.00    +0.000 A 
ATOM      4  N   UNL     1       1.572   9.333  18.311  0.00  0.00    +0.000 NA
ATOM      5  C   UNL     1       1.314   9.291  19.631  0.00  0.00    +0.000 A 
ATOM      6  C   UNL     1       1.563   8.238  20.497  0.00  0.00    +0.000 A 
ATOM      7  N   UNL     1       1.199   8.572  21.790  0.00  0.00    +0.000 NA
ATOM      8  C   UNL     1       0.742   9.801  21.700  0.00  0.00    +0.000 A 
ATOM      9  N   UNL     1       0.782  10.277  20.414  0.00  0.00    +0.000 N 
ENDROOT
BRANCH   9  10
ATOM     10  C1* UNL     1       0.401  11.615  20.011  0.00  0.00    +0.000 C 
ATOM     11  O4* UNL     1       0.368  12.483  21.161  0.00  0.00    +0.000 OA
ATOM     12  C4* UNL     1      -0.801  13.337  21.062  0.00  0.00    +0.000 C 
ATOM     13  C3* UNL     1      -1.405  13.104  19.677  0.00  0.00    +0.000 C 
ATOM     14  C2* UNL     1      -0.952  11.701  19.311  0.00  0.00    +0.000 C 
BRANCH  13  15
ATOM     15  O3* UNL     1      -0.867  14.013  18.697  0.00  0.00    +0.000 OA
ATOM     16  H3* UNL     1      -0.157  14.542  19.105  0.00  0.00    +0.000 HD
ENDBRANCH  13  15
BRANCH  14  17
ATOM     17  O2* UNL     1      -0.827  11.533  17.899  0.00  0.00    +0.000 OA
ATOM     18  H2* UNL     1       0.132  11.578  17.699  0.00  0.00    +0.000 HD
ENDBRANCH  14  17
BRANCH  12  19
ATOM     19  C5* UNL     1      -1.765  13.006  22.206  0.00  0.00    +0.000 C 
BRANCH  19  20
ATOM     20  O5* UNL     1      -1.064  12.373  23.274  0.00  0.00    +0.000 OA
ATOM     21  H5* UNL     1      -1.744  11.962  23.844  0.00  0.00    +0.000 HD
ENDBRANCH  19  20
ENDBRANCH  12  19
ENDBRANCH   9  10
BRANCH   1  22
ATOM     22  N   UNL     1       2.410   5.958  20.731  0.00  0.00    +0.000 N 
ATOM     23  H   UNL     1       3.407   5.760  20.733  0.00  0.00    +0.000 HD
BRANCH  22  24
ATOM     24  C   UNL     1       1.523   4.825  20.534  0.00  0.00    +0.000 C 
BRANCH  24  25
ATOM     25  C   UNL     1       2.120   3.585  21.195  0.00  0.00    +0.000 C 
BRANCH  25  26
ATOM     26  C   UNL     1       2.761   2.641  20.176  0.00  0.00    +0.000 C 
BRANCH  26  27
ATOM     27  C   UNL     1       1.798   2.338  19.032  0.00  0.00    +0.000 C 
BRANCH  27  28
ATOM     28  C   UNL     1       2.294   2.956  17.728  0.00  0.00    +0.000 C 
BRANCH  28  29
ATOM     29  C   UNL     1       3.819   2.936  17.665  0.00  0.00    +0.000 C 
BRANCH  29  30
ATOM     30  C   UNL     1       4.371   4.323  17.345  0.00  0.00    +0.000 C 
BRANCH  30  31
ATOM     31  C   UNL     1       5.302   4.804  18.455  0.00  0.00    +0.000 C 
BRANCH  31  33
ATOM     32  C   UNL     1       7.584   5.823  18.693  0.00  0.00    +0.000 C 
ATOM     33  C   UNL     1       6.761   4.738  18.016  0.00  0.00    +0.000 C 
ENDBRANCH  31  33
ENDBRANCH  30  31
ENDBRANCH  29  30
ENDBRANCH  28  29
ENDBRANCH  27  28
ENDBRANCH  26  27
ENDBRANCH  25  26
ENDBRANCH  24  25
ENDBRANCH  22  24
ENDBRANCH   1  22
TORSDOF 15
ENDMDL
MODEL 8
REMARK VINA RESULT:      -6.9      5.647      8.774
REMARK  Name = 
REMARK  16 active torsions:
REMARK  status: ('A' for Active; 'I' for Inactive)
REMARK    1  A    between atoms: C_1  and  C_2
REMARK    2  A    between atoms: C_2  and  C_3
REMARK    3  A    between atoms: C_3  and  C_4
REMARK    4  A    between atoms: C_4  and  C_5
REMARK    5  A    between atoms: C_5  and  C_6
REMARK    6  A    between atoms: C_6  and  C_7
REMARK    7  A    between atoms: C_7  and  C_8
REMARK    8  A    between atoms: C_8  and  C_9
REMARK    9  A    between atoms: C_9  and  C_10
REMARK   10  A    between atoms: C_10  and  N_11
REMARK   11  A    between atoms: N_11  and  C_12
REMARK   12  A    between atoms: N_20  and  C1*_21
REMARK   13  A    between atoms: C4*_23  and  C5*_24
REMARK   14  A    between atoms: C5*_24  and  O5*_25
REMARK   15  A    between atoms: C3*_26  and  O3*_27
REMARK   16  A    between atoms: C2*_28  and  O2*_29
REMARK                            x       y       z     vdW  Elec       q    Type
REMARK                         _______ _______ _______ _____ _____    ______ ____
ROOT
ATOM      1  C   UNL     1       2.254   7.259  19.531  0.00  0.00    +0.000 A 
ATOM      2  N   UNL     1       2.378   7.520  18.200  0.00  0.00    +0.000 NA
ATOM      3  C   UNL     1       1.899   8.681  17.724  0.00  0.00    +0.000 A 
ATOM      4  N   UNL     1       1.285   9.678  18.396  0.00  0.00    +0.000 NA
ATOM      5  C   UNL     1       1.172   9.374  19.701  0.00  0.00    +0.000 A 
ATOM      6  C   UNL     1       1.618   8.223  20.332  0.00  0.00    +0.000 A 
ATOM      7  N   UNL     1       1.357   8.278  21.690  0.00  0.00    +0.000 NA
ATOM      8  C   UNL     1       0.767   9.438  21.869  0.00  0.00    +0.000 A 
ATOM      9  N   UNL     1       0.623  10.135  20.695  0.00  0.00    +0.000 N 
ENDROOT
BRANCH   9  10
ATOM     10  C1* UNL     1       0.065  11.466  20.583  0.00  0.00    +0.000 C 
ATOM     11  O4* UNL     1      -0.036  12.069  21.888  0.00  0.00    +0.000 OA
ATOM     12  C4* UNL     1      -1.304  12.767  21.978  0.00  0.00    +0.000 C 
ATOM     13  C3* UNL     1      -1.924  12.746  20.581  0.00  0.00    +0.000 C 
ATOM     14  C2* UNL     1      -1.313  11.517  19.927  0.00  0.00    +0.000 C 
BRANCH  13  15
ATOM     15  O3* UNL     1      -1.539  13.897  19.806  0.00  0.00    +0.000 OA
ATOM     16  H3* UNL     1      -1.158  14.572  20.398  0.00  0.00    +0.000 HD
ENDBRANCH  13  15
BRANCH  14  17
ATOM     17  O2* UNL     1      -1.219  11.659  18.510  0.00  0.00    +0.000 OA
ATOM     18  H2* UNL     1      -2.061  11.319  18.142  0.00  0.00    +0.000 HD
ENDBRANCH  14  17
BRANCH  12  19
ATOM     19  C5* UNL     1      -2.178  12.088  23.037  0.00  0.00    +0.000 C 
BRANCH  19  20
ATOM     20  O5* UNL     1      -3.469  12.692  23.074  0.00  0.00    +0.000 OA
ATOM     21  H5* UNL     1      -3.609  13.094  22.194  0.00  0.00    +0.000 HD
ENDBRANCH  19  20
ENDBRANCH  12  19
ENDBRANCH   9  10
BRANCH   1  22
ATOM     22  N   UNL     1       2.718   6.058  20.065  0.00  0.00    +0.000 N 
ATOM     23  H   UNL     1       2.688   6.088  21.081  0.00  0.00    +0.000 HD
BRANCH  22  24
ATOM     24  C   UNL     1       3.932   5.530  19.467  0.00  0.00    +0.000 C 
BRANCH  24  25
ATOM     25  C   UNL     1       3.939   4.007  19.581  0.00  0.00    +0.000 C 
BRANCH  25  26
ATOM     26  C   UNL     1       3.459   3.330  18.296  0.00  0.00    +0.000 C 
BRANCH  26  27
ATOM     27  C   UNL     1       3.555   4.282  17.108  0.00  0.00    +0.000 C 
BRANCH  27  28
ATOM     28  C   UNL     1       4.857   4.063  16.343  0.00  0.00    +0.000 C 
BRANCH  28  29
ATOM     29  C   UNL     1       5.490   5.397  15.959  0.00  0.00    +0.000 C 
BRANCH  29  30
ATOM     30  C   UNL     1       7.008   5.346  16.112  0.00  0.00    +0.000 C 
BRANCH  30  31
ATOM     31  C   UNL     1       7.397   4.705  17.443  0.00  0.00    +0.000 C 
BRANCH  31  33
ATOM     32  C   UNL     1       7.790   7.125  17.978  0.00  0.00    +0.000 C 
ATOM     33  C   UNL     1       7.492   5.748  18.550  0.00  0.00    +0.000 C 
ENDBRANCH  31  33
ENDBRANCH  30  31
ENDBRANCH  29  30
ENDBRANCH  28  29
ENDBRANCH  27  28
ENDBRANCH  26  27
ENDBRANCH  25  26
ENDBRANCH  24  25
ENDBRANCH  22  24
ENDBRANCH   1  22
TORSDOF 15
ENDMDL
MODEL 9
REMARK VINA RESULT:      -6.8      1.521      1.801
REMARK  Name = 
REMARK  16 active torsions:
REMARK  status: ('A' for Active; 'I' for Inactive)
REMARK    1  A    between atoms: C_1  and  C_2
REMARK    2  A    between atoms: C_2  and  C_3
REMARK    3  A    between atoms: C_3  and  C_4
REMARK    4  A    between atoms: C_4  and  C_5
REMARK    5  A    between atoms: C_5  and  C_6
REMARK    6  A    between atoms: C_6  and  C_7
REMARK    7  A    between atoms: C_7  and  C_8
REMARK    8  A    between atoms: C_8  and  C_9
REMARK    9  A    between atoms: C_9  and  C_10
REMARK   10  A    between atoms: C_10  and  N_11
REMARK   11  A    between atoms: N_11  and  C_12
REMARK   12  A    between atoms: N_20  and  C1*_21
REMARK   13  A    between atoms: C4*_23  and  C5*_24
REMARK   14  A    between atoms: C5*_24  and  O5*_25
REMARK   15  A    between atoms: C3*_26  and  O3*_27
REMARK   16  A    between atoms: C2*_28  and  O2*_29
REMARK                            x       y       z     vdW  Elec       q    Type
REMARK                         _______ _______ _______ _____ _____    ______ ____
ROOT
ATOM      1  C   UNL     1       6.906   5.957  16.301  0.00  0.00    +0.000 A 
ATOM      2  N   UNL     1       6.826   5.412  15.055  0.00  0.00    +0.000 NA
ATOM      3  C   UNL     1       5.854   4.520  14.803  0.00  0.00    +0.000 A 
ATOM      4  N   UNL     1       4.897   4.061  15.636  0.00  0.00    +0.000 NA
ATOM      5  C   UNL     1       5.020   4.613  16.856  0.00  0.00    +0.000 A 
ATOM      6  C   UNL     1       5.966   5.543  17.259  0.00  0.00    +0.000 A 
ATOM      7  N   UNL     1       5.759   5.909  18.578  0.00  0.00    +0.000 NA
ATOM      8  C   UNL     1       4.711   5.212  18.956  0.00  0.00    +0.000 A 
ATOM      9  N   UNL     1       4.233   4.406  17.954  0.00  0.00    +0.000 N 
ENDROOT
BRANCH   9  10
ATOM     10  C1* UNL     1       3.056   3.569  18.052  0.00  0.00    +0.000 C 
ATOM     11  O4* UNL     1       1.930   4.353  18.492  0.00  0.00    +0.000 OA
ATOM     12  C4* UNL     1       1.179   3.580  19.463  0.00  0.00    +0.000 C 
ATOM     13  C3* UNL     1       1.777   2.172  19.469  0.00  0.00    +0.000 C 
ATOM     14  C2* UNL     1       3.207   2.380  18.998  0.00  0.00    +0.000 C 
BRANCH  13  15
ATOM     15  O3* UNL     1       1.121   1.307  18.523  0.00  0.00    +0.000 OA
ATOM     16  H3* UNL     1       1.365   1.575  17.618  0.00  0.00    +0.000 HD
ENDBRANCH  13  15
BRANCH  14  17
ATOM     17  O2* UNL     1       3.718   1.230  18.324  0.00  0.00    +0.000 OA
ATOM     18  H2* UNL     1       4.459   1.545  17.764  0.00  0.00    +0.000 HD
ENDBRANCH  14  17
BRANCH  12  19
ATOM     19  C5* UNL     1       1.253   4.274  20.826  0.00  0.00    +0.000 C 
BRANCH  19  20
ATOM     20  O5* UNL     1       1.531   5.663  20.658  0.00  0.00    +0.000 OA
ATOM     21  H5* UNL     1       2.262   5.721  20.012  0.00  0.00    +0.000 HD
ENDBRANCH  19  20
ENDBRANCH  12  19
ENDBRANCH   9  10
BRANCH   1  22
ATOM     22  N   UNL     1       7.911   6.871  16.612  0.00  0.00    +0.000 N 
ATOM     23  H   UNL     1       8.821   6.496  16.360  0.00  0.00    +0.000 HD
BRANCH  22  24
ATOM     24  C   UNL     1       7.808   7.503  17.917  0.00  0.00    +0.000 C 
BRANCH  24  25
ATOM     25  C   UNL     1       7.974   9.014  17.770  0.00  0.00    +0.000 C 
BRANCH  25  26
ATOM     26  C   UNL     1       8.986   9.581  18.767  0.00  0.00    +0.000 C 
BRANCH  26  27
ATOM     27  C   UNL     1       9.329  11.030  18.433  0.00  0.00    +0.000 C 
BRANCH  27  28
ATOM     28  C   UNL     1      10.326  11.597  19.440  0.00  0.00    +0.000 C 
BRANCH  28  29
ATOM     29  C   UNL     1      10.221  13.117  19.508  0.00  0.00    +0.000 C 
BRANCH  29  30
ATOM     30  C   UNL     1      11.593  13.751  19.720  0.00  0.00    +0.000 C 
BRANCH  30  31
ATOM     31  C   UNL     1      12.332  13.900  18.392  0.00  0.00    +0.000 C 
BRANCH  31  33
ATOM     32  C   UNL     1      11.702  15.936  17.067  0.00  0.00    +0.000 C 
ATOM     33  C   UNL     1      11.415  14.464  17.312  0.00  0.00    +0.000 C 
ENDBRANCH  31  33
ENDBRANCH  30  31
ENDBRANCH  29  30
ENDBRANCH  28  29
ENDBRANCH  27  28
ENDBRANCH  26  27
ENDBRANCH  25  26
ENDBRANCH  24  25
ENDBRANCH  22  24
ENDBRANCH   1  22
TORSDOF 15
ENDMDL
