MODEL 1
REMARK VINA RESULT:      -8.6      0.000      0.000
REMARK  Name = 
REMARK  3 active torsions:
REMARK  status: ('A' for Active; 'I' for Inactive)
REMARK    1  A    between atoms: C_1  and  N_2
REMARK    2  A    between atoms: C_5  and  C_6
REMARK    3  A    between atoms: C_9  and  C_10
REMARK                            x       y       z     vdW  Elec       q    Type
REMARK                         _______ _______ _______ _____ _____    ______ ____
ROOT
ATOM      1  C   UNL     1       1.648   2.714  21.745  0.00  0.00    +0.000 C 
ATOM      2  N   UNL     1       2.663   3.214  20.790  0.00  0.00    +0.000 N 
ATOM      3  C   UNL     1       3.606   2.345  20.370  0.00  0.00    +0.000 A 
ATOM      4  C   UNL     1       4.598   2.729  19.493  0.00  0.00    +0.000 A 
ATOM      5  C   UNL     1       4.648   4.041  19.019  0.00  0.00    +0.000 A 
ATOM      6  C   UNL     1       3.643   4.955  19.428  0.00  0.00    +0.000 A 
ATOM      7  C   UNL     1       3.551   6.291  18.960  0.00  0.00    +0.000 A 
ATOM      8  C   UNL     1       2.544   7.160  19.380  0.00  0.00    +0.000 A 
ATOM      9  C   UNL     1       1.584   6.722  20.275  0.00  0.00    +0.000 A 
ATOM     10  C   UNL     1       1.630   5.413  20.749  0.00  0.00    +0.000 A 
ATOM     11  C   UNL     1       2.639   4.509  20.341  0.00  0.00    +0.000 A 
ENDROOT
BRANCH   5  12
ATOM     12  C   UNL     1       5.727   4.342  18.076  0.00  0.00    +0.000 A 
ATOM     13  N   UNL     1       6.942   4.767  18.356  0.00  0.00    +0.000 NA
ATOM     14  C   UNL     1       7.537   4.886  17.124  0.00  0.00    +0.000 A 
ATOM     15  C   UNL     1       6.645   4.559  16.125  0.00  0.00    +0.000 A 
ATOM     16  O   UNL     1       5.459   4.241  16.740  0.00  0.00    +0.000 OA
BRANCH  15  17
ATOM     17  C   UNL     1       6.705   4.449  14.673  0.00  0.00    +0.000 A 
ATOM     18  C   UNL     1       7.630   5.213  13.944  0.00  0.00    +0.000 A 
ATOM     19  C   UNL     1       7.737   5.078  12.556  0.00  0.00    +0.000 A 
ATOM     20  C   UNL     1       6.917   4.181  11.877  0.00  0.00    +0.000 A 
ATOM     21  C   UNL     1       5.982   3.428  12.582  0.00  0.00    +0.000 A 
ATOM     22  C   UNL     1       5.874   3.563  13.970  0.00  0.00    +0.000 A 
ENDBRANCH  15  17
ENDBRANCH   5  12
TORSDOF 2
ENDMDL
MODEL 2
REMARK VINA RESULT:      -8.4      3.393      8.019
REMARK  Name = 
REMARK  3 active torsions:
REMARK  status: ('A' for Active; 'I' for Inactive)
REMARK    1  A    between atoms: C_1  and  N_2
REMARK    2  A    between atoms: C_5  and  C_6
REMARK    3  A    between atoms: C_9  and  C_10
REMARK                            x       y       z     vdW  Elec       q    Type
REMARK                         _______ _______ _______ _____ _____    ______ ____
ROOT
ATOM      1  C   UNL     1       6.359   4.131  16.842  0.00  0.00    +0.000 C 
ATOM      2  N   UNL     1       5.281   5.086  17.184  0.00  0.00    +0.000 N 
ATOM      3  C   UNL     1       5.582   6.402  17.163  0.00  0.00    +0.000 A 
ATOM      4  C   UNL     1       4.643   7.359  17.483  0.00  0.00    +0.000 A 
ATOM      5  C   UNL     1       3.348   6.982  17.841  0.00  0.00    +0.000 A 
ATOM      6  C   UNL     1       3.011   5.604  17.835  0.00  0.00    +0.000 A 
ATOM      7  C   UNL     1       1.712   5.107  18.115  0.00  0.00    +0.000 A 
ATOM      8  C   UNL     1       1.415   3.744  18.093  0.00  0.00    +0.000 A 
ATOM      9  C   UNL     1       2.404   2.828  17.781  0.00  0.00    +0.000 A 
ATOM     10  C   UNL     1       3.690   3.275  17.487  0.00  0.00    +0.000 A 
ATOM     11  C   UNL     1       4.020   4.651  17.501  0.00  0.00    +0.000 A 
ENDROOT
BRANCH   5  12
ATOM     12  C   UNL     1       2.421   8.075  18.142  0.00  0.00    +0.000 A 
ATOM     13  N   UNL     1       1.970   8.995  17.315  0.00  0.00    +0.000 NA
ATOM     14  C   UNL     1       1.143   9.761  18.100  0.00  0.00    +0.000 A 
ATOM     15  C   UNL     1       1.145   9.296  19.398  0.00  0.00    +0.000 A 
ATOM     16  O   UNL     1       2.003   8.224  19.434  0.00  0.00    +0.000 OA
BRANCH  15  17
ATOM     17  C   UNL     1       0.453   9.651  20.630  0.00  0.00    +0.000 A 
ATOM     18  C   UNL     1       0.389   8.735  21.692  0.00  0.00    +0.000 A 
ATOM     19  C   UNL     1      -0.225   9.080  22.901  0.00  0.00    +0.000 A 
ATOM     20  C   UNL     1      -0.787  10.343  23.062  0.00  0.00    +0.000 A 
ATOM     21  C   UNL     1      -0.748  11.257  22.014  0.00  0.00    +0.000 A 
ATOM     22  C   UNL     1      -0.135  10.913  20.805  0.00  0.00    +0.000 A 
ENDBRANCH  15  17
ENDBRANCH   5  12
TORSDOF 2
ENDMDL
MODEL 3
REMARK VINA RESULT:      -8.3      0.392      1.099
REMARK  Name = 
REMARK  3 active torsions:
REMARK  status: ('A' for Active; 'I' for Inactive)
REMARK    1  A    between atoms: C_1  and  N_2
REMARK    2  A    between atoms: C_5  and  C_6
REMARK    3  A    between atoms: C_9  and  C_10
REMARK                            x       y       z     vdW  Elec       q    Type
REMARK                         _______ _______ _______ _____ _____    ______ ____
ROOT
ATOM      1  C   UNL     1       1.816   2.578  21.645  0.00  0.00    +0.000 C 
ATOM      2  N   UNL     1       2.741   3.235  20.693  0.00  0.00    +0.000 N 
ATOM      3  C   UNL     1       3.719   2.480  20.153  0.00  0.00    +0.000 A 
ATOM      4  C   UNL     1       4.635   3.013  19.270  0.00  0.00    +0.000 A 
ATOM      5  C   UNL     1       4.566   4.361  18.916  0.00  0.00    +0.000 A 
ATOM      6  C   UNL     1       3.521   5.158  19.452  0.00  0.00    +0.000 A 
ATOM      7  C   UNL     1       3.311   6.518  19.114  0.00  0.00    +0.000 A 
ATOM      8  C   UNL     1       2.268   7.269  19.657  0.00  0.00    +0.000 A 
ATOM      9  C   UNL     1       1.390   6.683  20.552  0.00  0.00    +0.000 A 
ATOM     10  C   UNL     1       1.554   5.345  20.901  0.00  0.00    +0.000 A 
ATOM     11  C   UNL     1       2.601   4.559  20.366  0.00  0.00    +0.000 A 
ENDROOT
BRANCH   5  12
ATOM     12  C   UNL     1       5.570   4.825  17.955  0.00  0.00    +0.000 A 
ATOM     13  N   UNL     1       6.583   5.636  18.182  0.00  0.00    +0.000 NA
ATOM     14  C   UNL     1       7.200   5.736  16.959  0.00  0.00    +0.000 A 
ATOM     15  C   UNL     1       6.515   5.003  16.013  0.00  0.00    +0.000 A 
ATOM     16  O   UNL     1       5.436   4.441  16.651  0.00  0.00    +0.000 OA
BRANCH  15  17
ATOM     17  C   UNL     1       6.703   4.692  14.603  0.00  0.00    +0.000 A 
ATOM     18  C   UNL     1       5.900   3.724  13.979  0.00  0.00    +0.000 A 
ATOM     19  C   UNL     1       6.032   3.453  12.613  0.00  0.00    +0.000 A 
ATOM     20  C   UNL     1       6.972   4.142  11.853  0.00  0.00    +0.000 A 
ATOM     21  C   UNL     1       7.789   5.093  12.458  0.00  0.00    +0.000 A 
ATOM     22  C   UNL     1       7.658   5.364  13.824  0.00  0.00    +0.000 A 
ENDBRANCH  15  17
ENDBRANCH   5  12
TORSDOF 2
ENDMDL
MODEL 4
REMARK VINA RESULT:      -8.3      3.358      7.938
REMARK  Name = 
REMARK  3 active torsions:
REMARK  status: ('A' for Active; 'I' for Inactive)
REMARK    1  A    between atoms: C_1  and  N_2
REMARK    2  A    between atoms: C_5  and  C_6
REMARK    3  A    between atoms: C_9  and  C_10
REMARK                            x       y       z     vdW  Elec       q    Type
REMARK                         _______ _______ _______ _____ _____    ______ ____
ROOT
ATOM      1  C   UNL     1       5.901   3.768  16.417  0.00  0.00    +0.000 C 
ATOM      2  N   UNL     1       4.925   4.786  16.869  0.00  0.00    +0.000 N 
ATOM      3  C   UNL     1       5.253   6.084  16.698  0.00  0.00    +0.000 A 
ATOM      4  C   UNL     1       4.411   7.097  17.105  0.00  0.00    +0.000 A 
ATOM      5  C   UNL     1       3.190   6.796  17.710  0.00  0.00    +0.000 A 
ATOM      6  C   UNL     1       2.820   5.435  17.865  0.00  0.00    +0.000 A 
ATOM      7  C   UNL     1       1.579   5.009  18.403  0.00  0.00    +0.000 A 
ATOM      8  C   UNL     1       1.247   3.661  18.535  0.00  0.00    +0.000 A 
ATOM      9  C   UNL     1       2.140   2.687  18.124  0.00  0.00    +0.000 A 
ATOM     10  C   UNL     1       3.366   3.063  17.579  0.00  0.00    +0.000 A 
ATOM     11  C   UNL     1       3.729   4.422  17.432  0.00  0.00    +0.000 A 
ENDROOT
BRANCH   5  12
ATOM     12  C   UNL     1       2.359   7.943  18.086  0.00  0.00    +0.000 A 
ATOM     13  N   UNL     1       1.920   8.906  17.302  0.00  0.00    +0.000 NA
ATOM     14  C   UNL     1       1.198   9.711  18.150  0.00  0.00    +0.000 A 
ATOM     15  C   UNL     1       1.251   9.223  19.438  0.00  0.00    +0.000 A 
ATOM     16  O   UNL     1       2.035   8.095  19.404  0.00  0.00    +0.000 OA
BRANCH  15  17
ATOM     17  C   UNL     1       0.664   9.599  20.717  0.00  0.00    +0.000 A 
ATOM     18  C   UNL     1      -0.226  10.682  20.794  0.00  0.00    +0.000 A 
ATOM     19  C   UNL     1      -0.840  11.021  22.004  0.00  0.00    +0.000 A 
ATOM     20  C   UNL     1      -0.570  10.286  23.154  0.00  0.00    +0.000 A 
ATOM     21  C   UNL     1       0.323   9.220  23.100  0.00  0.00    +0.000 A 
ATOM     22  C   UNL     1       0.938   8.880  21.891  0.00  0.00    +0.000 A 
ENDBRANCH  15  17
ENDBRANCH   5  12
TORSDOF 2
ENDMDL
MODEL 5
REMARK VINA RESULT:      -8.0      3.252      7.813
REMARK  Name = 
REMARK  3 active torsions:
REMARK  status: ('A' for Active; 'I' for Inactive)
REMARK    1  A    between atoms: C_1  and  N_2
REMARK    2  A    between atoms: C_5  and  C_6
REMARK    3  A    between atoms: C_9  and  C_10
REMARK                            x       y       z     vdW  Elec       q    Type
REMARK                         _______ _______ _______ _____ _____    ______ ____
ROOT
ATOM      1  C   UNL     1       3.669   1.812  18.110  0.00  0.00    +0.000 C 
ATOM      2  N   UNL     1       3.359   3.258  18.187  0.00  0.00    +0.000 N 
ATOM      3  C   UNL     1       2.388   3.642  19.042  0.00  0.00    +0.000 A 
ATOM      4  C   UNL     1       2.023   4.966  19.166  0.00  0.00    +0.000 A 
ATOM      5  C   UNL     1       2.658   5.945  18.400  0.00  0.00    +0.000 A 
ATOM      6  C   UNL     1       3.703   5.556  17.523  0.00  0.00    +0.000 A 
ATOM      7  C   UNL     1       4.464   6.467  16.747  0.00  0.00    +0.000 A 
ATOM      8  C   UNL     1       5.489   6.049  15.898  0.00  0.00    +0.000 A 
ATOM      9  C   UNL     1       5.799   4.704  15.803  0.00  0.00    +0.000 A 
ATOM     10  C   UNL     1       5.084   3.777  16.558  0.00  0.00    +0.000 A 
ATOM     11  C   UNL     1       4.040   4.172  17.426  0.00  0.00    +0.000 A 
ENDROOT
BRANCH   5  12
ATOM     12  C   UNL     1       2.213   7.323  18.622  0.00  0.00    +0.000 A 
ATOM     13  N   UNL     1       2.321   8.343  17.796  0.00  0.00    +0.000 NA
ATOM     14  C   UNL     1       1.751   9.384  18.489  0.00  0.00    +0.000 A 
ATOM     15  C   UNL     1       1.342   8.964  19.737  0.00  0.00    +0.000 A 
ATOM     16  O   UNL     1       1.675   7.636  19.838  0.00  0.00    +0.000 OA
BRANCH  15  17
ATOM     17  C   UNL     1       0.650   9.576  20.864  0.00  0.00    +0.000 A 
ATOM     18  C   UNL     1      -0.081  10.761  20.685  0.00  0.00    +0.000 A 
ATOM     19  C   UNL     1      -0.795  11.330  21.745  0.00  0.00    +0.000 A 
ATOM     20  C   UNL     1      -0.785  10.725  22.998  0.00  0.00    +0.000 A 
ATOM     21  C   UNL     1      -0.052   9.559  23.198  0.00  0.00    +0.000 A 
ATOM     22  C   UNL     1       0.663   8.989  22.139  0.00  0.00    +0.000 A 
ENDBRANCH  15  17
ENDBRANCH   5  12
TORSDOF 2
ENDMDL
MODEL 6
REMARK VINA RESULT:      -7.9      3.291      7.844
REMARK  Name = 
REMARK  3 active torsions:
REMARK  status: ('A' for Active; 'I' for Inactive)
REMARK    1  A    between atoms: C_1  and  N_2
REMARK    2  A    between atoms: C_5  and  C_6
REMARK    3  A    between atoms: C_9  and  C_10
REMARK                            x       y       z     vdW  Elec       q    Type
REMARK                         _______ _______ _______ _____ _____    ______ ____
ROOT
ATOM      1  C   UNL     1       3.567   1.881  17.965  0.00  0.00    +0.000 C 
ATOM      2  N   UNL     1       3.285   3.332  18.057  0.00  0.00    +0.000 N 
ATOM      3  C   UNL     1       2.251   3.718  18.833  0.00  0.00    +0.000 A 
ATOM      4  C   UNL     1       1.908   5.048  18.963  0.00  0.00    +0.000 A 
ATOM      5  C   UNL     1       2.632   6.030  18.286  0.00  0.00    +0.000 A 
ATOM      6  C   UNL     1       3.741   5.638  17.493  0.00  0.00    +0.000 A 
ATOM      7  C   UNL     1       4.590   6.549  16.814  0.00  0.00    +0.000 A 
ATOM      8  C   UNL     1       5.677   6.127  16.048  0.00  0.00    +0.000 A 
ATOM      9  C   UNL     1       5.962   4.778  15.940  0.00  0.00    +0.000 A 
ATOM     10  C   UNL     1       5.161   3.850  16.602  0.00  0.00    +0.000 A 
ATOM     11  C   UNL     1       4.053   4.248  17.386  0.00  0.00    +0.000 A 
ENDROOT
BRANCH   5  12
ATOM     12  C   UNL     1       2.202   7.412  18.508  0.00  0.00    +0.000 A 
ATOM     13  N   UNL     1       2.357   8.440  17.699  0.00  0.00    +0.000 NA
ATOM     14  C   UNL     1       1.778   9.482  18.383  0.00  0.00    +0.000 A 
ATOM     15  C   UNL     1       1.317   9.055  19.610  0.00  0.00    +0.000 A 
ATOM     16  O   UNL     1       1.624   7.720  19.707  0.00  0.00    +0.000 OA
BRANCH  15  17
ATOM     17  C   UNL     1       0.594   9.665  20.718  0.00  0.00    +0.000 A 
ATOM     18  C   UNL     1       0.358   8.935  21.894  0.00  0.00    +0.000 A 
ATOM     19  C   UNL     1      -0.286   9.524  22.987  0.00  0.00    +0.000 A 
ATOM     20  C   UNL     1      -0.708  10.849  22.918  0.00  0.00    +0.000 A 
ATOM     21  C   UNL     1      -0.497  11.582  21.753  0.00  0.00    +0.000 A 
ATOM     22  C   UNL     1       0.147  10.993  20.660  0.00  0.00    +0.000 A 
ENDBRANCH  15  17
ENDBRANCH   5  12
TORSDOF 2
ENDMDL
MODEL 7
REMARK VINA RESULT:      -7.9      3.411      8.128
REMARK  Name = 
REMARK  3 active torsions:
REMARK  status: ('A' for Active; 'I' for Inactive)
REMARK    1  A    between atoms: C_1  and  N_2
REMARK    2  A    between atoms: C_5  and  C_6
REMARK    3  A    between atoms: C_9  and  C_10
REMARK                            x       y       z     vdW  Elec       q    Type
REMARK                         _______ _______ _______ _____ _____    ______ ____
ROOT
ATOM      1  C   UNL     1       6.379   4.372  17.321  0.00  0.00    +0.000 C 
ATOM      2  N   UNL     1       5.264   5.289  17.650  0.00  0.00    +0.000 N 
ATOM      3  C   UNL     1       5.245   6.492  17.038  0.00  0.00    +0.000 A 
ATOM      4  C   UNL     1       4.252   7.414  17.297  0.00  0.00    +0.000 A 
ATOM      5  C   UNL     1       3.237   7.117  18.207  0.00  0.00    +0.000 A 
ATOM      6  C   UNL     1       3.229   5.843  18.831  0.00  0.00    +0.000 A 
ATOM      7  C   UNL     1       2.214   5.404  19.720  0.00  0.00    +0.000 A 
ATOM      8  C   UNL     1       2.236   4.140  20.310  0.00  0.00    +0.000 A 
ATOM      9  C   UNL     1       3.268   3.264  20.026  0.00  0.00    +0.000 A 
ATOM     10  C   UNL     1       4.277   3.651  19.147  0.00  0.00    +0.000 A 
ATOM     11  C   UNL     1       4.282   4.925  18.534  0.00  0.00    +0.000 A 
ENDROOT
BRANCH   5  12
ATOM     12  C   UNL     1       2.219   8.154  18.395  0.00  0.00    +0.000 A 
ATOM     13  N   UNL     1       1.664   8.909  17.471  0.00  0.00    +0.000 NA
ATOM     14  C   UNL     1       0.789   9.697  18.177  0.00  0.00    +0.000 A 
ATOM     15  C   UNL     1       0.867   9.414  19.524  0.00  0.00    +0.000 A 
ATOM     16  O   UNL     1       1.821   8.438  19.671  0.00  0.00    +0.000 OA
BRANCH  15  17
ATOM     17  C   UNL     1       0.175   9.868  20.724  0.00  0.00    +0.000 A 
ATOM     18  C   UNL     1       0.176   9.076  21.883  0.00  0.00    +0.000 A 
ATOM     19  C   UNL     1      -0.437   9.523  23.058  0.00  0.00    +0.000 A 
ATOM     20  C   UNL     1      -1.064  10.764  23.089  0.00  0.00    +0.000 A 
ATOM     21  C   UNL     1      -1.090  11.556  21.945  0.00  0.00    +0.000 A 
ATOM     22  C   UNL     1      -0.478  11.110  20.769  0.00  0.00    +0.000 A 
ENDBRANCH  15  17
ENDBRANCH   5  12
TORSDOF 2
ENDMDL
MODEL 8
REMARK VINA RESULT:      -7.9      3.717      7.584
REMARK  Name = 
REMARK  3 active torsions:
REMARK  status: ('A' for Active; 'I' for Inactive)
REMARK    1  A    between atoms: C_1  and  N_2
REMARK    2  A    between atoms: C_5  and  C_6
REMARK    3  A    between atoms: C_9  and  C_10
REMARK                            x       y       z     vdW  Elec       q    Type
REMARK                         _______ _______ _______ _____ _____    ______ ____
ROOT
ATOM      1  C   UNL     1       5.498   4.031  15.857  0.00  0.00    +0.000 C 
ATOM      2  N   UNL     1       4.613   4.874  16.693  0.00  0.00    +0.000 N 
ATOM      3  C   UNL     1       4.874   6.197  16.741  0.00  0.00    +0.000 A 
ATOM      4  C   UNL     1       4.111   7.053  17.507  0.00  0.00    +0.000 A 
ATOM      5  C   UNL     1       3.042   6.561  18.257  0.00  0.00    +0.000 A 
ATOM      6  C   UNL     1       2.738   5.177  18.189  0.00  0.00    +0.000 A 
ATOM      7  C   UNL     1       1.638   4.575  18.853  0.00  0.00    +0.000 A 
ATOM      8  C   UNL     1       1.366   3.210  18.757  0.00  0.00    +0.000 A 
ATOM      9  C   UNL     1       2.178   2.397  17.987  0.00  0.00    +0.000 A 
ATOM     10  C   UNL     1       3.261   2.951  17.308  0.00  0.00    +0.000 A 
ATOM     11  C   UNL     1       3.561   4.331  17.386  0.00  0.00    +0.000 A 
ENDROOT
BRANCH   5  12
ATOM     12  C   UNL     1       2.281   7.554  19.019  0.00  0.00    +0.000 A 
ATOM     13  N   UNL     1       1.952   7.507  20.293  0.00  0.00    +0.000 NA
ATOM     14  C   UNL     1       1.255   8.674  20.492  0.00  0.00    +0.000 A 
ATOM     15  C   UNL     1       1.154   9.381  19.313  0.00  0.00    +0.000 A 
ATOM     16  O   UNL     1       1.789   8.638  18.348  0.00  0.00    +0.000 OA
BRANCH  15  17
ATOM     17  C   UNL     1       0.596  10.668  18.917  0.00  0.00    +0.000 A 
ATOM     18  C   UNL     1      -0.778  10.792  18.659  0.00  0.00    +0.000 A 
ATOM     19  C   UNL     1      -1.337  12.032  18.331  0.00  0.00    +0.000 A 
ATOM     20  C   UNL     1      -0.530  13.162  18.252  0.00  0.00    +0.000 A 
ATOM     21  C   UNL     1       0.838  13.054  18.488  0.00  0.00    +0.000 A 
ATOM     22  C   UNL     1       1.398  11.815  18.815  0.00  0.00    +0.000 A 
ENDBRANCH  15  17
ENDBRANCH   5  12
TORSDOF 2
ENDMDL
MODEL 9
REMARK VINA RESULT:      -7.8      3.709      7.519
REMARK  Name = 
REMARK  3 active torsions:
REMARK  status: ('A' for Active; 'I' for Inactive)
REMARK    1  A    between atoms: C_1  and  N_2
REMARK    2  A    between atoms: C_5  and  C_6
REMARK    3  A    between atoms: C_9  and  C_10
REMARK                            x       y       z     vdW  Elec       q    Type
REMARK                         _______ _______ _______ _____ _____    ______ ____
ROOT
ATOM      1  C   UNL     1       5.437   4.032  15.912  0.00  0.00    +0.000 C 
ATOM      2  N   UNL     1       4.555   4.870  16.756  0.00  0.00    +0.000 N 
ATOM      3  C   UNL     1       4.823   6.191  16.818  0.00  0.00    +0.000 A 
ATOM      4  C   UNL     1       4.063   7.043  17.592  0.00  0.00    +0.000 A 
ATOM      5  C   UNL     1       2.991   6.548  18.336  0.00  0.00    +0.000 A 
ATOM      6  C   UNL     1       2.680   5.166  18.253  0.00  0.00    +0.000 A 
ATOM      7  C   UNL     1       1.577   4.563  18.909  0.00  0.00    +0.000 A 
ATOM      8  C   UNL     1       1.297   3.201  18.799  0.00  0.00    +0.000 A 
ATOM      9  C   UNL     1       2.106   2.392  18.021  0.00  0.00    +0.000 A 
ATOM     10  C   UNL     1       3.193   2.947  17.349  0.00  0.00    +0.000 A 
ATOM     11  C   UNL     1       3.500   4.325  17.442  0.00  0.00    +0.000 A 
ENDROOT
BRANCH   5  12
ATOM     12  C   UNL     1       2.234   7.537  19.108  0.00  0.00    +0.000 A 
ATOM     13  N   UNL     1       1.931   7.494  20.389  0.00  0.00    +0.000 NA
ATOM     14  C   UNL     1       1.225   8.654  20.595  0.00  0.00    +0.000 A 
ATOM     15  C   UNL     1       1.092   9.353  19.414  0.00  0.00    +0.000 A 
ATOM     16  O   UNL     1       1.716   8.611  18.441  0.00  0.00    +0.000 OA
BRANCH  15  17
ATOM     17  C   UNL     1       0.512  10.630  19.023  0.00  0.00    +0.000 A 
ATOM     18  C   UNL     1       1.310  11.784  18.973  0.00  0.00    +0.000 A 
ATOM     19  C   UNL     1       0.780  13.006  18.547  0.00  0.00    +0.000 A 
ATOM     20  C   UNL     1      -0.556  13.093  18.168  0.00  0.00    +0.000 A 
ATOM     21  C   UNL     1      -1.367  11.963  18.227  0.00  0.00    +0.000 A 
ATOM     22  C   UNL     1      -0.838  10.741  18.654  0.00  0.00    +0.000 A 
ENDBRANCH  15  17
ENDBRANCH   5  12
TORSDOF 2
ENDMDL
