MODEL 1
REMARK VINA RESULT:      -8.3      0.000      0.000
REMARK  Name = 
REMARK  7 active torsions:
REMARK  status: ('A' for Active; 'I' for Inactive)
REMARK    1  A    between atoms: C_1  and  N_2
REMARK    2  A    between atoms: N_5  and  C_6
REMARK    3  A    between atoms: C_9  and  C_10
REMARK    4  A    between atoms: C_12  and  C_13
REMARK    5  A    between atoms: C_16  and  S_17
REMARK    6  A    between atoms: S_17  and  C_18
REMARK    7  A    between atoms: C_23  and  C_24
REMARK                            x       y       z     vdW  Elec       q    Type
REMARK                         _______ _______ _______ _____ _____    ______ ____
ROOT
ATOM      1  C   UNL     1       0.585  11.230  18.695  0.00  0.00    +0.000 A 
ATOM      2  N   UNL     1       1.674  10.398  18.837  0.00  0.00    +0.000 N 
ATOM      3  C   UNL     1       1.339   9.121  18.459  0.00  0.00    +0.000 A 
ATOM      4  N   UNL     1       0.069   9.083  18.107  0.00  0.00    +0.000 NA
ATOM      5  C   UNL     1      -0.394  10.384  18.183  0.00  0.00    +0.000 A 
ATOM      6  H   UNL     1       2.573  10.668  19.207  0.00  0.00    +0.000 HD
ENDROOT
BRANCH   1  15
ATOM      7  C   UNL     1       0.189  17.522  20.972  0.00  0.00    +0.000 C 
ATOM      8  N   UNL     1       0.854  16.684  20.013  0.00  0.00    +0.000 N 
ATOM      9  C   UNL     1       1.895  17.090  19.154  0.00  0.00    +0.000 A 
ATOM     10  O   UNL     1       2.389  18.201  19.070  0.00  0.00    +0.000 OA
ATOM     11  N   UNL     1       2.265  15.938  18.420  0.00  0.00    +0.000 N 
ATOM     12  C   UNL     1       3.326  15.874  17.458  0.00  0.00    +0.000 C 
ATOM     13  C   UNL     1       1.483  14.858  18.841  0.00  0.00    +0.000 A 
ATOM     14  C   UNL     1       1.498  13.539  18.434  0.00  0.00    +0.000 A 
ATOM     15  C   UNL     1       0.621  12.647  19.077  0.00  0.00    +0.000 A 
ATOM     16  C   UNL     1      -0.229  13.133  20.105  0.00  0.00    +0.000 A 
ATOM     17  C   UNL     1      -0.267  14.481  20.471  0.00  0.00    +0.000 A 
ATOM     18  C   UNL     1       0.613  15.323  19.832  0.00  0.00    +0.000 A 
ENDBRANCH   1  15
BRANCH   5  19
ATOM     19  C   UNL     1      -1.746  10.748  17.777  0.00  0.00    +0.000 A 
ATOM     20  C   UNL     1      -2.631  11.301  18.714  0.00  0.00    +0.000 A 
ATOM     21  C   UNL     1      -3.917  11.691  18.327  0.00  0.00    +0.000 A 
ATOM     22  C   UNL     1      -4.314  11.536  17.002  0.00  0.00    +0.000 A 
ATOM     23  F   UNL     1      -5.540  11.925  16.629  0.00  0.00    +0.000 F 
ATOM     24  C   UNL     1      -3.460  10.981  16.062  0.00  0.00    +0.000 A 
ATOM     25  C   UNL     1      -2.190  10.559  16.457  0.00  0.00    +0.000 A 
ENDBRANCH   5  19
BRANCH   3  26
ATOM     26  C   UNL     1       2.286   8.002  18.491  0.00  0.00    +0.000 A 
ATOM     27  C   UNL     1       2.249   7.071  19.536  0.00  0.00    +0.000 A 
ATOM     28  C   UNL     1       3.177   6.022  19.598  0.00  0.00    +0.000 A 
ATOM     29  C   UNL     1       4.143   5.870  18.597  0.00  0.00    +0.000 A 
ATOM     30  C   UNL     1       4.171   6.785  17.541  0.00  0.00    +0.000 A 
ATOM     31  C   UNL     1       3.252   7.839  17.486  0.00  0.00    +0.000 A 
BRANCH  29  32
ATOM     32  S   UNL     1       5.398   4.569  18.702  0.00  0.00    +0.000 S 
ATOM     33  C   UNL     1       6.079   4.699  17.032  0.00  0.00    +0.000 C 
ATOM     34  O   UNL     1       6.501   5.076  19.700  0.00  0.00    +0.000 OA
ENDBRANCH  29  32
ENDBRANCH   3  26
TORSDOF 4
ENDMDL
MODEL 2
REMARK VINA RESULT:      -8.2      0.215      1.207
REMARK  Name = 
REMARK  7 active torsions:
REMARK  status: ('A' for Active; 'I' for Inactive)
REMARK    1  A    between atoms: C_1  and  N_2
REMARK    2  A    between atoms: N_5  and  C_6
REMARK    3  A    between atoms: C_9  and  C_10
REMARK    4  A    between atoms: C_12  and  C_13
REMARK    5  A    between atoms: C_16  and  S_17
REMARK    6  A    between atoms: S_17  and  C_18
REMARK    7  A    between atoms: C_23  and  C_24
REMARK                            x       y       z     vdW  Elec       q    Type
REMARK                         _______ _______ _______ _____ _____    ______ ____
ROOT
ATOM      1  C   UNL     1       0.544  11.348  18.790  0.00  0.00    +0.000 A 
ATOM      2  N   UNL     1       1.626  10.505  18.924  0.00  0.00    +0.000 N 
ATOM      3  C   UNL     1       1.282   9.236  18.526  0.00  0.00    +0.000 A 
ATOM      4  N   UNL     1       0.012   9.214  18.170  0.00  0.00    +0.000 NA
ATOM      5  C   UNL     1      -0.440  10.518  18.263  0.00  0.00    +0.000 A 
ATOM      6  H   UNL     1       2.526  10.762  19.300  0.00  0.00    +0.000 HD
ENDROOT
BRANCH   1  15
ATOM      7  C   UNL     1       0.220  17.602  21.182  0.00  0.00    +0.000 C 
ATOM      8  N   UNL     1       0.848  16.781  20.183  0.00  0.00    +0.000 N 
ATOM      9  C   UNL     1       1.851  17.206  19.288  0.00  0.00    +0.000 A 
ATOM     10  O   UNL     1       2.337  18.320  19.201  0.00  0.00    +0.000 OA
ATOM     11  N   UNL     1       2.194  16.067  18.521  0.00  0.00    +0.000 N 
ATOM     12  C   UNL     1       3.214  16.023  17.514  0.00  0.00    +0.000 C 
ATOM     13  C   UNL     1       1.434  14.977  18.957  0.00  0.00    +0.000 A 
ATOM     14  C   UNL     1       1.437  13.665  18.529  0.00  0.00    +0.000 A 
ATOM     15  C   UNL     1       0.591  12.759  19.193  0.00  0.00    +0.000 A 
ATOM     16  C   UNL     1      -0.217  13.225  20.263  0.00  0.00    +0.000 A 
ATOM     17  C   UNL     1      -0.245  14.567  20.651  0.00  0.00    +0.000 A 
ATOM     18  C   UNL     1       0.604  15.423  19.990  0.00  0.00    +0.000 A 
ENDBRANCH   1  15
BRANCH   5  19
ATOM     19  C   UNL     1      -1.787  10.898  17.858  0.00  0.00    +0.000 A 
ATOM     20  C   UNL     1      -2.200  10.699  16.533  0.00  0.00    +0.000 A 
ATOM     21  C   UNL     1      -3.504  11.023  16.142  0.00  0.00    +0.000 A 
ATOM     22  C   UNL     1      -4.396  11.535  17.078  0.00  0.00    +0.000 A 
ATOM     23  F   UNL     1      -5.649  11.830  16.707  0.00  0.00    +0.000 F 
ATOM     24  C   UNL     1      -4.005  11.752  18.391  0.00  0.00    +0.000 A 
ATOM     25  C   UNL     1      -2.695  11.462  18.771  0.00  0.00    +0.000 A 
ENDBRANCH   5  19
BRANCH   3  26
ATOM     26  C   UNL     1       2.219   8.109  18.544  0.00  0.00    +0.000 A 
ATOM     27  C   UNL     1       3.156   7.948  17.516  0.00  0.00    +0.000 A 
ATOM     28  C   UNL     1       4.029   6.851  17.502  0.00  0.00    +0.000 A 
ATOM     29  C   UNL     1       3.997   5.908  18.536  0.00  0.00    +0.000 A 
ATOM     30  C   UNL     1       3.076   6.074  19.574  0.00  0.00    +0.000 A 
ATOM     31  C   UNL     1       2.198   7.164  19.580  0.00  0.00    +0.000 A 
BRANCH  29  32
ATOM     32  S   UNL     1       5.060   4.443  18.494  0.00  0.00    +0.000 S 
ATOM     33  C   UNL     1       5.614   4.547  16.776  0.00  0.00    +0.000 C 
ATOM     34  O   UNL     1       6.301   4.751  19.408  0.00  0.00    +0.000 OA
ENDBRANCH  29  32
ENDBRANCH   3  26
TORSDOF 4
ENDMDL
MODEL 3
REMARK VINA RESULT:      -8.1      3.109      5.421
REMARK  Name = 
REMARK  7 active torsions:
REMARK  status: ('A' for Active; 'I' for Inactive)
REMARK    1  A    between atoms: C_1  and  N_2
REMARK    2  A    between atoms: N_5  and  C_6
REMARK    3  A    between atoms: C_9  and  C_10
REMARK    4  A    between atoms: C_12  and  C_13
REMARK    5  A    between atoms: C_16  and  S_17
REMARK    6  A    between atoms: S_17  and  C_18
REMARK    7  A    between atoms: C_23  and  C_24
REMARK                            x       y       z     vdW  Elec       q    Type
REMARK                         _______ _______ _______ _____ _____    ______ ____
ROOT
ATOM      1  C   UNL     1      -0.216  10.832  18.521  0.00  0.00    +0.000 A 
ATOM      2  N   UNL     1       0.185   9.514  18.543  0.00  0.00    +0.000 N 
ATOM      3  C   UNL     1       1.557   9.443  18.557  0.00  0.00    +0.000 A 
ATOM      4  N   UNL     1       2.062  10.659  18.511  0.00  0.00    +0.000 NA
ATOM      5  C   UNL     1       0.988  11.529  18.555  0.00  0.00    +0.000 A 
ATOM      6  H   UNL     1      -0.429   8.714  18.508  0.00  0.00    +0.000 HD
ENDROOT
BRANCH   1  15
ATOM      7  C   UNL     1      -6.642  12.384  17.412  0.00  0.00    +0.000 C 
ATOM      8  N   UNL     1      -5.609  12.399  18.410  0.00  0.00    +0.000 N 
ATOM      9  C   UNL     1      -5.777  12.784  19.756  0.00  0.00    +0.000 A 
ATOM     10  O   UNL     1      -6.802  13.174  20.287  0.00  0.00    +0.000 OA
ATOM     11  N   UNL     1      -4.515  12.607  20.371  0.00  0.00    +0.000 N 
ATOM     12  C   UNL     1      -4.232  12.830  21.760  0.00  0.00    +0.000 C 
ATOM     13  C   UNL     1      -3.614  12.106  19.428  0.00  0.00    +0.000 A 
ATOM     14  C   UNL     1      -2.285  11.758  19.567  0.00  0.00    +0.000 A 
ATOM     15  C   UNL     1      -1.629  11.224  18.443  0.00  0.00    +0.000 A 
ATOM     16  C   UNL     1      -2.350  11.066  17.231  0.00  0.00    +0.000 A 
ATOM     17  C   UNL     1      -3.681  11.470  17.093  0.00  0.00    +0.000 A 
ATOM     18  C   UNL     1      -4.296  11.975  18.215  0.00  0.00    +0.000 A 
ENDBRANCH   1  15
BRANCH   5  19
ATOM     19  C   UNL     1       1.166  12.974  18.614  0.00  0.00    +0.000 A 
ATOM     20  C   UNL     1       2.387  13.543  18.223  0.00  0.00    +0.000 A 
ATOM     21  C   UNL     1       2.556  14.932  18.236  0.00  0.00    +0.000 A 
ATOM     22  C   UNL     1       1.503  15.750  18.631  0.00  0.00    +0.000 A 
ATOM     23  F   UNL     1       1.661  17.080  18.629  0.00  0.00    +0.000 F 
ATOM     24  C   UNL     1       0.291  15.208  19.034  0.00  0.00    +0.000 A 
ATOM     25  C   UNL     1       0.135  13.822  19.054  0.00  0.00    +0.000 A 
ENDBRANCH   5  19
BRANCH   3  26
ATOM     26  C   UNL     1       2.292   8.175  18.587  0.00  0.00    +0.000 A 
ATOM     27  C   UNL     1       3.178   7.844  17.554  0.00  0.00    +0.000 A 
ATOM     28  C   UNL     1       3.855   6.616  17.552  0.00  0.00    +0.000 A 
ATOM     29  C   UNL     1       3.677   5.707  18.602  0.00  0.00    +0.000 A 
ATOM     30  C   UNL     1       2.809   6.042  19.644  0.00  0.00    +0.000 A 
ATOM     31  C   UNL     1       2.125   7.263  19.639  0.00  0.00    +0.000 A 
BRANCH  29  32
ATOM     32  S   UNL     1       4.481   4.085  18.577  0.00  0.00    +0.000 S 
ATOM     33  C   UNL     1       4.840   3.977  16.808  0.00  0.00    +0.000 C 
ATOM     34  O   UNL     1       5.853   4.242  19.327  0.00  0.00    +0.000 OA
ENDBRANCH  29  32
ENDBRANCH   3  26
TORSDOF 4
ENDMDL
MODEL 4
REMARK VINA RESULT:      -8.0      3.268      5.261
REMARK  Name = 
REMARK  7 active torsions:
REMARK  status: ('A' for Active; 'I' for Inactive)
REMARK    1  A    between atoms: C_1  and  N_2
REMARK    2  A    between atoms: N_5  and  C_6
REMARK    3  A    between atoms: C_9  and  C_10
REMARK    4  A    between atoms: C_12  and  C_13
REMARK    5  A    between atoms: C_16  and  S_17
REMARK    6  A    between atoms: S_17  and  C_18
REMARK    7  A    between atoms: C_23  and  C_24
REMARK                            x       y       z     vdW  Elec       q    Type
REMARK                         _______ _______ _______ _____ _____    ______ ____
ROOT
ATOM      1  C   UNL     1      -0.066  11.120  19.259  0.00  0.00    +0.000 A 
ATOM      2  N   UNL     1       0.247   9.779  19.304  0.00  0.00    +0.000 N 
ATOM      3  C   UNL     1       1.539   9.585  18.880  0.00  0.00    +0.000 A 
ATOM      4  N   UNL     1       2.067  10.742  18.531  0.00  0.00    +0.000 NA
ATOM      5  C   UNL     1       1.117  11.705  18.820  0.00  0.00    +0.000 A 
ATOM      6  H   UNL     1      -0.387   9.038  19.564  0.00  0.00    +0.000 HD
ENDROOT
BRANCH   1  15
ATOM      7  C   UNL     1      -5.850  13.648  21.513  0.00  0.00    +0.000 C 
ATOM      8  N   UNL     1      -5.237  13.001  20.387  0.00  0.00    +0.000 N 
ATOM      9  C   UNL     1      -5.864  12.743  19.150  0.00  0.00    +0.000 A 
ATOM     10  O   UNL     1      -7.012  13.008  18.838  0.00  0.00    +0.000 OA
ATOM     11  N   UNL     1      -4.881  12.131  18.337  0.00  0.00    +0.000 N 
ATOM     12  C   UNL     1      -5.064  11.740  16.969  0.00  0.00    +0.000 C 
ATOM     13  C   UNL     1      -3.685  12.041  19.055  0.00  0.00    +0.000 A 
ATOM     14  C   UNL     1      -2.455  11.543  18.674  0.00  0.00    +0.000 A 
ATOM     15  C   UNL     1      -1.400  11.629  19.599  0.00  0.00    +0.000 A 
ATOM     16  C   UNL     1      -1.639  12.218  20.869  0.00  0.00    +0.000 A 
ATOM     17  C   UNL     1      -2.903  12.672  21.258  0.00  0.00    +0.000 A 
ATOM     18  C   UNL     1      -3.909  12.585  20.324  0.00  0.00    +0.000 A 
ENDBRANCH   1  15
BRANCH   5  19
ATOM     19  C   UNL     1       1.384  13.128  18.648  0.00  0.00    +0.000 A 
ATOM     20  C   UNL     1       0.394  14.068  18.970  0.00  0.00    +0.000 A 
ATOM     21  C   UNL     1       0.652  15.437  18.848  0.00  0.00    +0.000 A 
ATOM     22  C   UNL     1       1.902  15.866  18.413  0.00  0.00    +0.000 A 
ATOM     23  F   UNL     1       2.154  17.177  18.312  0.00  0.00    +0.000 F 
ATOM     24  C   UNL     1       2.891  14.954  18.078  0.00  0.00    +0.000 A 
ATOM     25  C   UNL     1       2.621  13.588  18.166  0.00  0.00    +0.000 A 
ENDBRANCH   5  19
BRANCH   3  26
ATOM     26  C   UNL     1       2.172   8.265  18.818  0.00  0.00    +0.000 A 
ATOM     27  C   UNL     1       2.921   7.889  17.695  0.00  0.00    +0.000 A 
ATOM     28  C   UNL     1       3.495   6.613  17.608  0.00  0.00    +0.000 A 
ATOM     29  C   UNL     1       3.353   5.698  18.658  0.00  0.00    +0.000 A 
ATOM     30  C   UNL     1       2.623   6.076  19.788  0.00  0.00    +0.000 A 
ATOM     31  C   UNL     1       2.040   7.346  19.869  0.00  0.00    +0.000 A 
BRANCH  29  32
ATOM     32  S   UNL     1       4.020   4.020  18.529  0.00  0.00    +0.000 S 
ATOM     33  C   UNL     1       4.474   4.031  16.779  0.00  0.00    +0.000 C 
ATOM     34  O   UNL     1       5.353   3.991  19.361  0.00  0.00    +0.000 OA
ENDBRANCH  29  32
ENDBRANCH   3  26
TORSDOF 4
ENDMDL
MODEL 5
REMARK VINA RESULT:      -8.0      3.448      5.372
REMARK  Name = 
REMARK  7 active torsions:
REMARK  status: ('A' for Active; 'I' for Inactive)
REMARK    1  A    between atoms: C_1  and  N_2
REMARK    2  A    between atoms: N_5  and  C_6
REMARK    3  A    between atoms: C_9  and  C_10
REMARK    4  A    between atoms: C_12  and  C_13
REMARK    5  A    between atoms: C_16  and  S_17
REMARK    6  A    between atoms: S_17  and  C_18
REMARK    7  A    between atoms: C_23  and  C_24
REMARK                            x       y       z     vdW  Elec       q    Type
REMARK                         _______ _______ _______ _____ _____    ______ ____
ROOT
ATOM      1  C   UNL     1      -0.551  11.453  19.508  0.00  0.00    +0.000 A 
ATOM      2  N   UNL     1      -0.183  10.126  19.527  0.00  0.00    +0.000 N 
ATOM      3  C   UNL     1       1.120   9.996  19.111  0.00  0.00    +0.000 A 
ATOM      4  N   UNL     1       1.601  11.182  18.792  0.00  0.00    +0.000 NA
ATOM      5  C   UNL     1       0.610  12.097  19.092  0.00  0.00    +0.000 A 
ATOM      6  H   UNL     1      -0.786   9.353  19.765  0.00  0.00    +0.000 HD
ENDROOT
BRANCH   1  15
ATOM      7  C   UNL     1      -6.462  13.661  21.770  0.00  0.00    +0.000 C 
ATOM      8  N   UNL     1      -5.806  13.095  20.625  0.00  0.00    +0.000 N 
ATOM      9  C   UNL     1      -6.400  12.880  19.364  0.00  0.00    +0.000 A 
ATOM     10  O   UNL     1      -7.550  13.122  19.042  0.00  0.00    +0.000 OA
ATOM     11  N   UNL     1      -5.381  12.345  18.541  0.00  0.00    +0.000 N 
ATOM     12  C   UNL     1      -5.525  12.020  17.151  0.00  0.00    +0.000 C 
ATOM     13  C   UNL     1      -4.196  12.259  19.278  0.00  0.00    +0.000 A 
ATOM     14  C   UNL     1      -2.943  11.824  18.896  0.00  0.00    +0.000 A 
ATOM     15  C   UNL     1      -1.909  11.898  19.846  0.00  0.00    +0.000 A 
ATOM     16  C   UNL     1      -2.192  12.412  21.139  0.00  0.00    +0.000 A 
ATOM     17  C   UNL     1      -3.478  12.801  21.525  0.00  0.00    +0.000 A 
ATOM     18  C   UNL     1      -4.462  12.729  20.567  0.00  0.00    +0.000 A 
ENDBRANCH   1  15
BRANCH   5  19
ATOM     19  C   UNL     1       0.817  13.534  18.953  0.00  0.00    +0.000 A 
ATOM     20  C   UNL     1       2.119  14.055  18.963  0.00  0.00    +0.000 A 
ATOM     21  C   UNL     1       2.333  15.426  18.790  0.00  0.00    +0.000 A 
ATOM     22  C   UNL     1       1.247  16.273  18.597  0.00  0.00    +0.000 A 
ATOM     23  F   UNL     1       1.454  17.584  18.416  0.00  0.00    +0.000 F 
ATOM     24  C   UNL     1      -0.049  15.782  18.596  0.00  0.00    +0.000 A 
ATOM     25  C   UNL     1      -0.264  14.419  18.804  0.00  0.00    +0.000 A 
ENDBRANCH   5  19
BRANCH   3  26
ATOM     26  C   UNL     1       1.809   8.705  19.027  0.00  0.00    +0.000 A 
ATOM     27  C   UNL     1       1.719   7.783  20.077  0.00  0.00    +0.000 A 
ATOM     28  C   UNL     1       2.409   6.563  20.024  0.00  0.00    +0.000 A 
ATOM     29  C   UNL     1       3.180   6.233  18.903  0.00  0.00    +0.000 A 
ATOM     30  C   UNL     1       3.258   7.142  17.845  0.00  0.00    +0.000 A 
ATOM     31  C   UNL     1       2.579   8.365  17.904  0.00  0.00    +0.000 A 
BRANCH  29  32
ATOM     32  S   UNL     1       4.141   4.698  18.852  0.00  0.00    +0.000 S 
ATOM     33  C   UNL     1       4.091   4.396  17.070  0.00  0.00    +0.000 C 
ATOM     34  O   UNL     1       5.621   5.072  19.225  0.00  0.00    +0.000 OA
ENDBRANCH  29  32
ENDBRANCH   3  26
TORSDOF 4
ENDMDL
MODEL 6
REMARK VINA RESULT:      -8.0      3.894      5.746
REMARK  Name = 
REMARK  7 active torsions:
REMARK  status: ('A' for Active; 'I' for Inactive)
REMARK    1  A    between atoms: C_1  and  N_2
REMARK    2  A    between atoms: N_5  and  C_6
REMARK    3  A    between atoms: C_9  and  C_10
REMARK    4  A    between atoms: C_12  and  C_13
REMARK    5  A    between atoms: C_16  and  S_17
REMARK    6  A    between atoms: S_17  and  C_18
REMARK    7  A    between atoms: C_23  and  C_24
REMARK                            x       y       z     vdW  Elec       q    Type
REMARK                         _______ _______ _______ _____ _____    ______ ____
ROOT
ATOM      1  C   UNL     1      -1.003  11.823  19.972  0.00  0.00    +0.000 A 
ATOM      2  N   UNL     1      -0.593  10.518  19.799  0.00  0.00    +0.000 N 
ATOM      3  C   UNL     1       0.711  10.491  19.369  0.00  0.00    +0.000 A 
ATOM      4  N   UNL     1       1.154  11.724  19.224  0.00  0.00    +0.000 NA
ATOM      5  C   UNL     1       0.136  12.556  19.653  0.00  0.00    +0.000 A 
ATOM      6  H   UNL     1      -1.171   9.701  19.923  0.00  0.00    +0.000 HD
ENDROOT
BRANCH   1  15
ATOM      7  C   UNL     1      -7.442  13.356  21.025  0.00  0.00    +0.000 C 
ATOM      8  N   UNL     1      -6.177  13.181  21.683  0.00  0.00    +0.000 N 
ATOM      9  C   UNL     1      -5.963  13.246  23.075  0.00  0.00    +0.000 A 
ATOM     10  O   UNL     1      -6.795  13.469  23.938  0.00  0.00    +0.000 OA
ATOM     11  N   UNL     1      -4.587  12.979  23.269  0.00  0.00    +0.000 N 
ATOM     12  C   UNL     1      -3.932  12.892  24.542  0.00  0.00    +0.000 C 
ATOM     13  C   UNL     1      -3.990  12.737  22.029  0.00  0.00    +0.000 A 
ATOM     14  C   UNL     1      -2.684  12.414  21.720  0.00  0.00    +0.000 A 
ATOM     15  C   UNL     1      -2.372  12.171  20.370  0.00  0.00    +0.000 A 
ATOM     16  C   UNL     1      -3.399  12.266  19.395  0.00  0.00    +0.000 A 
ATOM     17  C   UNL     1      -4.706  12.644  19.718  0.00  0.00    +0.000 A 
ATOM     18  C   UNL     1      -4.979  12.859  21.048  0.00  0.00    +0.000 A 
ENDBRANCH   1  15
BRANCH   5  19
ATOM     19  C   UNL     1       0.299  14.003  19.724  0.00  0.00    +0.000 A 
ATOM     20  C   UNL     1       1.101  14.567  20.726  0.00  0.00    +0.000 A 
ATOM     21  C   UNL     1       1.297  15.951  20.779  0.00  0.00    +0.000 A 
ATOM     22  C   UNL     1       0.700  16.768  19.825  0.00  0.00    +0.000 A 
ATOM     23  F   UNL     1       0.901  18.091  19.867  0.00  0.00    +0.000 F 
ATOM     24  C   UNL     1      -0.107  16.233  18.832  0.00  0.00    +0.000 A 
ATOM     25  C   UNL     1      -0.331  14.856  18.802  0.00  0.00    +0.000 A 
ENDBRANCH   5  19
BRANCH   3  26
ATOM     26  C   UNL     1       1.440   9.248  19.099  0.00  0.00    +0.000 A 
ATOM     27  C   UNL     1       1.528   8.250  20.078  0.00  0.00    +0.000 A 
ATOM     28  C   UNL     1       2.258   7.076  19.845  0.00  0.00    +0.000 A 
ATOM     29  C   UNL     1       2.890   6.867  18.614  0.00  0.00    +0.000 A 
ATOM     30  C   UNL     1       2.789   7.851  17.627  0.00  0.00    +0.000 A 
ATOM     31  C   UNL     1       2.070   9.028  17.865  0.00  0.00    +0.000 A 
BRANCH  29  32
ATOM     32  S   UNL     1       3.902   5.393  18.324  0.00  0.00    +0.000 S 
ATOM     33  C   UNL     1       4.747   5.925  16.817  0.00  0.00    +0.000 C 
ATOM     34  O   UNL     1       4.974   5.341  19.471  0.00  0.00    +0.000 OA
ENDBRANCH  29  32
ENDBRANCH   3  26
TORSDOF 4
ENDMDL
MODEL 7
REMARK VINA RESULT:      -7.9      3.903      5.827
REMARK  Name = 
REMARK  7 active torsions:
REMARK  status: ('A' for Active; 'I' for Inactive)
REMARK    1  A    between atoms: C_1  and  N_2
REMARK    2  A    between atoms: N_5  and  C_6
REMARK    3  A    between atoms: C_9  and  C_10
REMARK    4  A    between atoms: C_12  and  C_13
REMARK    5  A    between atoms: C_16  and  S_17
REMARK    6  A    between atoms: S_17  and  C_18
REMARK    7  A    between atoms: C_23  and  C_24
REMARK                            x       y       z     vdW  Elec       q    Type
REMARK                         _______ _______ _______ _____ _____    ______ ____
ROOT
ATOM      1  C   UNL     1      -0.934  11.738  19.926  0.00  0.00    +0.000 A 
ATOM      2  N   UNL     1      -0.522  10.432  19.772  0.00  0.00    +0.000 N 
ATOM      3  C   UNL     1       0.782  10.401  19.341  0.00  0.00    +0.000 A 
ATOM      4  N   UNL     1       1.223  11.634  19.178  0.00  0.00    +0.000 NA
ATOM      5  C   UNL     1       0.203  12.469  19.596  0.00  0.00    +0.000 A 
ATOM      6  H   UNL     1      -1.098   9.616  19.909  0.00  0.00    +0.000 HD
ENDROOT
BRANCH   1  15
ATOM      7  C   UNL     1      -7.373  13.285  20.963  0.00  0.00    +0.000 C 
ATOM      8  N   UNL     1      -6.110  13.107  21.624  0.00  0.00    +0.000 N 
ATOM      9  C   UNL     1      -5.900  13.172  23.017  0.00  0.00    +0.000 A 
ATOM     10  O   UNL     1      -6.732  13.396  23.878  0.00  0.00    +0.000 OA
ATOM     11  N   UNL     1      -4.524  12.902  23.214  0.00  0.00    +0.000 N 
ATOM     12  C   UNL     1      -3.872  12.814  24.489  0.00  0.00    +0.000 C 
ATOM     13  C   UNL     1      -3.924  12.658  21.975  0.00  0.00    +0.000 A 
ATOM     14  C   UNL     1      -2.618  12.333  21.670  0.00  0.00    +0.000 A 
ATOM     15  C   UNL     1      -2.303  12.090  20.321  0.00  0.00    +0.000 A 
ATOM     16  C   UNL     1      -3.328  12.186  19.344  0.00  0.00    +0.000 A 
ATOM     17  C   UNL     1      -4.635  12.566  19.663  0.00  0.00    +0.000 A 
ATOM     18  C   UNL     1      -4.911  12.783  20.993  0.00  0.00    +0.000 A 
ENDBRANCH   1  15
BRANCH   5  19
ATOM     19  C   UNL     1       0.362  13.917  19.645  0.00  0.00    +0.000 A 
ATOM     20  C   UNL     1      -0.239  14.719  18.664  0.00  0.00    +0.000 A 
ATOM     21  C   UNL     1      -0.127  16.112  18.723  0.00  0.00    +0.000 A 
ATOM     22  C   UNL     1       0.577  16.702  19.767  0.00  0.00    +0.000 A 
ATOM     23  F   UNL     1       0.670  18.037  19.832  0.00  0.00    +0.000 F 
ATOM     24  C   UNL     1       1.190  15.928  20.741  0.00  0.00    +0.000 A 
ATOM     25  C   UNL     1       1.108  14.538  20.661  0.00  0.00    +0.000 A 
ENDBRANCH   5  19
BRANCH   3  26
ATOM     26  C   UNL     1       1.513   9.156  19.089  0.00  0.00    +0.000 A 
ATOM     27  C   UNL     1       2.141   8.939  17.855  0.00  0.00    +0.000 A 
ATOM     28  C   UNL     1       2.807   7.734  17.589  0.00  0.00    +0.000 A 
ATOM     29  C   UNL     1       2.879   6.734  18.565  0.00  0.00    +0.000 A 
ATOM     30  C   UNL     1       2.271   6.954  19.804  0.00  0.00    +0.000 A 
ATOM     31  C   UNL     1       1.597   8.152  20.065  0.00  0.00    +0.000 A 
BRANCH  29  32
ATOM     32  S   UNL     1       3.666   5.141  18.211  0.00  0.00    +0.000 S 
ATOM     33  C   UNL     1       5.136   5.318  19.247  0.00  0.00    +0.000 C 
ATOM     34  O   UNL     1       2.763   4.031  18.860  0.00  0.00    +0.000 OA
ENDBRANCH  29  32
ENDBRANCH   3  26
TORSDOF 4
ENDMDL
MODEL 8
REMARK VINA RESULT:      -7.9      3.413      5.544
REMARK  Name = 
REMARK  7 active torsions:
REMARK  status: ('A' for Active; 'I' for Inactive)
REMARK    1  A    between atoms: C_1  and  N_2
REMARK    2  A    between atoms: N_5  and  C_6
REMARK    3  A    between atoms: C_9  and  C_10
REMARK    4  A    between atoms: C_12  and  C_13
REMARK    5  A    between atoms: C_16  and  S_17
REMARK    6  A    between atoms: S_17  and  C_18
REMARK    7  A    between atoms: C_23  and  C_24
REMARK                            x       y       z     vdW  Elec       q    Type
REMARK                         _______ _______ _______ _____ _____    ______ ____
ROOT
ATOM      1  C   UNL     1      -0.891  11.308  19.115  0.00  0.00    +0.000 A 
ATOM      2  N   UNL     1      -0.444  10.007  19.025  0.00  0.00    +0.000 N 
ATOM      3  C   UNL     1       0.929   9.983  19.044  0.00  0.00    +0.000 A 
ATOM      4  N   UNL     1       1.392  11.215  19.111  0.00  0.00    +0.000 NA
ATOM      5  C   UNL     1       0.287  12.040  19.222  0.00  0.00    +0.000 A 
ATOM      6  H   UNL     1      -1.029   9.193  18.914  0.00  0.00    +0.000 HD
ENDROOT
BRANCH   1  15
ATOM      7  C   UNL     1      -7.413  12.526  18.163  0.00  0.00    +0.000 C 
ATOM      8  N   UNL     1      -6.322  12.740  19.073  0.00  0.00    +0.000 N 
ATOM      9  C   UNL     1      -6.419  13.362  20.334  0.00  0.00    +0.000 A 
ATOM     10  O   UNL     1      -7.420  13.826  20.851  0.00  0.00    +0.000 OA
ATOM     11  N   UNL     1      -5.117  13.321  20.888  0.00  0.00    +0.000 N 
ATOM     12  C   UNL     1      -4.756  13.798  22.192  0.00  0.00    +0.000 C 
ATOM     13  C   UNL     1      -4.261  12.670  19.995  0.00  0.00    +0.000 A 
ATOM     14  C   UNL     1      -2.917  12.375  20.108  0.00  0.00    +0.000 A 
ATOM     15  C   UNL     1      -2.316  11.656  19.060  0.00  0.00    +0.000 A 
ATOM     16  C   UNL     1      -3.105  11.267  17.946  0.00  0.00    +0.000 A 
ATOM     17  C   UNL     1      -4.453  11.617  17.823  0.00  0.00    +0.000 A 
ATOM     18  C   UNL     1      -5.012  12.309  18.872  0.00  0.00    +0.000 A 
ENDBRANCH   1  15
BRANCH   5  19
ATOM     19  C   UNL     1       0.414  13.480  19.409  0.00  0.00    +0.000 A 
ATOM     20  C   UNL     1      -0.191  14.358  18.499  0.00  0.00    +0.000 A 
ATOM     21  C   UNL     1      -0.111  15.742  18.691  0.00  0.00    +0.000 A 
ATOM     22  C   UNL     1       0.566  16.245  19.797  0.00  0.00    +0.000 A 
ATOM     23  F   UNL     1       0.629  17.569  19.989  0.00  0.00    +0.000 F 
ATOM     24  C   UNL     1       1.183  15.395  20.703  0.00  0.00    +0.000 A 
ATOM     25  C   UNL     1       1.132  14.017  20.491  0.00  0.00    +0.000 A 
ENDBRANCH   5  19
BRANCH   3  26
ATOM     26  C   UNL     1       1.709   8.744  18.969  0.00  0.00    +0.000 A 
ATOM     27  C   UNL     1       1.683   7.823  20.025  0.00  0.00    +0.000 A 
ATOM     28  C   UNL     1       2.457   6.655  19.981  0.00  0.00    +0.000 A 
ATOM     29  C   UNL     1       3.253   6.375  18.864  0.00  0.00    +0.000 A 
ATOM     30  C   UNL     1       3.269   7.281  17.801  0.00  0.00    +0.000 A 
ATOM     31  C   UNL     1       2.504   8.452  17.850  0.00  0.00    +0.000 A 
BRANCH  29  32
ATOM     32  S   UNL     1       4.321   4.912  18.825  0.00  0.00    +0.000 S 
ATOM     33  C   UNL     1       4.245   4.557  17.054  0.00  0.00    +0.000 C 
ATOM     34  O   UNL     1       5.780   5.402  19.144  0.00  0.00    +0.000 OA
ENDBRANCH  29  32
ENDBRANCH   3  26
TORSDOF 4
ENDMDL
MODEL 9
REMARK VINA RESULT:      -7.9      3.947      5.824
REMARK  Name = 
REMARK  7 active torsions:
REMARK  status: ('A' for Active; 'I' for Inactive)
REMARK    1  A    between atoms: C_1  and  N_2
REMARK    2  A    between atoms: N_5  and  C_6
REMARK    3  A    between atoms: C_9  and  C_10
REMARK    4  A    between atoms: C_12  and  C_13
REMARK    5  A    between atoms: C_16  and  S_17
REMARK    6  A    between atoms: S_17  and  C_18
REMARK    7  A    between atoms: C_23  and  C_24
REMARK                            x       y       z     vdW  Elec       q    Type
REMARK                         _______ _______ _______ _____ _____    ______ ____
ROOT
ATOM      1  C   UNL     1      -0.989  11.807  20.035  0.00  0.00    +0.000 A 
ATOM      2  N   UNL     1      -0.586  10.500  19.866  0.00  0.00    +0.000 N 
ATOM      3  C   UNL     1       0.716  10.466  19.430  0.00  0.00    +0.000 A 
ATOM      4  N   UNL     1       1.163  11.697  19.278  0.00  0.00    +0.000 NA
ATOM      5  C   UNL     1       0.150  12.534  19.708  0.00  0.00    +0.000 A 
ATOM      6  H   UNL     1      -1.167   9.686  19.997  0.00  0.00    +0.000 HD
ENDROOT
BRANCH   1  15
ATOM      7  C   UNL     1      -7.412  13.394  21.112  0.00  0.00    +0.000 C 
ATOM      8  N   UNL     1      -6.151  13.188  21.768  0.00  0.00    +0.000 N 
ATOM      9  C   UNL     1      -5.939  13.217  23.162  0.00  0.00    +0.000 A 
ATOM     10  O   UNL     1      -6.770  13.429  24.028  0.00  0.00    +0.000 OA
ATOM     11  N   UNL     1      -4.567  12.928  23.352  0.00  0.00    +0.000 N 
ATOM     12  C   UNL     1      -3.916  12.803  24.624  0.00  0.00    +0.000 C 
ATOM     13  C   UNL     1      -3.970  12.708  22.108  0.00  0.00    +0.000 A 
ATOM     14  C   UNL     1      -2.667  12.377  21.794  0.00  0.00    +0.000 A 
ATOM     15  C   UNL     1      -2.355  12.163  20.440  0.00  0.00    +0.000 A 
ATOM     16  C   UNL     1      -3.379  12.293  19.465  0.00  0.00    +0.000 A 
ATOM     17  C   UNL     1      -4.682  12.679  19.794  0.00  0.00    +0.000 A 
ATOM     18  C   UNL     1      -4.955  12.866  21.129  0.00  0.00    +0.000 A 
ENDBRANCH   1  15
BRANCH   5  19
ATOM     19  C   UNL     1       0.319  13.981  19.771  0.00  0.00    +0.000 A 
ATOM     20  C   UNL     1      -0.296  14.797  18.812  0.00  0.00    +0.000 A 
ATOM     21  C   UNL     1      -0.175  16.189  18.885  0.00  0.00    +0.000 A 
ATOM     22  C   UNL     1       0.552  16.763  19.922  0.00  0.00    +0.000 A 
ATOM     23  F   UNL     1       0.654  18.096  20.001  0.00  0.00    +0.000 F 
ATOM     24  C   UNL     1       1.179  15.974  20.875  0.00  0.00    +0.000 A 
ATOM     25  C   UNL     1       1.088  14.585  20.780  0.00  0.00    +0.000 A 
ENDBRANCH   5  19
BRANCH   3  26
ATOM     26  C   UNL     1       1.438   9.219  19.162  0.00  0.00    +0.000 A 
ATOM     27  C   UNL     1       1.512   8.217  20.138  0.00  0.00    +0.000 A 
ATOM     28  C   UNL     1       2.235   7.039  19.907  0.00  0.00    +0.000 A 
ATOM     29  C   UNL     1       2.876   6.830  18.680  0.00  0.00    +0.000 A 
ATOM     30  C   UNL     1       2.789   7.818  17.696  0.00  0.00    +0.000 A 
ATOM     31  C   UNL     1       2.077   8.999  17.932  0.00  0.00    +0.000 A 
BRANCH  29  32
ATOM     32  S   UNL     1       3.880   5.350  18.393  0.00  0.00    +0.000 S 
ATOM     33  C   UNL     1       2.599   4.267  17.721  0.00  0.00    +0.000 C 
ATOM     34  O   UNL     1       4.871   5.690  17.221  0.00  0.00    +0.000 OA
ENDBRANCH  29  32
ENDBRANCH   3  26
TORSDOF 4
ENDMDL
