MODEL 1
REMARK VINA RESULT:      -7.0      0.000      0.000
REMARK  Name = 
REMARK  10 active torsions:
REMARK  status: ('A' for Active; 'I' for Inactive)
REMARK    1  A    between atoms: C_1  and  C_2
REMARK    2  A    between atoms: N_7  and  C_8
REMARK    3  A    between atoms: C_8  and  C_9
REMARK    4  A    between atoms: C_9  and  C_10
REMARK    5  A    between atoms: C_10  and  O_11
REMARK    6  A    between atoms: O_11  and  C_12
REMARK    7  A    between atoms: C_12  and  C_13
REMARK    8  A    between atoms: C_13  and  C_14
REMARK    9  A    between atoms: C_14  and  O_15
REMARK   10  A    between atoms: O_15  and  C_16
REMARK                            x       y       z     vdW  Elec       q    Type
REMARK                         _______ _______ _______ _____ _____    ______ ____
ROOT
ATOM      1  O   UNL     1       5.469   3.940  18.671  0.00  0.00    +0.000 OA
ENDROOT
BRANCH   1   2
ATOM      2  C   UNL     1       4.913   2.960  19.564  0.00  0.00    +0.000 C 
BRANCH   2   3
ATOM      3  C   UNL     1       3.741   2.227  18.914  0.00  0.00    +0.000 C 
BRANCH   3   4
ATOM      4  C   UNL     1       3.014   2.820  17.688  0.00  0.00    +0.000 C 
BRANCH   4  11
ATOM      5  C   UNL     1       2.382   7.132  18.066  0.00  0.00    +0.000 C 
ATOM      6  C   UNL     1       2.449   5.667  18.538  0.00  0.00    +0.000 C 
ATOM      7  C   UNL     1       2.194   5.668  20.051  0.00  0.00    +0.000 C 
ATOM      8  C   UNL     1       2.074   4.302  20.704  0.00  0.00    +0.000 C 
ATOM      9  C   UNL     1       0.800   3.594  20.276  0.00  0.00    +0.000 C 
ATOM     10  C   UNL     1       0.929   2.752  19.008  0.00  0.00    +0.000 C 
ATOM     11  N   UNL     1       1.617   3.280  17.818  0.00  0.00    +0.000 NA
ATOM     12  C   UNL     1       1.496   4.764  17.700  0.00  0.00    +0.000 C 
ENDBRANCH   4  11
ENDBRANCH   3   4
ENDBRANCH   2   3
ENDBRANCH   1   2
BRANCH   1  13
ATOM     13  C   UNL     1       5.963   5.124  19.305  0.00  0.00    +0.000 C 
BRANCH  13  14
ATOM     14  C   UNL     1       6.706   5.988  18.301  0.00  0.00    +0.000 C 
BRANCH  14  15
ATOM     15  C   UNL     1       7.481   5.142  17.293  0.00  0.00    +0.000 C 
BRANCH  15  16
ATOM     16  O   UNL     1       7.446   5.776  16.010  0.00  0.00    +0.000 OA
BRANCH  16  17
ATOM     17  C   UNL     1       6.854   5.039  15.015  0.00  0.00    +0.000 A 
ATOM     18  C   UNL     1       5.637   4.361  15.138  0.00  0.00    +0.000 A 
ATOM     19  C   UNL     1       5.125   3.636  14.057  0.00  0.00    +0.000 A 
ATOM     20  C   UNL     1       5.819   3.599  12.851  0.00  0.00    +0.000 A 
ATOM     21 CL   UNL     1       5.187   2.702  11.526  0.00  0.00    +0.000 Cl
ATOM     22  C   UNL     1       7.022   4.290  12.716  0.00  0.00    +0.000 A 
ATOM     23  C   UNL     1       7.531   5.015  13.790  0.00  0.00    +0.000 A 
ENDBRANCH  16  17
ENDBRANCH  15  16
ENDBRANCH  14  15
ENDBRANCH  13  14
ENDBRANCH   1  13
TORSDOF 9
ENDMDL
MODEL 2
REMARK VINA RESULT:      -6.8      5.170      6.827
REMARK  Name = 
REMARK  10 active torsions:
REMARK  status: ('A' for Active; 'I' for Inactive)
REMARK    1  A    between atoms: C_1  and  C_2
REMARK    2  A    between atoms: N_7  and  C_8
REMARK    3  A    between atoms: C_8  and  C_9
REMARK    4  A    between atoms: C_9  and  C_10
REMARK    5  A    between atoms: C_10  and  O_11
REMARK    6  A    between atoms: O_11  and  C_12
REMARK    7  A    between atoms: C_12  and  C_13
REMARK    8  A    between atoms: C_13  and  C_14
REMARK    9  A    between atoms: C_14  and  O_15
REMARK   10  A    between atoms: O_15  and  C_16
REMARK                            x       y       z     vdW  Elec       q    Type
REMARK                         _______ _______ _______ _____ _____    ______ ____
ROOT
ATOM      1  O   UNL     1       7.132   6.149  19.118  0.00  0.00    +0.000 OA
ENDROOT
BRANCH   1   2
ATOM      2  C   UNL     1       6.684   4.973  18.422  0.00  0.00    +0.000 C 
BRANCH   2   3
ATOM      3  C   UNL     1       5.160   4.927  18.345  0.00  0.00    +0.000 C 
BRANCH   3   4
ATOM      4  C   UNL     1       4.297   4.992  19.624  0.00  0.00    +0.000 C 
BRANCH   4  11
ATOM      5  C   UNL     1       1.317   2.568  21.717  0.00  0.00    +0.000 C 
ATOM      6  C   UNL     1       2.077   3.136  20.503  0.00  0.00    +0.000 C 
ATOM      7  C   UNL     1       1.534   2.424  19.257  0.00  0.00    +0.000 C 
ATOM      8  C   UNL     1       2.049   2.936  17.923  0.00  0.00    +0.000 C 
ATOM      9  C   UNL     1       1.514   4.327  17.621  0.00  0.00    +0.000 C 
ATOM     10  C   UNL     1       2.368   5.473  18.161  0.00  0.00    +0.000 C 
ATOM     11  N   UNL     1       2.893   5.440  19.536  0.00  0.00    +0.000 NA
ATOM     12  C   UNL     1       2.000   4.692  20.471  0.00  0.00    +0.000 C 
ENDBRANCH   4  11
ENDBRANCH   3   4
ENDBRANCH   2   3
ENDBRANCH   1   2
BRANCH   1  13
ATOM     13  C   UNL     1       8.122   6.919  18.429  0.00  0.00    +0.000 C 
BRANCH  13  14
ATOM     14  C   UNL     1       7.456   7.969  17.557  0.00  0.00    +0.000 C 
BRANCH  14  15
ATOM     15  C   UNL     1       8.041   9.358  17.801  0.00  0.00    +0.000 C 
BRANCH  15  16
ATOM     16  O   UNL     1       8.964   9.304  18.893  0.00  0.00    +0.000 OA
BRANCH  16  17
ATOM     17  C   UNL     1       9.515  10.511  19.247  0.00  0.00    +0.000 A 
ATOM     18  C   UNL     1       9.589  11.004  20.553  0.00  0.00    +0.000 A 
ATOM     19  C   UNL     1      10.171  12.252  20.800  0.00  0.00    +0.000 A 
ATOM     20  C   UNL     1      10.691  12.999  19.748  0.00  0.00    +0.000 A 
ATOM     21 CL   UNL     1      11.402  14.536  20.058  0.00  0.00    +0.000 Cl
ATOM     22  C   UNL     1      10.639  12.504  18.446  0.00  0.00    +0.000 A 
ATOM     23  C   UNL     1      10.062  11.261  18.200  0.00  0.00    +0.000 A 
ENDBRANCH  16  17
ENDBRANCH  15  16
ENDBRANCH  14  15
ENDBRANCH  13  14
ENDBRANCH   1  13
TORSDOF 9
ENDMDL
MODEL 3
REMARK VINA RESULT:      -6.7      0.527      1.134
REMARK  Name = 
REMARK  10 active torsions:
REMARK  status: ('A' for Active; 'I' for Inactive)
REMARK    1  A    between atoms: C_1  and  C_2
REMARK    2  A    between atoms: N_7  and  C_8
REMARK    3  A    between atoms: C_8  and  C_9
REMARK    4  A    between atoms: C_9  and  C_10
REMARK    5  A    between atoms: C_10  and  O_11
REMARK    6  A    between atoms: O_11  and  C_12
REMARK    7  A    between atoms: C_12  and  C_13
REMARK    8  A    between atoms: C_13  and  C_14
REMARK    9  A    between atoms: C_14  and  O_15
REMARK   10  A    between atoms: O_15  and  C_16
REMARK                            x       y       z     vdW  Elec       q    Type
REMARK                         _______ _______ _______ _____ _____    ______ ____
ROOT
ATOM      1  O   UNL     1       5.467   4.657  18.888  0.00  0.00    +0.000 OA
ENDROOT
BRANCH   1   2
ATOM      2  C   UNL     1       5.028   3.477  19.583  0.00  0.00    +0.000 C 
BRANCH   2   3
ATOM      3  C   UNL     1       3.958   2.736  18.785  0.00  0.00    +0.000 C 
BRANCH   3   4
ATOM      4  C   UNL     1       3.248   3.409  17.590  0.00  0.00    +0.000 C 
BRANCH   4  11
ATOM      5  C   UNL     1       2.238   7.620  18.207  0.00  0.00    +0.000 C 
ATOM      6  C   UNL     1       2.410   6.137  18.589  0.00  0.00    +0.000 C 
ATOM      7  C   UNL     1       2.097   6.018  20.087  0.00  0.00    +0.000 C 
ATOM      8  C   UNL     1       2.068   4.607  20.648  0.00  0.00    +0.000 C 
ATOM      9  C   UNL     1       0.876   3.826  20.120  0.00  0.00    +0.000 C 
ATOM     10  C   UNL     1       1.126   3.082  18.809  0.00  0.00    +0.000 C 
ATOM     11  N   UNL     1       1.813   3.742  17.686  0.00  0.00    +0.000 NA
ATOM     12  C   UNL     1       1.571   5.216  17.655  0.00  0.00    +0.000 C 
ENDBRANCH   4  11
ENDBRANCH   3   4
ENDBRANCH   2   3
ENDBRANCH   1   2
BRANCH   1  13
ATOM     13  C   UNL     1       6.718   5.189  19.333  0.00  0.00    +0.000 C 
BRANCH  13  14
ATOM     14  C   UNL     1       7.524   5.697  18.150  0.00  0.00    +0.000 C 
BRANCH  14  15
ATOM     15  C   UNL     1       6.643   5.933  16.926  0.00  0.00    +0.000 C 
BRANCH  15  16
ATOM     16  O   UNL     1       7.454   5.939  15.746  0.00  0.00    +0.000 OA
BRANCH  16  17
ATOM     17  C   UNL     1       6.979   5.169  14.712  0.00  0.00    +0.000 A 
ATOM     18  C   UNL     1       7.626   4.989  13.487  0.00  0.00    +0.000 A 
ATOM     19  C   UNL     1       7.049   4.182  12.500  0.00  0.00    +0.000 A 
ATOM     20  C   UNL     1       5.836   3.546  12.742  0.00  0.00    +0.000 A 
ATOM     21 CL   UNL     1       5.128   2.559  11.523  0.00  0.00    +0.000 Cl
ATOM     22  C   UNL     1       5.195   3.705  13.970  0.00  0.00    +0.000 A 
ATOM     23  C   UNL     1       5.771   4.505  14.953  0.00  0.00    +0.000 A 
ENDBRANCH  16  17
ENDBRANCH  15  16
ENDBRANCH  14  15
ENDBRANCH  13  14
ENDBRANCH   1  13
TORSDOF 9
ENDMDL
MODEL 4
REMARK VINA RESULT:      -6.6      5.115      6.491
REMARK  Name = 
REMARK  10 active torsions:
REMARK  status: ('A' for Active; 'I' for Inactive)
REMARK    1  A    between atoms: C_1  and  C_2
REMARK    2  A    between atoms: N_7  and  C_8
REMARK    3  A    between atoms: C_8  and  C_9
REMARK    4  A    between atoms: C_9  and  C_10
REMARK    5  A    between atoms: C_10  and  O_11
REMARK    6  A    between atoms: O_11  and  C_12
REMARK    7  A    between atoms: C_12  and  C_13
REMARK    8  A    between atoms: C_13  and  C_14
REMARK    9  A    between atoms: C_14  and  O_15
REMARK   10  A    between atoms: O_15  and  C_16
REMARK                            x       y       z     vdW  Elec       q    Type
REMARK                         _______ _______ _______ _____ _____    ______ ____
ROOT
ATOM      1  O   UNL     1       7.555   5.246  17.819  0.00  0.00    +0.000 OA
ENDROOT
BRANCH   1   2
ATOM      2  C   UNL     1       6.218   5.235  17.291  0.00  0.00    +0.000 C 
BRANCH   2   3
ATOM      3  C   UNL     1       5.191   5.011  18.399  0.00  0.00    +0.000 C 
BRANCH   3   4
ATOM      4  C   UNL     1       4.262   3.778  18.384  0.00  0.00    +0.000 C 
BRANCH   4  11
ATOM      5  C   UNL     1       1.537   6.406  20.575  0.00  0.00    +0.000 C 
ATOM      6  C   UNL     1       2.117   5.066  20.082  0.00  0.00    +0.000 C 
ATOM      7  C   UNL     1       1.339   3.949  20.791  0.00  0.00    +0.000 C 
ATOM      8  C   UNL     1       1.655   2.534  20.341  0.00  0.00    +0.000 C 
ATOM      9  C   UNL     1       1.155   2.276  18.929  0.00  0.00    +0.000 C 
ATOM     10  C   UNL     1       2.148   2.632  17.824  0.00  0.00    +0.000 C 
ATOM     11  N   UNL     1       2.889   3.904  17.855  0.00  0.00    +0.000 NA
ATOM     12  C   UNL     1       2.122   4.996  18.526  0.00  0.00    +0.000 C 
ENDBRANCH   4  11
ENDBRANCH   3   4
ENDBRANCH   2   3
ENDBRANCH   1   2
BRANCH   1  13
ATOM     13  C   UNL     1       7.869   6.371  18.645  0.00  0.00    +0.000 C 
BRANCH  13  14
ATOM     14  C   UNL     1       7.858   7.647  17.821  0.00  0.00    +0.000 C 
BRANCH  14  15
ATOM     15  C   UNL     1       8.498   8.811  18.574  0.00  0.00    +0.000 C 
BRANCH  15  16
ATOM     16  O   UNL     1       8.318  10.020  17.828  0.00  0.00    +0.000 OA
BRANCH  16  17
ATOM     17  C   UNL     1       9.103  11.072  18.232  0.00  0.00    +0.000 A 
ATOM     18  C   UNL     1       9.057  12.358  17.687  0.00  0.00    +0.000 A 
ATOM     19  C   UNL     1       9.906  13.357  18.176  0.00  0.00    +0.000 A 
ATOM     20  C   UNL     1      10.788  13.077  19.215  0.00  0.00    +0.000 A 
ATOM     21 CL   UNL     1      11.833  14.308  19.808  0.00  0.00    +0.000 Cl
ATOM     22  C   UNL     1      10.824  11.801  19.776  0.00  0.00    +0.000 A 
ATOM     23  C   UNL     1       9.977  10.807  19.293  0.00  0.00    +0.000 A 
ENDBRANCH  16  17
ENDBRANCH  15  16
ENDBRANCH  14  15
ENDBRANCH  13  14
ENDBRANCH   1  13
TORSDOF 9
ENDMDL
MODEL 5
REMARK VINA RESULT:      -6.6      5.133      6.821
REMARK  Name = 
REMARK  10 active torsions:
REMARK  status: ('A' for Active; 'I' for Inactive)
REMARK    1  A    between atoms: C_1  and  C_2
REMARK    2  A    between atoms: N_7  and  C_8
REMARK    3  A    between atoms: C_8  and  C_9
REMARK    4  A    between atoms: C_9  and  C_10
REMARK    5  A    between atoms: C_10  and  O_11
REMARK    6  A    between atoms: O_11  and  C_12
REMARK    7  A    between atoms: C_12  and  C_13
REMARK    8  A    between atoms: C_13  and  C_14
REMARK    9  A    between atoms: C_14  and  O_15
REMARK   10  A    between atoms: O_15  and  C_16
REMARK                            x       y       z     vdW  Elec       q    Type
REMARK                         _______ _______ _______ _____ _____    ______ ____
ROOT
ATOM      1  O   UNL     1       7.503   5.306  17.290  0.00  0.00    +0.000 OA
ENDROOT
BRANCH   1   2
ATOM      2  C   UNL     1       6.195   5.298  16.692  0.00  0.00    +0.000 C 
BRANCH   2   3
ATOM      3  C   UNL     1       5.274   4.306  17.399  0.00  0.00    +0.000 C 
BRANCH   3   4
ATOM      4  C   UNL     1       4.822   4.541  18.856  0.00  0.00    +0.000 C 
BRANCH   4  11
ATOM      5  C   UNL     1       2.034   2.718  21.692  0.00  0.00    +0.000 C 
ATOM      6  C   UNL     1       2.561   3.158  20.313  0.00  0.00    +0.000 C 
ATOM      7  C   UNL     1       1.580   2.619  19.262  0.00  0.00    +0.000 C 
ATOM      8  C   UNL     1       1.833   3.060  17.831  0.00  0.00    +0.000 C 
ATOM      9  C   UNL     1       1.543   4.541  17.649  0.00  0.00    +0.000 C 
ATOM     10  C   UNL     1       2.728   5.464  17.929  0.00  0.00    +0.000 C 
ATOM     11  N   UNL     1       3.568   5.274  19.123  0.00  0.00    +0.000 NA
ATOM     12  C   UNL     1       2.807   4.695  20.271  0.00  0.00    +0.000 C 
ENDBRANCH   4  11
ENDBRANCH   3   4
ENDBRANCH   2   3
ENDBRANCH   1   2
BRANCH   1  13
ATOM     13  C   UNL     1       7.704   6.310  18.289  0.00  0.00    +0.000 C 
BRANCH  13  14
ATOM     14  C   UNL     1       7.706   7.690  17.654  0.00  0.00    +0.000 C 
BRANCH  14  15
ATOM     15  C   UNL     1       8.508   8.691  18.482  0.00  0.00    +0.000 C 
BRANCH  15  16
ATOM     16  O   UNL     1       8.752   9.868  17.704  0.00  0.00    +0.000 OA
BRANCH  16  17
ATOM     17  C   UNL     1       9.149  10.967  18.425  0.00  0.00    +0.000 A 
ATOM     18  C   UNL     1       9.153  12.280  17.945  0.00  0.00    +0.000 A 
ATOM     19  C   UNL     1       9.581  13.327  18.768  0.00  0.00    +0.000 A 
ATOM     20  C   UNL     1       9.990  13.067  20.072  0.00  0.00    +0.000 A 
ATOM     21 CL   UNL     1      10.519  14.358  21.079  0.00  0.00    +0.000 Cl
ATOM     22  C   UNL     1       9.968  11.762  20.564  0.00  0.00    +0.000 A 
ATOM     23  C   UNL     1       9.540  10.720  19.746  0.00  0.00    +0.000 A 
ENDBRANCH  16  17
ENDBRANCH  15  16
ENDBRANCH  14  15
ENDBRANCH  13  14
ENDBRANCH   1  13
TORSDOF 9
ENDMDL
MODEL 6
REMARK VINA RESULT:      -6.6      1.358      2.631
REMARK  Name = 
REMARK  10 active torsions:
REMARK  status: ('A' for Active; 'I' for Inactive)
REMARK    1  A    between atoms: C_1  and  C_2
REMARK    2  A    between atoms: N_7  and  C_8
REMARK    3  A    between atoms: C_8  and  C_9
REMARK    4  A    between atoms: C_9  and  C_10
REMARK    5  A    between atoms: C_10  and  O_11
REMARK    6  A    between atoms: O_11  and  C_12
REMARK    7  A    between atoms: C_12  and  C_13
REMARK    8  A    between atoms: C_13  and  C_14
REMARK    9  A    between atoms: C_14  and  O_15
REMARK   10  A    between atoms: O_15  and  C_16
REMARK                            x       y       z     vdW  Elec       q    Type
REMARK                         _______ _______ _______ _____ _____    ______ ____
ROOT
ATOM      1  O   UNL     1       5.329   6.836  16.962  0.00  0.00    +0.000 OA
ENDROOT
BRANCH   1   2
ATOM      2  C   UNL     1       4.238   7.269  17.794  0.00  0.00    +0.000 C 
BRANCH   2   3
ATOM      3  C   UNL     1       3.091   6.261  17.763  0.00  0.00    +0.000 C 
BRANCH   3   4
ATOM      4  C   UNL     1       2.355   5.855  19.059  0.00  0.00    +0.000 C 
BRANCH   4  11
ATOM      5  C   UNL     1       3.608   1.924  17.605  0.00  0.00    +0.000 C 
ATOM      6  C   UNL     1       2.748   2.932  18.392  0.00  0.00    +0.000 C 
ATOM      7  C   UNL     1       1.597   2.141  19.031  0.00  0.00    +0.000 C 
ATOM      8  C   UNL     1       0.701   2.923  19.975  0.00  0.00    +0.000 C 
ATOM      9  C   UNL     1       1.434   3.297  21.252  0.00  0.00    +0.000 C 
ATOM     10  C   UNL     1       2.187   4.625  21.193  0.00  0.00    +0.000 C 
ATOM     11  N   UNL     1       3.024   4.968  20.031  0.00  0.00    +0.000 NA
ATOM     12  C   UNL     1       3.619   3.762  19.381  0.00  0.00    +0.000 C 
ENDBRANCH   4  11
ENDBRANCH   3   4
ENDBRANCH   2   3
ENDBRANCH   1   2
BRANCH   1  13
ATOM     13  C   UNL     1       6.620   7.297  17.371  0.00  0.00    +0.000 C 
BRANCH  13  14
ATOM     14  C   UNL     1       7.445   6.140  17.907  0.00  0.00    +0.000 C 
BRANCH  14  15
ATOM     15  C   UNL     1       7.280   4.885  17.053  0.00  0.00    +0.000 C 
BRANCH  15  16
ATOM     16  O   UNL     1       7.698   5.161  15.712  0.00  0.00    +0.000 OA
BRANCH  16  17
ATOM     17  C   UNL     1       6.887   4.641  14.734  0.00  0.00    +0.000 A 
ATOM     18  C   UNL     1       5.570   4.213  14.931  0.00  0.00    +0.000 A 
ATOM     19  C   UNL     1       4.833   3.696  13.860  0.00  0.00    +0.000 A 
ATOM     20  C   UNL     1       5.404   3.619  12.593  0.00  0.00    +0.000 A 
ATOM     21 CL   UNL     1       4.494   2.978  11.281  0.00  0.00    +0.000 Cl
ATOM     22  C   UNL     1       6.709   4.064  12.387  0.00  0.00    +0.000 A 
ATOM     23  C   UNL     1       7.442   4.581  13.451  0.00  0.00    +0.000 A 
ENDBRANCH  16  17
ENDBRANCH  15  16
ENDBRANCH  14  15
ENDBRANCH  13  14
ENDBRANCH   1  13
TORSDOF 9
ENDMDL
MODEL 7
REMARK VINA RESULT:      -6.6      5.141      6.754
REMARK  Name = 
REMARK  10 active torsions:
REMARK  status: ('A' for Active; 'I' for Inactive)
REMARK    1  A    between atoms: C_1  and  C_2
REMARK    2  A    between atoms: N_7  and  C_8
REMARK    3  A    between atoms: C_8  and  C_9
REMARK    4  A    between atoms: C_9  and  C_10
REMARK    5  A    between atoms: C_10  and  O_11
REMARK    6  A    between atoms: O_11  and  C_12
REMARK    7  A    between atoms: C_12  and  C_13
REMARK    8  A    between atoms: C_13  and  C_14
REMARK    9  A    between atoms: C_14  and  O_15
REMARK   10  A    between atoms: O_15  and  C_16
REMARK                            x       y       z     vdW  Elec       q    Type
REMARK                         _______ _______ _______ _____ _____    ______ ____
ROOT
ATOM      1  O   UNL     1       7.449   5.827  16.853  0.00  0.00    +0.000 OA
ENDROOT
BRANCH   1   2
ATOM      2  C   UNL     1       6.671   5.430  15.711  0.00  0.00    +0.000 C 
BRANCH   2   3
ATOM      3  C   UNL     1       6.102   4.025  15.894  0.00  0.00    +0.000 C 
BRANCH   3   4
ATOM      4  C   UNL     1       4.782   3.797  16.663  0.00  0.00    +0.000 C 
BRANCH   4  11
ATOM      5  C   UNL     1       4.534   1.865  20.579  0.00  0.00    +0.000 C 
ATOM      6  C   UNL     1       4.003   2.542  19.301  0.00  0.00    +0.000 C 
ATOM      7  C   UNL     1       2.470   2.496  19.370  0.00  0.00    +0.000 C 
ATOM      8  C   UNL     1       1.735   3.240  18.269  0.00  0.00    +0.000 C 
ATOM      9  C   UNL     1       1.907   4.743  18.407  0.00  0.00    +0.000 C 
ATOM     10  C   UNL     1       3.133   5.315  17.696  0.00  0.00    +0.000 C 
ATOM     11  N   UNL     1       4.446   4.661  17.811  0.00  0.00    +0.000 NA
ATOM     12  C   UNL     1       4.622   3.959  19.118  0.00  0.00    +0.000 C 
ENDBRANCH   4  11
ENDBRANCH   3   4
ENDBRANCH   2   3
ENDBRANCH   1   2
BRANCH   1  13
ATOM     13  C   UNL     1       7.015   7.032  17.491  0.00  0.00    +0.000 C 
BRANCH  13  14
ATOM     14  C   UNL     1       8.173   7.683  18.228  0.00  0.00    +0.000 C 
BRANCH  14  15
ATOM     15  C   UNL     1       8.241   9.184  17.958  0.00  0.00    +0.000 C 
BRANCH  15  16
ATOM     16  O   UNL     1       8.985   9.824  19.000  0.00  0.00    +0.000 OA
BRANCH  16  17
ATOM     17  C   UNL     1       9.631  10.977  18.627  0.00  0.00    +0.000 A 
ATOM     18  C   UNL     1      10.988  11.238  18.838  0.00  0.00    +0.000 A 
ATOM     19  C   UNL     1      11.542  12.452  18.417  0.00  0.00    +0.000 A 
ATOM     20  C   UNL     1      10.748  13.396  17.774  0.00  0.00    +0.000 A 
ATOM     21 CL   UNL     1      11.435  14.888  17.263  0.00  0.00    +0.000 Cl
ATOM     22  C   UNL     1       9.399  13.132  17.542  0.00  0.00    +0.000 A 
ATOM     23  C   UNL     1       8.846  11.924  17.957  0.00  0.00    +0.000 A 
ENDBRANCH  16  17
ENDBRANCH  15  16
ENDBRANCH  14  15
ENDBRANCH  13  14
ENDBRANCH   1  13
TORSDOF 9
ENDMDL
MODEL 8
REMARK VINA RESULT:      -6.4      4.725      6.125
REMARK  Name = 
REMARK  10 active torsions:
REMARK  status: ('A' for Active; 'I' for Inactive)
REMARK    1  A    between atoms: C_1  and  C_2
REMARK    2  A    between atoms: N_7  and  C_8
REMARK    3  A    between atoms: C_8  and  C_9
REMARK    4  A    between atoms: C_9  and  C_10
REMARK    5  A    between atoms: C_10  and  O_11
REMARK    6  A    between atoms: O_11  and  C_12
REMARK    7  A    between atoms: C_12  and  C_13
REMARK    8  A    between atoms: C_13  and  C_14
REMARK    9  A    between atoms: C_14  and  O_15
REMARK   10  A    between atoms: O_15  and  C_16
REMARK                            x       y       z     vdW  Elec       q    Type
REMARK                         _______ _______ _______ _____ _____    ______ ____
ROOT
ATOM      1  O   UNL     1       6.227   5.171  17.268  0.00  0.00    +0.000 OA
ENDROOT
BRANCH   1   2
ATOM      2  C   UNL     1       5.401   4.684  16.196  0.00  0.00    +0.000 C 
BRANCH   2   3
ATOM      3  C   UNL     1       4.560   3.492  16.648  0.00  0.00    +0.000 C 
BRANCH   3   4
ATOM      4  C   UNL     1       3.744   3.547  17.957  0.00  0.00    +0.000 C 
BRANCH   4  11
ATOM      5  C   UNL     1       2.325   7.639  18.574  0.00  0.00    +0.000 C 
ATOM      6  C   UNL     1       2.577   6.161  18.931  0.00  0.00    +0.000 C 
ATOM      7  C   UNL     1       2.111   5.962  20.380  0.00  0.00    +0.000 C 
ATOM      8  C   UNL     1       2.137   4.533  20.894  0.00  0.00    +0.000 C 
ATOM      9  C   UNL     1       1.080   3.680  20.213  0.00  0.00    +0.000 C 
ATOM     10  C   UNL     1       1.534   3.008  18.919  0.00  0.00    +0.000 C 
ATOM     11  N   UNL     1       2.284   3.762  17.900  0.00  0.00    +0.000 NA
ATOM     12  C   UNL     1       1.925   5.211  17.883  0.00  0.00    +0.000 C 
ENDBRANCH   4  11
ENDBRANCH   3   4
ENDBRANCH   2   3
ENDBRANCH   1   2
BRANCH   1  13
ATOM     13  C   UNL     1       7.104   6.245  16.916  0.00  0.00    +0.000 C 
BRANCH  13  14
ATOM     14  C   UNL     1       7.538   6.999  18.161  0.00  0.00    +0.000 C 
BRANCH  14  15
ATOM     15  C   UNL     1       8.101   8.376  17.819  0.00  0.00    +0.000 C 
BRANCH  15  16
ATOM     16  O   UNL     1       8.914   8.843  18.901  0.00  0.00    +0.000 OA
BRANCH  16  17
ATOM     17  C   UNL     1       9.081  10.205  18.956  0.00  0.00    +0.000 A 
ATOM     18  C   UNL     1       8.821  11.085  17.902  0.00  0.00    +0.000 A 
ATOM     19  C   UNL     1       9.027  12.458  18.067  0.00  0.00    +0.000 A 
ATOM     20  C   UNL     1       9.480  12.954  19.287  0.00  0.00    +0.000 A 
ATOM     21 CL   UNL     1       9.737  14.643  19.483  0.00  0.00    +0.000 Cl
ATOM     22  C   UNL     1       9.721  12.082  20.348  0.00  0.00    +0.000 A 
ATOM     23  C   UNL     1       9.512  10.716  20.185  0.00  0.00    +0.000 A 
ENDBRANCH  16  17
ENDBRANCH  15  16
ENDBRANCH  14  15
ENDBRANCH  13  14
ENDBRANCH   1  13
TORSDOF 9
ENDMDL
MODEL 9
REMARK VINA RESULT:      -6.4      5.713      8.515
REMARK  Name = 
REMARK  10 active torsions:
REMARK  status: ('A' for Active; 'I' for Inactive)
REMARK    1  A    between atoms: C_1  and  C_2
REMARK    2  A    between atoms: N_7  and  C_8
REMARK    3  A    between atoms: C_8  and  C_9
REMARK    4  A    between atoms: C_9  and  C_10
REMARK    5  A    between atoms: C_10  and  O_11
REMARK    6  A    between atoms: O_11  and  C_12
REMARK    7  A    between atoms: C_12  and  C_13
REMARK    8  A    between atoms: C_13  and  C_14
REMARK    9  A    between atoms: C_14  and  O_15
REMARK   10  A    between atoms: O_15  and  C_16
REMARK                            x       y       z     vdW  Elec       q    Type
REMARK                         _______ _______ _______ _____ _____    ______ ____
ROOT
ATOM      1  O   UNL     1       7.812   7.134  17.406  0.00  0.00    +0.000 OA
ENDROOT
BRANCH   1   2
ATOM      2  C   UNL     1       7.586   8.541  17.598  0.00  0.00    +0.000 C 
BRANCH   2   3
ATOM      3  C   UNL     1       8.624   9.140  18.546  0.00  0.00    +0.000 C 
BRANCH   3   4
ATOM      4  C   UNL     1       8.995  10.637  18.475  0.00  0.00    +0.000 C 
BRANCH   4  11
ATOM      5  C   UNL     1       9.652  13.418  21.786  0.00  0.00    +0.000 C 
ATOM      6  C   UNL     1       9.545  12.972  20.315  0.00  0.00    +0.000 C 
ATOM      7  C   UNL     1       9.720  14.227  19.449  0.00  0.00    +0.000 C 
ATOM      8  C   UNL     1       9.791  13.993  17.950  0.00  0.00    +0.000 C 
ATOM      9  C   UNL     1      11.079  13.287  17.560  0.00  0.00    +0.000 C 
ATOM     10  C   UNL     1      11.007  11.761  17.591  0.00  0.00    +0.000 C 
ATOM     11  N   UNL     1      10.388  11.057  18.726  0.00  0.00    +0.000 NA
ATOM     12  C   UNL     1      10.531  11.806  20.010  0.00  0.00    +0.000 C 
ENDBRANCH   4  11
ENDBRANCH   3   4
ENDBRANCH   2   3
ENDBRANCH   1   2
BRANCH   1  13
ATOM     13  C   UNL     1       7.800   6.351  18.603  0.00  0.00    +0.000 C 
BRANCH  13  14
ATOM     14  C   UNL     1       6.581   5.445  18.627  0.00  0.00    +0.000 C 
BRANCH  14  15
ATOM     15  C   UNL     1       6.380   4.733  17.292  0.00  0.00    +0.000 C 
BRANCH  15  16
ATOM     16  O   UNL     1       5.133   5.136  16.716  0.00  0.00    +0.000 OA
BRANCH  16  17
ATOM     17  C   UNL     1       4.023   4.538  17.260  0.00  0.00    +0.000 A 
ATOM     18  C   UNL     1       2.937   5.221  17.814  0.00  0.00    +0.000 A 
ATOM     19  C   UNL     1       1.856   4.508  18.344  0.00  0.00    +0.000 A 
ATOM     20  C   UNL     1       1.853   3.117  18.308  0.00  0.00    +0.000 A 
ATOM     21 CL   UNL     1       0.523   2.246  18.966  0.00  0.00    +0.000 Cl
ATOM     22  C   UNL     1       2.925   2.431  17.738  0.00  0.00    +0.000 A 
ATOM     23  C   UNL     1       3.999   3.139  17.208  0.00  0.00    +0.000 A 
ENDBRANCH  16  17
ENDBRANCH  15  16
ENDBRANCH  14  15
ENDBRANCH  13  14
ENDBRANCH   1  13
TORSDOF 9
ENDMDL
