MODEL 1
REMARK VINA RESULT:      -9.7      0.000      0.000
REMARK  Name = 
REMARK  7 active torsions:
REMARK  status: ('A' for Active; 'I' for Inactive)
REMARK    1  A    between atoms: C_1  and  O_2
REMARK    2  A    between atoms: O_2  and  C_3
REMARK    3  A    between atoms: C_6  and  C_7
REMARK    4  A    between atoms: C_7  and  C_8
REMARK    5  A    between atoms: C_8  and  N_9
REMARK    6  A    between atoms: C_10  and  C_12
REMARK    7  A    between atoms: C_16  and  C_18
REMARK                            x       y       z     vdW  Elec       q    Type
REMARK                         _______ _______ _______ _____ _____    ______ ____
ROOT
ATOM      1  N   UNL     1       8.378   7.959  18.604  0.00  0.00    +0.000 N 
ATOM      2  C   UNL     1       7.738   7.052  17.795  0.00  0.00    +0.000 C 
ATOM      3  O   UNL     1       7.243   7.367  16.718  0.00  0.00    +0.000 OA
ATOM      4  H   UNL     1       8.481   7.732  19.585  0.00  0.00    +0.000 HD
ENDROOT
BRANCH   2   5
ATOM      5  C   UNL     1       7.664   5.631  18.362  0.00  0.00    +0.000 C 
ATOM      6  C   UNL     1       7.404   4.577  17.271  0.00  0.00    +0.000 C 
ATOM      7  C   UNL     1       5.935   4.486  16.839  0.00  0.00    +0.000 C 
ATOM      8  N   UNL     1       5.039   4.443  17.995  0.00  0.00    +0.000 N 
ATOM      9  C   UNL     1       4.039   3.468  18.040  0.00  0.00    +0.000 C 
ATOM     10  O   UNL     1       3.894   2.640  17.138  0.00  0.00    +0.000 OA
ATOM     11  C   UNL     1       5.196   5.590  18.884  0.00  0.00    +0.000 C 
ATOM     12  C   UNL     1       6.605   5.551  19.473  0.00  0.00    +0.000 C 
BRANCH   9  13
ATOM     13  C   UNL     1       3.074   3.393  19.179  0.00  0.00    +0.000 A 
ATOM     14  C   UNL     1       3.479   2.710  20.336  0.00  0.00    +0.000 A 
ATOM     15  C   UNL     1       2.612   2.578  21.424  0.00  0.00    +0.000 A 
ATOM     16  C   UNL     1       1.329   3.116  21.359  0.00  0.00    +0.000 A 
ATOM     17  C   UNL     1       0.934   3.838  20.235  0.00  0.00    +0.000 A 
ATOM     18  C   UNL     1       1.820   4.014  19.170  0.00  0.00    +0.000 A 
ENDBRANCH   9  13
ENDBRANCH   2   5
BRANCH   1  19
ATOM     19  C   UNL     1       8.440   9.353  18.198  0.00  0.00    +0.000 C 
BRANCH  19  20
ATOM     20  C   UNL     1       9.233  10.200  19.189  0.00  0.00    +0.000 C 
BRANCH  20  24
ATOM     21  C   UNL     1      10.749  13.824  17.392  0.00  0.00    +0.000 A 
ATOM     22  C   UNL     1       9.493  13.810  18.002  0.00  0.00    +0.000 A 
ATOM     23  C   UNL     1       9.000  12.642  18.588  0.00  0.00    +0.000 A 
ATOM     24  C   UNL     1       9.757  11.464  18.561  0.00  0.00    +0.000 A 
ATOM     25  C   UNL     1      11.000  11.473  17.917  0.00  0.00    +0.000 A 
ATOM     26  C   UNL     1      11.495  12.647  17.337  0.00  0.00    +0.000 A 
BRANCH  21  28
ATOM     27  C   UNL     1      10.271  16.125  17.146  0.00  0.00    +0.000 C 
ATOM     28  O   UNL     1      11.125  15.024  16.856  0.00  0.00    +0.000 OA
ENDBRANCH  21  28
ENDBRANCH  20  24
ENDBRANCH  19  20
ENDBRANCH   1  19
TORSDOF 6
ENDMDL
MODEL 2
REMARK VINA RESULT:      -9.1      0.897      1.311
REMARK  Name = 
REMARK  7 active torsions:
REMARK  status: ('A' for Active; 'I' for Inactive)
REMARK    1  A    between atoms: C_1  and  O_2
REMARK    2  A    between atoms: O_2  and  C_3
REMARK    3  A    between atoms: C_6  and  C_7
REMARK    4  A    between atoms: C_7  and  C_8
REMARK    5  A    between atoms: C_8  and  N_9
REMARK    6  A    between atoms: C_10  and  C_12
REMARK    7  A    between atoms: C_16  and  C_18
REMARK                            x       y       z     vdW  Elec       q    Type
REMARK                         _______ _______ _______ _____ _____    ______ ____
ROOT
ATOM      1  N   UNL     1       8.357   7.871  18.664  0.00  0.00    +0.000 N 
ATOM      2  C   UNL     1       7.783   6.981  17.789  0.00  0.00    +0.000 C 
ATOM      3  O   UNL     1       7.342   7.325  16.697  0.00  0.00    +0.000 OA
ATOM      4  H   UNL     1       8.410   7.610  19.641  0.00  0.00    +0.000 HD
ENDROOT
BRANCH   2   5
ATOM      5  C   UNL     1       7.709   5.539  18.300  0.00  0.00    +0.000 C 
ATOM      6  C   UNL     1       7.398   4.533  17.177  0.00  0.00    +0.000 C 
ATOM      7  C   UNL     1       5.914   4.478  16.792  0.00  0.00    +0.000 C 
ATOM      8  N   UNL     1       5.057   4.399  17.975  0.00  0.00    +0.000 N 
ATOM      9  C   UNL     1       4.046   3.435  18.015  0.00  0.00    +0.000 C 
ATOM     10  O   UNL     1       3.860   2.646  17.087  0.00  0.00    +0.000 OA
ATOM     11  C   UNL     1       5.260   5.506  18.904  0.00  0.00    +0.000 C 
ATOM     12  C   UNL     1       6.687   5.426  19.443  0.00  0.00    +0.000 C 
BRANCH   9  13
ATOM     13  C   UNL     1       3.119   3.326  19.183  0.00  0.00    +0.000 A 
ATOM     14  C   UNL     1       1.835   3.877  19.052  0.00  0.00    +0.000 A 
ATOM     15  C   UNL     1       0.931   3.835  20.117  0.00  0.00    +0.000 A 
ATOM     16  C   UNL     1       1.308   3.255  21.326  0.00  0.00    +0.000 A 
ATOM     17  C   UNL     1       2.563   2.662  21.451  0.00  0.00    +0.000 A 
ATOM     18  C   UNL     1       3.445   2.657  20.368  0.00  0.00    +0.000 A 
ENDBRANCH   9  13
ENDBRANCH   2   5
BRANCH   1  19
ATOM     19  C   UNL     1       8.410   9.279  18.312  0.00  0.00    +0.000 C 
BRANCH  19  20
ATOM     20  C   UNL     1       9.404  10.046  19.180  0.00  0.00    +0.000 C 
BRANCH  20  24
ATOM     21  C   UNL     1       9.484  14.260  18.236  0.00  0.00    +0.000 A 
ATOM     22  C   UNL     1       8.663  13.391  17.516  0.00  0.00    +0.000 A 
ATOM     23  C   UNL     1       8.630  12.028  17.820  0.00  0.00    +0.000 A 
ATOM     24  C   UNL     1       9.432  11.514  18.846  0.00  0.00    +0.000 A 
ATOM     25  C   UNL     1      10.281  12.383  19.541  0.00  0.00    +0.000 A 
ATOM     26  C   UNL     1      10.306  13.750  19.240  0.00  0.00    +0.000 A 
BRANCH  21  28
ATOM     27  C   UNL     1       9.595  16.529  18.888  0.00  0.00    +0.000 C 
ATOM     28  O   UNL     1       9.429  15.571  17.849  0.00  0.00    +0.000 OA
ENDBRANCH  21  28
ENDBRANCH  20  24
ENDBRANCH  19  20
ENDBRANCH   1  19
TORSDOF 6
ENDMDL
MODEL 3
REMARK VINA RESULT:      -9.0      0.962      1.294
REMARK  Name = 
REMARK  7 active torsions:
REMARK  status: ('A' for Active; 'I' for Inactive)
REMARK    1  A    between atoms: C_1  and  O_2
REMARK    2  A    between atoms: O_2  and  C_3
REMARK    3  A    between atoms: C_6  and  C_7
REMARK    4  A    between atoms: C_7  and  C_8
REMARK    5  A    between atoms: C_8  and  N_9
REMARK    6  A    between atoms: C_10  and  C_12
REMARK    7  A    between atoms: C_16  and  C_18
REMARK                            x       y       z     vdW  Elec       q    Type
REMARK                         _______ _______ _______ _____ _____    ______ ____
ROOT
ATOM      1  N   UNL     1       8.386   7.894  18.613  0.00  0.00    +0.000 N 
ATOM      2  C   UNL     1       7.693   7.052  17.777  0.00  0.00    +0.000 C 
ATOM      3  O   UNL     1       7.172   7.441  16.737  0.00  0.00    +0.000 OA
ATOM      4  H   UNL     1       8.514   7.609  19.576  0.00  0.00    +0.000 HD
ENDROOT
BRANCH   2   5
ATOM      5  C   UNL     1       7.596   5.604  18.266  0.00  0.00    +0.000 C 
ATOM      6  C   UNL     1       7.254   4.622  17.131  0.00  0.00    +0.000 C 
ATOM      7  C   UNL     1       5.765   4.602  16.761  0.00  0.00    +0.000 C 
ATOM      8  N   UNL     1       4.919   4.520  17.952  0.00  0.00    +0.000 N 
ATOM      9  C   UNL     1       3.890   3.576  17.988  0.00  0.00    +0.000 C 
ATOM     10  O   UNL     1       3.679   2.806  17.049  0.00  0.00    +0.000 OA
ATOM     11  C   UNL     1       5.153   5.608  18.896  0.00  0.00    +0.000 C 
ATOM     12  C   UNL     1       6.584   5.492  19.418  0.00  0.00    +0.000 C 
BRANCH   9  13
ATOM     13  C   UNL     1       2.973   3.466  19.163  0.00  0.00    +0.000 A 
ATOM     14  C   UNL     1       3.419   2.733  20.274  0.00  0.00    +0.000 A 
ATOM     15  C   UNL     1       2.598   2.567  21.393  0.00  0.00    +0.000 A 
ATOM     16  C   UNL     1       1.319   3.119  21.404  0.00  0.00    +0.000 A 
ATOM     17  C   UNL     1       0.885   3.889  20.327  0.00  0.00    +0.000 A 
ATOM     18  C   UNL     1       1.727   4.099  19.232  0.00  0.00    +0.000 A 
ENDBRANCH   9  13
ENDBRANCH   2   5
BRANCH   1  19
ATOM     19  C   UNL     1       8.474   9.306  18.284  0.00  0.00    +0.000 C 
BRANCH  19  20
ATOM     20  C   UNL     1       9.457  10.042  19.190  0.00  0.00    +0.000 C 
BRANCH  20  24
ATOM     21  C   UNL     1       8.935  14.325  19.012  0.00  0.00    +0.000 A 
ATOM     22  C   UNL     1       9.125  13.588  17.842  0.00  0.00    +0.000 A 
ATOM     23  C   UNL     1       9.290  12.202  17.894  0.00  0.00    +0.000 A 
ATOM     24  C   UNL     1       9.279  11.535  19.125  0.00  0.00    +0.000 A 
ATOM     25  C   UNL     1       9.124  12.283  20.298  0.00  0.00    +0.000 A 
ATOM     26  C   UNL     1       8.950  13.670  20.243  0.00  0.00    +0.000 A 
BRANCH  21  28
ATOM     27  C   UNL     1       9.902  16.355  18.283  0.00  0.00    +0.000 C 
ATOM     28  O   UNL     1       8.782  15.673  18.835  0.00  0.00    +0.000 OA
ENDBRANCH  21  28
ENDBRANCH  20  24
ENDBRANCH  19  20
ENDBRANCH   1  19
TORSDOF 6
ENDMDL
MODEL 4
REMARK VINA RESULT:      -8.7      0.997      1.096
REMARK  Name = 
REMARK  7 active torsions:
REMARK  status: ('A' for Active; 'I' for Inactive)
REMARK    1  A    between atoms: C_1  and  O_2
REMARK    2  A    between atoms: O_2  and  C_3
REMARK    3  A    between atoms: C_6  and  C_7
REMARK    4  A    between atoms: C_7  and  C_8
REMARK    5  A    between atoms: C_8  and  N_9
REMARK    6  A    between atoms: C_10  and  C_12
REMARK    7  A    between atoms: C_16  and  C_18
REMARK                            x       y       z     vdW  Elec       q    Type
REMARK                         _______ _______ _______ _____ _____    ______ ____
ROOT
ATOM      1  N   UNL     1       7.799   7.187  18.143  0.00  0.00    +0.000 N 
ATOM      2  C   UNL     1       7.549   6.372  17.066  0.00  0.00    +0.000 C 
ATOM      3  O   UNL     1       7.530   6.792  15.914  0.00  0.00    +0.000 OA
ATOM      4  H   UNL     1       7.498   6.874  19.057  0.00  0.00    +0.000 HD
ENDROOT
BRANCH   2   5
ATOM      5  C   UNL     1       7.263   4.911  17.424  0.00  0.00    +0.000 C 
ATOM      6  C   UNL     1       6.539   4.160  16.291  0.00  0.00    +0.000 C 
ATOM      7  C   UNL     1       5.034   4.443  16.227  0.00  0.00    +0.000 C 
ATOM      8  N   UNL     1       4.415   4.353  17.550  0.00  0.00    +0.000 N 
ATOM      9  C   UNL     1       3.246   3.602  17.701  0.00  0.00    +0.000 C 
ATOM     10  O   UNL     1       2.725   3.010  16.754  0.00  0.00    +0.000 OA
ATOM     11  C   UNL     1       5.020   5.252  18.528  0.00  0.00    +0.000 C 
ATOM     12  C   UNL     1       6.472   4.824  18.739  0.00  0.00    +0.000 C 
BRANCH   9  13
ATOM     13  C   UNL     1       2.551   3.498  19.021  0.00  0.00    +0.000 A 
ATOM     14  C   UNL     1       3.079   2.608  19.969  0.00  0.00    +0.000 A 
ATOM     15  C   UNL     1       2.458   2.442  21.210  0.00  0.00    +0.000 A 
ATOM     16  C   UNL     1       1.297   3.152  21.507  0.00  0.00    +0.000 A 
ATOM     17  C   UNL     1       0.793   4.074  20.592  0.00  0.00    +0.000 A 
ATOM     18  C   UNL     1       1.445   4.278  19.374  0.00  0.00    +0.000 A 
ENDBRANCH   9  13
ENDBRANCH   2   5
BRANCH   1  19
ATOM     19  C   UNL     1       8.008   8.609  17.924  0.00  0.00    +0.000 C 
BRANCH  19  20
ATOM     20  C   UNL     1       8.945   9.214  18.966  0.00  0.00    +0.000 C 
BRANCH  20  24
ATOM     21  C   UNL     1       9.875  13.347  18.126  0.00  0.00    +0.000 A 
ATOM     22  C   UNL     1       8.754  12.745  17.552  0.00  0.00    +0.000 A 
ATOM     23  C   UNL     1       8.447  11.410  17.823  0.00  0.00    +0.000 A 
ATOM     24  C   UNL     1       9.268  10.653  18.668  0.00  0.00    +0.000 A 
ATOM     25  C   UNL     1      10.411  11.251  19.213  0.00  0.00    +0.000 A 
ATOM     26  C   UNL     1      10.712  12.591  18.946  0.00  0.00    +0.000 A 
BRANCH  21  28
ATOM     27  C   UNL     1       9.110  15.577  18.293  0.00  0.00    +0.000 C 
ATOM     28  O   UNL     1      10.071  14.658  17.789  0.00  0.00    +0.000 OA
ENDBRANCH  21  28
ENDBRANCH  20  24
ENDBRANCH  19  20
ENDBRANCH   1  19
TORSDOF 6
ENDMDL
MODEL 5
REMARK VINA RESULT:      -8.7      1.747      2.246
REMARK  Name = 
REMARK  7 active torsions:
REMARK  status: ('A' for Active; 'I' for Inactive)
REMARK    1  A    between atoms: C_1  and  O_2
REMARK    2  A    between atoms: O_2  and  C_3
REMARK    3  A    between atoms: C_6  and  C_7
REMARK    4  A    between atoms: C_7  and  C_8
REMARK    5  A    between atoms: C_8  and  N_9
REMARK    6  A    between atoms: C_10  and  C_12
REMARK    7  A    between atoms: C_16  and  C_18
REMARK                            x       y       z     vdW  Elec       q    Type
REMARK                         _______ _______ _______ _____ _____    ______ ____
ROOT
ATOM      1  N   UNL     1       8.279   8.043  18.444  0.00  0.00    +0.000 N 
ATOM      2  C   UNL     1       7.588   7.113  17.707  0.00  0.00    +0.000 C 
ATOM      3  O   UNL     1       7.006   7.400  16.666  0.00  0.00    +0.000 OA
ATOM      4  H   UNL     1       8.461   7.838  19.418  0.00  0.00    +0.000 HD
ENDROOT
BRANCH   2   5
ATOM      5  C   UNL     1       7.575   5.704  18.307  0.00  0.00    +0.000 C 
ATOM      6  C   UNL     1       7.352   4.614  17.242  0.00  0.00    +0.000 C 
ATOM      7  C   UNL     1       5.886   4.454  16.822  0.00  0.00    +0.000 C 
ATOM      8  N   UNL     1       4.999   4.401  17.984  0.00  0.00    +0.000 N 
ATOM      9  C   UNL     1       4.039   3.388  18.059  0.00  0.00    +0.000 C 
ATOM     10  O   UNL     1       3.923   2.534  17.177  0.00  0.00    +0.000 OA
ATOM     11  C   UNL     1       5.114   5.574  18.846  0.00  0.00    +0.000 C 
ATOM     12  C   UNL     1       6.527   5.606  19.427  0.00  0.00    +0.000 C 
BRANCH   9  13
ATOM     13  C   UNL     1       3.084   3.301  19.206  0.00  0.00    +0.000 A 
ATOM     14  C   UNL     1       3.535   2.691  20.387  0.00  0.00    +0.000 A 
ATOM     15  C   UNL     1       2.681   2.551  21.484  0.00  0.00    +0.000 A 
ATOM     16  C   UNL     1       1.367   3.005  21.405  0.00  0.00    +0.000 A 
ATOM     17  C   UNL     1       0.925   3.656  20.255  0.00  0.00    +0.000 A 
ATOM     18  C   UNL     1       1.795   3.843  19.179  0.00  0.00    +0.000 A 
ENDBRANCH   9  13
ENDBRANCH   2   5
BRANCH   1  19
ATOM     19  C   UNL     1       8.292   9.429  18.007  0.00  0.00    +0.000 C 
BRANCH  19  20
ATOM     20  C   UNL     1       9.578  10.143  18.415  0.00  0.00    +0.000 C 
BRANCH  20  24
ATOM     21  C   UNL     1       8.819  13.392  21.157  0.00  0.00    +0.000 A 
ATOM     22  C   UNL     1       8.815  13.616  19.779  0.00  0.00    +0.000 A 
ATOM     23  C   UNL     1       9.055  12.568  18.888  0.00  0.00    +0.000 A 
ATOM     24  C   UNL     1       9.316  11.279  19.368  0.00  0.00    +0.000 A 
ATOM     25  C   UNL     1       9.355  11.066  20.751  0.00  0.00    +0.000 A 
ATOM     26  C   UNL     1       9.106  12.117  21.642  0.00  0.00    +0.000 A 
BRANCH  21  28
ATOM     27  C   UNL     1       8.610  14.286  23.335  0.00  0.00    +0.000 C 
ATOM     28  O   UNL     1       8.568  14.493  21.928  0.00  0.00    +0.000 OA
ENDBRANCH  21  28
ENDBRANCH  20  24
ENDBRANCH  19  20
ENDBRANCH   1  19
TORSDOF 6
ENDMDL
MODEL 6
REMARK VINA RESULT:      -8.6      1.364      1.956
REMARK  Name = 
REMARK  7 active torsions:
REMARK  status: ('A' for Active; 'I' for Inactive)
REMARK    1  A    between atoms: C_1  and  O_2
REMARK    2  A    between atoms: O_2  and  C_3
REMARK    3  A    between atoms: C_6  and  C_7
REMARK    4  A    between atoms: C_7  and  C_8
REMARK    5  A    between atoms: C_8  and  N_9
REMARK    6  A    between atoms: C_10  and  C_12
REMARK    7  A    between atoms: C_16  and  C_18
REMARK                            x       y       z     vdW  Elec       q    Type
REMARK                         _______ _______ _______ _____ _____    ______ ____
ROOT
ATOM      1  N   UNL     1       8.295   8.011  18.420  0.00  0.00    +0.000 N 
ATOM      2  C   UNL     1       7.584   7.077  17.706  0.00  0.00    +0.000 C 
ATOM      3  O   UNL     1       6.968   7.361  16.684  0.00  0.00    +0.000 OA
ATOM      4  H   UNL     1       8.509   7.807  19.388  0.00  0.00    +0.000 HD
ENDROOT
BRANCH   2   5
ATOM      5  C   UNL     1       7.594   5.669  18.307  0.00  0.00    +0.000 C 
ATOM      6  C   UNL     1       7.393   4.575  17.243  0.00  0.00    +0.000 C 
ATOM      7  C   UNL     1       5.931   4.388  16.820  0.00  0.00    +0.000 C 
ATOM      8  N   UNL     1       5.042   4.321  17.980  0.00  0.00    +0.000 N 
ATOM      9  C   UNL     1       4.101   3.291  18.053  0.00  0.00    +0.000 C 
ATOM     10  O   UNL     1       4.002   2.434  17.172  0.00  0.00    +0.000 OA
ATOM     11  C   UNL     1       5.134   5.497  18.841  0.00  0.00    +0.000 C 
ATOM     12  C   UNL     1       6.545   5.554  19.425  0.00  0.00    +0.000 C 
BRANCH   9  13
ATOM     13  C   UNL     1       3.144   3.188  19.197  0.00  0.00    +0.000 A 
ATOM     14  C   UNL     1       1.816   3.585  18.977  0.00  0.00    +0.000 A 
ATOM     15  C   UNL     1       0.880   3.542  20.014  0.00  0.00    +0.000 A 
ATOM     16  C   UNL     1       1.267   3.117  21.283  0.00  0.00    +0.000 A 
ATOM     17  C   UNL     1       2.571   2.675  21.500  0.00  0.00    +0.000 A 
ATOM     18  C   UNL     1       3.491   2.667  20.449  0.00  0.00    +0.000 A 
ENDBRANCH   9  13
ENDBRANCH   2   5
BRANCH   1  19
ATOM     19  C   UNL     1       8.291   9.396  17.981  0.00  0.00    +0.000 C 
BRANCH  19  20
ATOM     20  C   UNL     1       9.534  10.146  18.448  0.00  0.00    +0.000 C 
BRANCH  20  24
ATOM     21  C   UNL     1       8.624  14.171  19.723  0.00  0.00    +0.000 A 
ATOM     22  C   UNL     1       8.997  13.203  20.657  0.00  0.00    +0.000 A 
ATOM     23  C   UNL     1       9.296  11.901  20.249  0.00  0.00    +0.000 A 
ATOM     24  C   UNL     1       9.214  11.547  18.897  0.00  0.00    +0.000 A 
ATOM     25  C   UNL     1       8.805  12.513  17.969  0.00  0.00    +0.000 A 
ATOM     26  C   UNL     1       8.513  13.819  18.379  0.00  0.00    +0.000 A 
BRANCH  21  28
ATOM     27  C   UNL     1       6.983  15.762  20.326  0.00  0.00    +0.000 C 
ATOM     28  O   UNL     1       8.359  15.409  20.241  0.00  0.00    +0.000 OA
ENDBRANCH  21  28
ENDBRANCH  20  24
ENDBRANCH  19  20
ENDBRANCH   1  19
TORSDOF 6
ENDMDL
MODEL 7
REMARK VINA RESULT:      -8.3      1.595      1.936
REMARK  Name = 
REMARK  7 active torsions:
REMARK  status: ('A' for Active; 'I' for Inactive)
REMARK    1  A    between atoms: C_1  and  O_2
REMARK    2  A    between atoms: O_2  and  C_3
REMARK    3  A    between atoms: C_6  and  C_7
REMARK    4  A    between atoms: C_7  and  C_8
REMARK    5  A    between atoms: C_8  and  N_9
REMARK    6  A    between atoms: C_10  and  C_12
REMARK    7  A    between atoms: C_16  and  C_18
REMARK                            x       y       z     vdW  Elec       q    Type
REMARK                         _______ _______ _______ _____ _____    ______ ____
ROOT
ATOM      1  N   UNL     1       8.302   7.967  18.737  0.00  0.00    +0.000 N 
ATOM      2  C   UNL     1       7.831   7.062  17.817  0.00  0.00    +0.000 C 
ATOM      3  O   UNL     1       7.487   7.394  16.687  0.00  0.00    +0.000 OA
ATOM      4  H   UNL     1       8.268   7.711  19.716  0.00  0.00    +0.000 HD
ENDROOT
BRANCH   2   5
ATOM      5  C   UNL     1       7.738   5.622  18.327  0.00  0.00    +0.000 C 
ATOM      6  C   UNL     1       7.438   4.617  17.199  0.00  0.00    +0.000 C 
ATOM      7  C   UNL     1       5.961   4.573  16.789  0.00  0.00    +0.000 C 
ATOM      8  N   UNL     1       5.083   4.500  17.957  0.00  0.00    +0.000 N 
ATOM      9  C   UNL     1       4.065   3.544  17.980  0.00  0.00    +0.000 C 
ATOM     10  O   UNL     1       3.889   2.756  17.048  0.00  0.00    +0.000 OA
ATOM     11  C   UNL     1       5.278   5.606  18.890  0.00  0.00    +0.000 C 
ATOM     12  C   UNL     1       6.695   5.516  19.453  0.00  0.00    +0.000 C 
BRANCH   9  13
ATOM     13  C   UNL     1       3.117   3.441  19.132  0.00  0.00    +0.000 A 
ATOM     14  C   UNL     1       3.573   2.813  20.300  0.00  0.00    +0.000 A 
ATOM     15  C   UNL     1       2.727   2.659  21.401  0.00  0.00    +0.000 A 
ATOM     16  C   UNL     1       1.413   3.117  21.338  0.00  0.00    +0.000 A 
ATOM     17  C   UNL     1       0.964   3.785  20.200  0.00  0.00    +0.000 A 
ATOM     18  C   UNL     1       1.828   3.987  19.121  0.00  0.00    +0.000 A 
ENDBRANCH   9  13
ENDBRANCH   2   5
BRANCH   1  19
ATOM     19  C   UNL     1       8.361   9.375  18.385  0.00  0.00    +0.000 C 
BRANCH  19  20
ATOM     20  C   UNL     1       9.731   9.980  18.676  0.00  0.00    +0.000 C 
BRANCH  20  24
ATOM     21  C   UNL     1       9.452  13.646  20.942  0.00  0.00    +0.000 A 
ATOM     22  C   UNL     1       9.267  12.413  21.569  0.00  0.00    +0.000 A 
ATOM     23  C   UNL     1       9.360  11.224  20.842  0.00  0.00    +0.000 A 
ATOM     24  C   UNL     1       9.629  11.256  19.468  0.00  0.00    +0.000 A 
ATOM     25  C   UNL     1       9.778  12.496  18.836  0.00  0.00    +0.000 A 
ATOM     26  C   UNL     1       9.693  13.685  19.569  0.00  0.00    +0.000 A 
BRANCH  21  28
ATOM     27  C   UNL     1       8.243  15.603  21.485  0.00  0.00    +0.000 C 
ATOM     28  O   UNL     1       9.340  14.739  21.757  0.00  0.00    +0.000 OA
ENDBRANCH  21  28
ENDBRANCH  20  24
ENDBRANCH  19  20
ENDBRANCH   1  19
TORSDOF 6
ENDMDL
MODEL 8
REMARK VINA RESULT:      -8.1      5.257      8.425
REMARK  Name = 
REMARK  7 active torsions:
REMARK  status: ('A' for Active; 'I' for Inactive)
REMARK    1  A    between atoms: C_1  and  O_2
REMARK    2  A    between atoms: O_2  and  C_3
REMARK    3  A    between atoms: C_6  and  C_7
REMARK    4  A    between atoms: C_7  and  C_8
REMARK    5  A    between atoms: C_8  and  N_9
REMARK    6  A    between atoms: C_10  and  C_12
REMARK    7  A    between atoms: C_16  and  C_18
REMARK                            x       y       z     vdW  Elec       q    Type
REMARK                         _______ _______ _______ _____ _____    ______ ____
ROOT
ATOM      1  N   UNL     1       3.008   5.817  20.159  0.00  0.00    +0.000 N 
ATOM      2  C   UNL     1       2.898   4.748  19.303  0.00  0.00    +0.000 C 
ATOM      3  O   UNL     1       1.823   4.389  18.835  0.00  0.00    +0.000 OA
ATOM      4  H   UNL     1       3.829   5.872  20.748  0.00  0.00    +0.000 HD
ENDROOT
BRANCH   2   5
ATOM      5  C   UNL     1       4.216   4.024  19.012  0.00  0.00    +0.000 C 
ATOM      6  C   UNL     1       5.445   4.909  19.291  0.00  0.00    +0.000 C 
ATOM      7  C   UNL     1       5.746   5.917  18.174  0.00  0.00    +0.000 C 
ATOM      8  N   UNL     1       5.701   5.283  16.856  0.00  0.00    +0.000 N 
ATOM      9  C   UNL     1       6.753   5.505  15.963  0.00  0.00    +0.000 C 
ATOM     10  O   UNL     1       7.718   6.214  16.255  0.00  0.00    +0.000 OA
ATOM     11  C   UNL     1       4.423   4.637  16.574  0.00  0.00    +0.000 C 
ATOM     12  C   UNL     1       4.232   3.494  17.569  0.00  0.00    +0.000 C 
BRANCH   9  13
ATOM     13  C   UNL     1       6.749   4.911  14.591  0.00  0.00    +0.000 A 
ATOM     14  C   UNL     1       7.635   5.446  13.644  0.00  0.00    +0.000 A 
ATOM     15  C   UNL     1       7.659   4.956  12.335  0.00  0.00    +0.000 A 
ATOM     16  C   UNL     1       6.787   3.937  11.959  0.00  0.00    +0.000 A 
ATOM     17  C   UNL     1       5.938   3.365  12.904  0.00  0.00    +0.000 A 
ATOM     18  C   UNL     1       5.953   3.820  14.224  0.00  0.00    +0.000 A 
ENDBRANCH   9  13
ENDBRANCH   2   5
BRANCH   1  19
ATOM     19  C   UNL     1       1.807   6.529  20.563  0.00  0.00    +0.000 C 
BRANCH  19  20
ATOM     20  C   UNL     1       1.698   7.892  19.887  0.00  0.00    +0.000 C 
BRANCH  20  24
ATOM     21  C   UNL     1      -0.260  10.811  22.396  0.00  0.00    +0.000 A 
ATOM     22  C   UNL     1       0.166   9.594  22.930  0.00  0.00    +0.000 A 
ATOM     23  C   UNL     1       0.804   8.648  22.124  0.00  0.00    +0.000 A 
ATOM     24  C   UNL     1       1.013   8.906  20.764  0.00  0.00    +0.000 A 
ATOM     25  C   UNL     1       0.551  10.112  20.225  0.00  0.00    +0.000 A 
ATOM     26  C   UNL     1      -0.080  11.062  21.036  0.00  0.00    +0.000 A 
BRANCH  21  28
ATOM     27  C   UNL     1      -2.136  12.165  22.883  0.00  0.00    +0.000 C 
ATOM     28  O   UNL     1      -0.869  11.657  23.283  0.00  0.00    +0.000 OA
ENDBRANCH  21  28
ENDBRANCH  20  24
ENDBRANCH  19  20
ENDBRANCH   1  19
TORSDOF 6
ENDMDL
MODEL 9
REMARK VINA RESULT:      -8.0      1.600      1.799
REMARK  Name = 
REMARK  7 active torsions:
REMARK  status: ('A' for Active; 'I' for Inactive)
REMARK    1  A    between atoms: C_1  and  O_2
REMARK    2  A    between atoms: O_2  and  C_3
REMARK    3  A    between atoms: C_6  and  C_7
REMARK    4  A    between atoms: C_7  and  C_8
REMARK    5  A    between atoms: C_8  and  N_9
REMARK    6  A    between atoms: C_10  and  C_12
REMARK    7  A    between atoms: C_16  and  C_18
REMARK                            x       y       z     vdW  Elec       q    Type
REMARK                         _______ _______ _______ _____ _____    ______ ____
ROOT
ATOM      1  N   UNL     1       7.908   8.106  17.575  0.00  0.00    +0.000 N 
ATOM      2  C   UNL     1       7.721   6.862  18.126  0.00  0.00    +0.000 C 
ATOM      3  O   UNL     1       8.226   6.534  19.194  0.00  0.00    +0.000 OA
ATOM      4  H   UNL     1       7.746   8.216  16.581  0.00  0.00    +0.000 HD
ENDROOT
BRANCH   2   5
ATOM      5  C   UNL     1       6.863   5.913  17.284  0.00  0.00    +0.000 C 
ATOM      6  C   UNL     1       5.742   6.650  16.527  0.00  0.00    +0.000 C 
ATOM      7  C   UNL     1       4.526   6.983  17.400  0.00  0.00    +0.000 C 
ATOM      8  N   UNL     1       4.107   5.829  18.196  0.00  0.00    +0.000 N 
ATOM      9  C   UNL     1       2.756   5.472  18.211  0.00  0.00    +0.000 C 
ATOM     10  O   UNL     1       1.909   6.096  17.569  0.00  0.00    +0.000 OA
ATOM     11  C   UNL     1       5.168   5.308  19.052  0.00  0.00    +0.000 C 
ATOM     12  C   UNL     1       6.292   4.785  18.158  0.00  0.00    +0.000 C 
BRANCH   9  13
ATOM     13  C   UNL     1       2.262   4.323  19.031  0.00  0.00    +0.000 A 
ATOM     14  C   UNL     1       1.919   4.574  20.368  0.00  0.00    +0.000 A 
ATOM     15  C   UNL     1       1.480   3.537  21.196  0.00  0.00    +0.000 A 
ATOM     16  C   UNL     1       1.395   2.239  20.698  0.00  0.00    +0.000 A 
ATOM     17  C   UNL     1       1.687   1.987  19.359  0.00  0.00    +0.000 A 
ATOM     18  C   UNL     1       2.074   3.035  18.519  0.00  0.00    +0.000 A 
ENDBRANCH   9  13
ENDBRANCH   2   5
BRANCH   1  19
ATOM     19  C   UNL     1       8.768   9.062  18.253  0.00  0.00    +0.000 C 
BRANCH  19  20
ATOM     20  C   UNL     1       8.193  10.474  18.213  0.00  0.00    +0.000 C 
BRANCH  20  24
ATOM     21  C   UNL     1      11.275  13.478  18.582  0.00  0.00    +0.000 A 
ATOM     22  C   UNL     1      10.045  13.645  19.222  0.00  0.00    +0.000 A 
ATOM     23  C   UNL     1       9.047  12.675  19.109  0.00  0.00    +0.000 A 
ATOM     24  C   UNL     1       9.264  11.525  18.341  0.00  0.00    +0.000 A 
ATOM     25  C   UNL     1      10.485  11.378  17.672  0.00  0.00    +0.000 A 
ATOM     26  C   UNL     1      11.486  12.348  17.793  0.00  0.00    +0.000 A 
BRANCH  21  28
ATOM     27  C   UNL     1      11.794  15.758  18.242  0.00  0.00    +0.000 C 
ATOM     28  O   UNL     1      12.173  14.492  18.768  0.00  0.00    +0.000 OA
ENDBRANCH  21  28
ENDBRANCH  20  24
ENDBRANCH  19  20
ENDBRANCH   1  19
TORSDOF 6
ENDMDL
