MODEL 1
REMARK VINA RESULT:      -9.0      0.000      0.000
REMARK  Name = 
REMARK  9 active torsions:
REMARK  status: ('A' for Active; 'I' for Inactive)
REMARK    1  A    between atoms: C_1  and  C_2
REMARK    2  A    between atoms: C_3  and  N_4
REMARK    3  A    between atoms: C_5  and  C_7
REMARK    4  A    between atoms: C_10  and  O_11
REMARK    5  A    between atoms: O_11  and  C_12
REMARK    6  A    between atoms: C_12  and  C_13
REMARK    7  A    between atoms: C_22  and  C_23
REMARK    8  A    between atoms: C_23  and  C_24
REMARK    9  A    between atoms: C_23  and  N_25
REMARK                            x       y       z     vdW  Elec       q    Type
REMARK                         _______ _______ _______ _____ _____    ______ ____
ROOT
ATOM      1  C   UNL     1       0.686   9.837  18.129  0.00  0.00    +0.000 C 
ATOM      2  C   UNL     1       0.689   9.555  19.613  0.00  0.00    +0.000 A 
ATOM      3  C   UNL     1       1.492   8.546  20.172  0.00  0.00    +0.000 A 
ATOM      4  C   UNL     1       1.514   8.339  21.550  0.00  0.00    +0.000 A 
ATOM      5  C   UNL     1       0.702   9.109  22.380  0.00  0.00    +0.000 A 
ATOM      6  C   UNL     1      -0.102  10.127  21.839  0.00  0.00    +0.000 A 
ATOM      7  C   UNL     1      -0.903  10.953  22.655  0.00  0.00    +0.000 A 
ATOM      8  C   UNL     1      -1.644  11.994  22.085  0.00  0.00    +0.000 A 
ATOM      9  C   UNL     1      -1.577  12.114  20.706  0.00  0.00    +0.000 A 
ATOM     10  N   UNL     1      -0.848  11.323  19.893  0.00  0.00    +0.000 NA
ATOM     11  C   UNL     1      -0.103  10.352  20.439  0.00  0.00    +0.000 A 
ENDROOT
BRANCH   3  12
ATOM     12  N   UNL     1       2.226   7.713  19.314  0.00  0.00    +0.000 N 
ATOM     13  C   UNL     1       2.268   6.336  19.392  0.00  0.00    +0.000 C 
ATOM     14  O   UNL     1       1.684   5.644  20.218  0.00  0.00    +0.000 OA
ATOM     15  H   UNL     1       2.880   8.185  18.707  0.00  0.00    +0.000 HD
BRANCH  13  16
ATOM     16  C   UNL     1       3.115   5.687  18.354  0.00  0.00    +0.000 A 
ATOM     17  C   UNL     1       2.940   4.347  17.992  0.00  0.00    +0.000 A 
ATOM     18  C   UNL     1       3.849   3.733  17.134  0.00  0.00    +0.000 A 
ATOM     19  C   UNL     1       4.900   4.464  16.577  0.00  0.00    +0.000 A 
ATOM     20  C   UNL     1       5.048   5.813  16.904  0.00  0.00    +0.000 A 
ATOM     21  C   UNL     1       4.153   6.429  17.782  0.00  0.00    +0.000 A 
BRANCH  19  22
ATOM     22  O   UNL     1       5.823   3.959  15.700  0.00  0.00    +0.000 OA
BRANCH  22  23
ATOM     23  C   UNL     1       5.748   4.500  14.381  0.00  0.00    +0.000 C 
BRANCH  23  24
ATOM     24  C   UNL     1       6.221   3.483  13.395  0.00  0.00    +0.000 C 
ATOM     25  C   UNL     1       5.435   3.293  12.123  0.00  0.00    +0.000 C 
ATOM     26  C   UNL     1       6.804   3.913  12.073  0.00  0.00    +0.000 C 
ENDBRANCH  23  24
ENDBRANCH  22  23
ENDBRANCH  19  22
ENDBRANCH  13  16
ENDBRANCH   3  12
BRANCH   8  27
ATOM     27  C   UNL     1      -2.561  12.950  22.837  0.00  0.00    +0.000 C 
ATOM     28  C   UNL     1      -2.518  14.329  22.165  0.00  0.00    +0.000 C 
BRANCH  27  29
ATOM     29  N   UNL     1      -3.918  12.499  23.102  0.00  0.00    +0.000 NA
ATOM     30  C   UNL     1      -4.964  12.784  22.137  0.00  0.00    +0.000 C 
ATOM     31  C   UNL     1      -6.128  13.277  22.976  0.00  0.00    +0.000 C 
ATOM     32  C   UNL     1      -5.935  12.602  24.323  0.00  0.00    +0.000 C 
ATOM     33  C   UNL     1      -4.431  12.417  24.453  0.00  0.00    +0.000 C 
ENDBRANCH  27  29
ENDBRANCH   8  27
TORSDOF 7
ENDMDL
MODEL 2
REMARK VINA RESULT:      -8.5      0.976      2.088
REMARK  Name = 
REMARK  9 active torsions:
REMARK  status: ('A' for Active; 'I' for Inactive)
REMARK    1  A    between atoms: C_1  and  C_2
REMARK    2  A    between atoms: C_3  and  N_4
REMARK    3  A    between atoms: C_5  and  C_7
REMARK    4  A    between atoms: C_10  and  O_11
REMARK    5  A    between atoms: O_11  and  C_12
REMARK    6  A    between atoms: C_12  and  C_13
REMARK    7  A    between atoms: C_22  and  C_23
REMARK    8  A    between atoms: C_23  and  C_24
REMARK    9  A    between atoms: C_23  and  N_25
REMARK                            x       y       z     vdW  Elec       q    Type
REMARK                         _______ _______ _______ _____ _____    ______ ____
ROOT
ATOM      1  C   UNL     1       0.511   9.927  18.311  0.00  0.00    +0.000 C 
ATOM      2  C   UNL     1       0.484   9.698  19.804  0.00  0.00    +0.000 A 
ATOM      3  C   UNL     1       1.309   8.740  20.419  0.00  0.00    +0.000 A 
ATOM      4  C   UNL     1       1.302   8.583  21.805  0.00  0.00    +0.000 A 
ATOM      5  C   UNL     1       0.441   9.351  22.585  0.00  0.00    +0.000 A 
ATOM      6  C   UNL     1      -0.385  10.318  21.987  0.00  0.00    +0.000 A 
ATOM      7  C   UNL     1      -1.238  11.142  22.753  0.00  0.00    +0.000 A 
ATOM      8  C   UNL     1      -2.001  12.133  22.126  0.00  0.00    +0.000 A 
ATOM      9  C   UNL     1      -1.902  12.207  20.746  0.00  0.00    +0.000 A 
ATOM     10  N   UNL     1      -1.124  11.416  19.980  0.00  0.00    +0.000 NA
ATOM     11  C   UNL     1      -0.358  10.493  20.580  0.00  0.00    +0.000 A 
ENDROOT
BRANCH   3  12
ATOM     12  N   UNL     1       2.095   7.906  19.611  0.00  0.00    +0.000 N 
ATOM     13  C   UNL     1       2.215   6.540  19.763  0.00  0.00    +0.000 C 
ATOM     14  O   UNL     1       1.665   5.861  20.623  0.00  0.00    +0.000 OA
ATOM     15  H   UNL     1       2.727   8.381  18.982  0.00  0.00    +0.000 HD
BRANCH  13  16
ATOM     16  C   UNL     1       3.105   5.885  18.766  0.00  0.00    +0.000 A 
ATOM     17  C   UNL     1       3.896   6.628  17.884  0.00  0.00    +0.000 A 
ATOM     18  C   UNL     1       4.595   5.986  16.865  0.00  0.00    +0.000 A 
ATOM     19  C   UNL     1       4.566   4.594  16.756  0.00  0.00    +0.000 A 
ATOM     20  C   UNL     1       3.811   3.850  17.665  0.00  0.00    +0.000 A 
ATOM     21  C   UNL     1       3.090   4.490  18.675  0.00  0.00    +0.000 A 
BRANCH  19  22
ATOM     22  O   UNL     1       5.244   3.870  15.811  0.00  0.00    +0.000 OA
BRANCH  22  23
ATOM     23  C   UNL     1       5.642   4.618  14.662  0.00  0.00    +0.000 C 
BRANCH  23  24
ATOM     24  C   UNL     1       6.268   3.703  13.661  0.00  0.00    +0.000 C 
ATOM     25  C   UNL     1       5.499   3.376  12.406  0.00  0.00    +0.000 C 
ATOM     26  C   UNL     1       6.733   4.232  12.328  0.00  0.00    +0.000 C 
ENDBRANCH  23  24
ENDBRANCH  22  23
ENDBRANCH  19  22
ENDBRANCH  13  16
ENDBRANCH   3  12
BRANCH   8  27
ATOM     27  C   UNL     1      -2.973  13.080  22.819  0.00  0.00    +0.000 C 
ATOM     28  C   UNL     1      -3.644  12.351  23.991  0.00  0.00    +0.000 C 
BRANCH  27  29
ATOM     29  N   UNL     1      -2.471  14.393  23.191  0.00  0.00    +0.000 NA
ATOM     30  C   UNL     1      -2.670  15.513  22.290  0.00  0.00    +0.000 C 
ATOM     31  C   UNL     1      -1.323  16.211  22.253  0.00  0.00    +0.000 C 
ATOM     32  C   UNL     1      -0.696  15.894  23.599  0.00  0.00    +0.000 C 
ATOM     33  C   UNL     1      -1.269  14.540  23.986  0.00  0.00    +0.000 C 
ENDBRANCH  27  29
ENDBRANCH   8  27
TORSDOF 7
ENDMDL
MODEL 3
REMARK VINA RESULT:      -8.5      3.214     11.461
REMARK  Name = 
REMARK  9 active torsions:
REMARK  status: ('A' for Active; 'I' for Inactive)
REMARK    1  A    between atoms: C_1  and  C_2
REMARK    2  A    between atoms: C_3  and  N_4
REMARK    3  A    between atoms: C_5  and  C_7
REMARK    4  A    between atoms: C_10  and  O_11
REMARK    5  A    between atoms: O_11  and  C_12
REMARK    6  A    between atoms: C_12  and  C_13
REMARK    7  A    between atoms: C_22  and  C_23
REMARK    8  A    between atoms: C_23  and  C_24
REMARK    9  A    between atoms: C_23  and  N_25
REMARK                            x       y       z     vdW  Elec       q    Type
REMARK                         _______ _______ _______ _____ _____    ______ ____
ROOT
ATOM      1  C   UNL     1       0.459   8.198  21.858  0.00  0.00    +0.000 C 
ATOM      2  C   UNL     1       0.880   8.609  20.467  0.00  0.00    +0.000 A 
ATOM      3  C   UNL     1       0.409   9.792  19.871  0.00  0.00    +0.000 A 
ATOM      4  C   UNL     1       0.852  10.175  18.606  0.00  0.00    +0.000 A 
ATOM      5  C   UNL     1       1.736   9.358  17.905  0.00  0.00    +0.000 A 
ATOM      6  C   UNL     1       2.222   8.175  18.488  0.00  0.00    +0.000 A 
ATOM      7  C   UNL     1       3.151   7.347  17.822  0.00  0.00    +0.000 A 
ATOM      8  C   UNL     1       3.656   6.209  18.460  0.00  0.00    +0.000 A 
ATOM      9  C   UNL     1       3.155   5.937  19.722  0.00  0.00    +0.000 A 
ATOM     10  N   UNL     1       2.244   6.687  20.375  0.00  0.00    +0.000 NA
ATOM     11  C   UNL     1       1.789   7.801  19.785  0.00  0.00    +0.000 A 
ENDROOT
BRANCH   3  12
ATOM     12  N   UNL     1      -0.557  10.551  20.548  0.00  0.00    +0.000 N 
ATOM     13  C   UNL     1      -0.300  11.701  21.267  0.00  0.00    +0.000 C 
ATOM     14  O   UNL     1       0.799  12.219  21.426  0.00  0.00    +0.000 OA
ATOM     15  H   UNL     1      -1.467  10.122  20.630  0.00  0.00    +0.000 HD
BRANCH  13  16
ATOM     16  C   UNL     1      -1.503  12.324  21.883  0.00  0.00    +0.000 A 
ATOM     17  C   UNL     1      -2.032  11.867  23.095  0.00  0.00    +0.000 A 
ATOM     18  C   UNL     1      -3.244  12.370  23.560  0.00  0.00    +0.000 A 
ATOM     19  C   UNL     1      -3.907  13.379  22.857  0.00  0.00    +0.000 A 
ATOM     20  C   UNL     1      -3.356  13.865  21.670  0.00  0.00    +0.000 A 
ATOM     21  C   UNL     1      -2.152  13.349  21.187  0.00  0.00    +0.000 A 
BRANCH  19  22
ATOM     22  O   UNL     1      -5.085  13.959  23.249  0.00  0.00    +0.000 OA
BRANCH  22  23
ATOM     23  C   UNL     1      -5.986  13.079  23.921  0.00  0.00    +0.000 C 
BRANCH  23  24
ATOM     24  C   UNL     1      -7.319  13.118  23.247  0.00  0.00    +0.000 C 
ATOM     25  C   UNL     1      -7.375  12.931  21.753  0.00  0.00    +0.000 C 
ATOM     26  C   UNL     1      -7.916  11.863  22.662  0.00  0.00    +0.000 C 
ENDBRANCH  23  24
ENDBRANCH  22  23
ENDBRANCH  19  22
ENDBRANCH  13  16
ENDBRANCH   3  12
BRANCH   8  27
ATOM     27  C   UNL     1       4.647   5.218  17.860  0.00  0.00    +0.000 C 
ATOM     28  C   UNL     1       5.984   5.322  18.607  0.00  0.00    +0.000 C 
BRANCH  27  29
ATOM     29  N   UNL     1       4.199   3.844  17.702  0.00  0.00    +0.000 NA
ATOM     30  C   UNL     1       2.966   3.574  16.987  0.00  0.00    +0.000 C 
ATOM     31  C   UNL     1       2.240   2.563  17.854  0.00  0.00    +0.000 C 
ATOM     32  C   UNL     1       3.349   1.827  18.585  0.00  0.00    +0.000 C 
ATOM     33  C   UNL     1       4.472   2.845  18.715  0.00  0.00    +0.000 C 
ENDBRANCH  27  29
ENDBRANCH   8  27
TORSDOF 7
ENDMDL
MODEL 4
REMARK VINA RESULT:      -8.5      1.476      2.067
REMARK  Name = 
REMARK  9 active torsions:
REMARK  status: ('A' for Active; 'I' for Inactive)
REMARK    1  A    between atoms: C_1  and  C_2
REMARK    2  A    between atoms: C_3  and  N_4
REMARK    3  A    between atoms: C_5  and  C_7
REMARK    4  A    between atoms: C_10  and  O_11
REMARK    5  A    between atoms: O_11  and  C_12
REMARK    6  A    between atoms: C_12  and  C_13
REMARK    7  A    between atoms: C_22  and  C_23
REMARK    8  A    between atoms: C_23  and  C_24
REMARK    9  A    between atoms: C_23  and  N_25
REMARK                            x       y       z     vdW  Elec       q    Type
REMARK                         _______ _______ _______ _____ _____    ______ ____
ROOT
ATOM      1  C   UNL     1       0.377  10.062  18.848  0.00  0.00    +0.000 C 
ATOM      2  C   UNL     1       0.320   9.860  20.344  0.00  0.00    +0.000 A 
ATOM      3  C   UNL     1       1.151   8.932  20.996  0.00  0.00    +0.000 A 
ATOM      4  C   UNL     1       1.115   8.800  22.383  0.00  0.00    +0.000 A 
ATOM      5  C   UNL     1       0.217   9.561  23.129  0.00  0.00    +0.000 A 
ATOM      6  C   UNL     1      -0.616  10.498  22.494  0.00  0.00    +0.000 A 
ATOM      7  C   UNL     1      -1.505  11.315  23.224  0.00  0.00    +0.000 A 
ATOM      8  C   UNL     1      -2.275  12.277  22.561  0.00  0.00    +0.000 A 
ATOM      9  C   UNL     1      -2.145  12.328  21.183  0.00  0.00    +0.000 A 
ATOM     10  N   UNL     1      -1.330  11.543  20.450  0.00  0.00    +0.000 NA
ATOM     11  C   UNL     1      -0.558  10.649  21.085  0.00  0.00    +0.000 A 
ENDROOT
BRANCH   3  12
ATOM     12  N   UNL     1       1.976   8.103  20.222  0.00  0.00    +0.000 N 
ATOM     13  C   UNL     1       1.969   6.723  20.258  0.00  0.00    +0.000 C 
ATOM     14  O   UNL     1       1.255   6.026  20.970  0.00  0.00    +0.000 OA
ATOM     15  H   UNL     1       2.722   8.570  19.729  0.00  0.00    +0.000 HD
BRANCH  13  16
ATOM     16  C   UNL     1       2.935   6.078  19.329  0.00  0.00    +0.000 A 
ATOM     17  C   UNL     1       3.593   4.888  19.658  0.00  0.00    +0.000 A 
ATOM     18  C   UNL     1       4.602   4.398  18.833  0.00  0.00    +0.000 A 
ATOM     19  C   UNL     1       4.921   5.053  17.641  0.00  0.00    +0.000 A 
ATOM     20  C   UNL     1       4.233   6.217  17.292  0.00  0.00    +0.000 A 
ATOM     21  C   UNL     1       3.235   6.725  18.125  0.00  0.00    +0.000 A 
BRANCH  19  22
ATOM     22  O   UNL     1       5.873   4.632  16.750  0.00  0.00    +0.000 OA
BRANCH  22  23
ATOM     23  C   UNL     1       5.366   4.271  15.465  0.00  0.00    +0.000 C 
BRANCH  23  24
ATOM     24  C   UNL     1       6.499   3.894  14.568  0.00  0.00    +0.000 C 
ATOM     25  C   UNL     1       6.228   3.736  13.094  0.00  0.00    +0.000 C 
ATOM     26  C   UNL     1       7.058   4.890  13.584  0.00  0.00    +0.000 C 
ENDBRANCH  23  24
ENDBRANCH  22  23
ENDBRANCH  19  22
ENDBRANCH  13  16
ENDBRANCH   3  12
BRANCH   8  27
ATOM     27  C   UNL     1      -3.285  13.214  23.214  0.00  0.00    +0.000 C 
ATOM     28  C   UNL     1      -4.056  12.452  24.300  0.00  0.00    +0.000 C 
BRANCH  27  29
ATOM     29  N   UNL     1      -2.795  14.503  23.674  0.00  0.00    +0.000 NA
ATOM     30  C   UNL     1      -1.380  14.671  23.946  0.00  0.00    +0.000 C 
ATOM     31  C   UNL     1      -1.334  15.404  25.273  0.00  0.00    +0.000 C 
ATOM     32  C   UNL     1      -2.632  16.192  25.314  0.00  0.00    +0.000 C 
ATOM     33  C   UNL     1      -3.615  15.366  24.499  0.00  0.00    +0.000 C 
ENDBRANCH  27  29
ENDBRANCH   8  27
TORSDOF 7
ENDMDL
MODEL 5
REMARK VINA RESULT:      -8.4      2.836     11.732
REMARK  Name = 
REMARK  9 active torsions:
REMARK  status: ('A' for Active; 'I' for Inactive)
REMARK    1  A    between atoms: C_1  and  C_2
REMARK    2  A    between atoms: C_3  and  N_4
REMARK    3  A    between atoms: C_5  and  C_7
REMARK    4  A    between atoms: C_10  and  O_11
REMARK    5  A    between atoms: O_11  and  C_12
REMARK    6  A    between atoms: C_12  and  C_13
REMARK    7  A    between atoms: C_22  and  C_23
REMARK    8  A    between atoms: C_23  and  C_24
REMARK    9  A    between atoms: C_23  and  N_25
REMARK                            x       y       z     vdW  Elec       q    Type
REMARK                         _______ _______ _______ _____ _____    ______ ____
ROOT
ATOM      1  C   UNL     1       0.755   8.315  21.678  0.00  0.00    +0.000 C 
ATOM      2  C   UNL     1       1.282   8.463  20.270  0.00  0.00    +0.000 A 
ATOM      3  C   UNL     1       1.065   9.631  19.519  0.00  0.00    +0.000 A 
ATOM      4  C   UNL     1       1.605   9.763  18.240  0.00  0.00    +0.000 A 
ATOM      5  C   UNL     1       2.329   8.712  17.683  0.00  0.00    +0.000 A 
ATOM      6  C   UNL     1       2.561   7.539  18.422  0.00  0.00    +0.000 A 
ATOM      7  C   UNL     1       3.326   6.474  17.903  0.00  0.00    +0.000 A 
ATOM      8  C   UNL     1       3.584   5.348  18.692  0.00  0.00    +0.000 A 
ATOM      9  C   UNL     1       3.009   5.334  19.952  0.00  0.00    +0.000 A 
ATOM     10  N   UNL     1       2.246   6.319  20.469  0.00  0.00    +0.000 NA
ATOM     11  C   UNL     1       2.032   7.419  19.732  0.00  0.00    +0.000 A 
ENDROOT
BRANCH   3  12
ATOM     12  N   UNL     1       0.250  10.639  20.056  0.00  0.00    +0.000 N 
ATOM     13  C   UNL     1      -1.046  10.902  19.661  0.00  0.00    +0.000 C 
ATOM     14  O   UNL     1      -1.667  10.308  18.787  0.00  0.00    +0.000 OA
ATOM     15  H   UNL     1       0.716  11.300  20.659  0.00  0.00    +0.000 HD
BRANCH  13  16
ATOM     16  C   UNL     1      -1.699  12.019  20.397  0.00  0.00    +0.000 A 
ATOM     17  C   UNL     1      -1.154  12.546  21.573  0.00  0.00    +0.000 A 
ATOM     18  C   UNL     1      -1.870  13.480  22.316  0.00  0.00    +0.000 A 
ATOM     19  C   UNL     1      -3.105  13.948  21.861  0.00  0.00    +0.000 A 
ATOM     20  C   UNL     1      -3.628  13.455  20.664  0.00  0.00    +0.000 A 
ATOM     21  C   UNL     1      -2.924  12.501  19.926  0.00  0.00    +0.000 A 
BRANCH  19  22
ATOM     22  O   UNL     1      -3.868  14.889  22.502  0.00  0.00    +0.000 OA
BRANCH  22  23
ATOM     23  C   UNL     1      -5.275  14.660  22.432  0.00  0.00    +0.000 C 
BRANCH  23  24
ATOM     24  C   UNL     1      -5.771  14.177  23.755  0.00  0.00    +0.000 C 
ATOM     25  C   UNL     1      -7.259  14.066  23.969  0.00  0.00    +0.000 C 
ATOM     26  C   UNL     1      -6.419  12.822  23.880  0.00  0.00    +0.000 C 
ENDBRANCH  23  24
ENDBRANCH  22  23
ENDBRANCH  19  22
ENDBRANCH  13  16
ENDBRANCH   3  12
BRANCH   8  27
ATOM     27  C   UNL     1       4.376   4.120  18.260  0.00  0.00    +0.000 C 
ATOM     28  C   UNL     1       3.482   3.215  17.401  0.00  0.00    +0.000 C 
BRANCH  27  29
ATOM     29  N   UNL     1       5.682   4.347  17.663  0.00  0.00    +0.000 NA
ATOM     30  C   UNL     1       6.618   5.242  18.316  0.00  0.00    +0.000 C 
ATOM     31  C   UNL     1       7.163   6.105  17.193  0.00  0.00    +0.000 C 
ATOM     32  C   UNL     1       7.056   5.228  15.958  0.00  0.00    +0.000 C 
ATOM     33  C   UNL     1       5.864   4.321  16.226  0.00  0.00    +0.000 C 
ENDBRANCH  27  29
ENDBRANCH   8  27
TORSDOF 7
ENDMDL
MODEL 6
REMARK VINA RESULT:      -8.4      2.723     11.545
REMARK  Name = 
REMARK  9 active torsions:
REMARK  status: ('A' for Active; 'I' for Inactive)
REMARK    1  A    between atoms: C_1  and  C_2
REMARK    2  A    between atoms: C_3  and  N_4
REMARK    3  A    between atoms: C_5  and  C_7
REMARK    4  A    between atoms: C_10  and  O_11
REMARK    5  A    between atoms: O_11  and  C_12
REMARK    6  A    between atoms: C_12  and  C_13
REMARK    7  A    between atoms: C_22  and  C_23
REMARK    8  A    between atoms: C_23  and  C_24
REMARK    9  A    between atoms: C_23  and  N_25
REMARK                            x       y       z     vdW  Elec       q    Type
REMARK                         _______ _______ _______ _____ _____    ______ ____
ROOT
ATOM      1  C   UNL     1       0.575   8.047  21.498  0.00  0.00    +0.000 C 
ATOM      2  C   UNL     1       1.117   8.448  20.146  0.00  0.00    +0.000 A 
ATOM      3  C   UNL     1       0.728   9.646  19.520  0.00  0.00    +0.000 A 
ATOM      4  C   UNL     1       1.281  10.018  18.296  0.00  0.00    +0.000 A 
ATOM      5  C   UNL     1       2.194   9.177  17.663  0.00  0.00    +0.000 A 
ATOM      6  C   UNL     1       2.599   7.980  18.278  0.00  0.00    +0.000 A 
ATOM      7  C   UNL     1       3.553   7.127  17.684  0.00  0.00    +0.000 A 
ATOM      8  C   UNL     1       3.974   5.974  18.355  0.00  0.00    +0.000 A 
ATOM      9  C   UNL     1       3.367   5.713  19.573  0.00  0.00    +0.000 A 
ATOM     10  N   UNL     1       2.429   6.487  20.154  0.00  0.00    +0.000 NA
ATOM     11  C   UNL     1       2.054   7.616  19.535  0.00  0.00    +0.000 A 
ENDROOT
BRANCH   3  12
ATOM     12  N   UNL     1      -0.267  10.431  20.122  0.00  0.00    +0.000 N 
ATOM     13  C   UNL     1      -0.040  11.403  21.075  0.00  0.00    +0.000 C 
ATOM     14  O   UNL     1       1.051  11.715  21.538  0.00  0.00    +0.000 OA
ATOM     15  H   UNL     1      -1.216  10.139  19.944  0.00  0.00    +0.000 HD
BRANCH  13  16
ATOM     16  C   UNL     1      -1.266  12.101  21.547  0.00  0.00    +0.000 A 
ATOM     17  C   UNL     1      -1.824  11.845  22.804  0.00  0.00    +0.000 A 
ATOM     18  C   UNL     1      -3.054  12.399  23.146  0.00  0.00    +0.000 A 
ATOM     19  C   UNL     1      -3.709  13.266  22.268  0.00  0.00    +0.000 A 
ATOM     20  C   UNL     1      -3.130  13.556  21.031  0.00  0.00    +0.000 A 
ATOM     21  C   UNL     1      -1.907  12.985  20.672  0.00  0.00    +0.000 A 
BRANCH  19  22
ATOM     22  O   UNL     1      -4.903  13.885  22.527  0.00  0.00    +0.000 OA
BRANCH  22  23
ATOM     23  C   UNL     1      -6.035  13.014  22.532  0.00  0.00    +0.000 C 
BRANCH  23  24
ATOM     24  C   UNL     1      -6.254  12.471  21.158  0.00  0.00    +0.000 C 
ATOM     25  C   UNL     1      -7.353  11.460  20.952  0.00  0.00    +0.000 C 
ATOM     26  C   UNL     1      -7.489  12.843  20.377  0.00  0.00    +0.000 C 
ENDBRANCH  23  24
ENDBRANCH  22  23
ENDBRANCH  19  22
ENDBRANCH  13  16
ENDBRANCH   3  12
BRANCH   8  27
ATOM     27  C   UNL     1       4.980   4.956  17.832  0.00  0.00    +0.000 C 
ATOM     28  C   UNL     1       4.426   3.540  18.040  0.00  0.00    +0.000 C 
BRANCH  27  29
ATOM     29  N   UNL     1       5.497   5.162  16.488  0.00  0.00    +0.000 NA
ATOM     30  C   UNL     1       4.959   4.381  15.391  0.00  0.00    +0.000 C 
ATOM     31  C   UNL     1       6.181   3.925  14.616  0.00  0.00    +0.000 C 
ATOM     32  C   UNL     1       7.220   5.000  14.883  0.00  0.00    +0.000 C 
ATOM     33  C   UNL     1       6.878   5.536  16.265  0.00  0.00    +0.000 C 
ENDBRANCH  27  29
ENDBRANCH   8  27
TORSDOF 7
ENDMDL
MODEL 7
REMARK VINA RESULT:      -8.4      2.971     11.727
REMARK  Name = 
REMARK  9 active torsions:
REMARK  status: ('A' for Active; 'I' for Inactive)
REMARK    1  A    between atoms: C_1  and  C_2
REMARK    2  A    between atoms: C_3  and  N_4
REMARK    3  A    between atoms: C_5  and  C_7
REMARK    4  A    between atoms: C_10  and  O_11
REMARK    5  A    between atoms: O_11  and  C_12
REMARK    6  A    between atoms: C_12  and  C_13
REMARK    7  A    between atoms: C_22  and  C_23
REMARK    8  A    between atoms: C_23  and  C_24
REMARK    9  A    between atoms: C_23  and  N_25
REMARK                            x       y       z     vdW  Elec       q    Type
REMARK                         _______ _______ _______ _____ _____    ______ ____
ROOT
ATOM      1  C   UNL     1       0.476   8.300  21.799  0.00  0.00    +0.000 C 
ATOM      2  C   UNL     1       1.015   8.555  20.411  0.00  0.00    +0.000 A 
ATOM      3  C   UNL     1       0.748   9.751  19.722  0.00  0.00    +0.000 A 
ATOM      4  C   UNL     1       1.299   9.983  18.463  0.00  0.00    +0.000 A 
ATOM      5  C   UNL     1       2.087   9.005  17.861  0.00  0.00    +0.000 A 
ATOM      6  C   UNL     1       2.371   7.807  18.538  0.00  0.00    +0.000 A 
ATOM      7  C   UNL     1       3.201   6.814  17.975  0.00  0.00    +0.000 A 
ATOM      8  C   UNL     1       3.508   5.661  18.705  0.00  0.00    +0.000 A 
ATOM      9  C   UNL     1       2.915   5.546  19.952  0.00  0.00    +0.000 A 
ATOM     10  N   UNL     1       2.092   6.458  20.508  0.00  0.00    +0.000 NA
ATOM     11  C   UNL     1       1.830   7.584  19.830  0.00  0.00    +0.000 A 
ENDROOT
BRANCH   3  12
ATOM     12  N   UNL     1      -0.130  10.681  20.299  0.00  0.00    +0.000 N 
ATOM     13  C   UNL     1       0.257  11.789  21.025  0.00  0.00    +0.000 C 
ATOM     14  O   UNL     1       1.410  12.118  21.277  0.00  0.00    +0.000 OA
ATOM     15  H   UNL     1      -1.104  10.415  20.303  0.00  0.00    +0.000 HD
BRANCH  13  16
ATOM     16  C   UNL     1      -0.871  12.625  21.520  0.00  0.00    +0.000 A 
ATOM     17  C   UNL     1      -0.695  13.577  22.529  0.00  0.00    +0.000 A 
ATOM     18  C   UNL     1      -1.799  14.227  23.074  0.00  0.00    +0.000 A 
ATOM     19  C   UNL     1      -3.081  13.984  22.575  0.00  0.00    +0.000 A 
ATOM     20  C   UNL     1      -3.250  13.065  21.537  0.00  0.00    +0.000 A 
ATOM     21  C   UNL     1      -2.149  12.393  21.002  0.00  0.00    +0.000 A 
BRANCH  19  22
ATOM     22  O   UNL     1      -4.222  14.595  23.022  0.00  0.00    +0.000 OA
BRANCH  22  23
ATOM     23  C   UNL     1      -5.435  13.956  22.621  0.00  0.00    +0.000 C 
BRANCH  23  24
ATOM     24  C   UNL     1      -6.140  13.423  23.824  0.00  0.00    +0.000 C 
ATOM     25  C   UNL     1      -7.515  13.951  24.145  0.00  0.00    +0.000 C 
ATOM     26  C   UNL     1      -7.348  12.534  23.671  0.00  0.00    +0.000 C 
ENDBRANCH  23  24
ENDBRANCH  22  23
ENDBRANCH  19  22
ENDBRANCH  13  16
ENDBRANCH   3  12
BRANCH   8  27
ATOM     27  C   UNL     1       4.372   4.503  18.221  0.00  0.00    +0.000 C 
ATOM     28  C   UNL     1       3.616   3.725  17.135  0.00  0.00    +0.000 C 
BRANCH  27  29
ATOM     29  N   UNL     1       5.741   4.810  17.839  0.00  0.00    +0.000 NA
ATOM     30  C   UNL     1       6.606   5.496  18.781  0.00  0.00    +0.000 C 
ATOM     31  C   UNL     1       7.288   6.570  17.954  0.00  0.00    +0.000 C 
ATOM     32  C   UNL     1       7.314   6.002  16.546  0.00  0.00    +0.000 C 
ATOM     33  C   UNL     1       6.089   5.105  16.465  0.00  0.00    +0.000 C 
ENDBRANCH  27  29
ENDBRANCH   8  27
TORSDOF 7
ENDMDL
MODEL 8
REMARK VINA RESULT:      -8.3      1.973      2.994
REMARK  Name = 
REMARK  9 active torsions:
REMARK  status: ('A' for Active; 'I' for Inactive)
REMARK    1  A    between atoms: C_1  and  C_2
REMARK    2  A    between atoms: C_3  and  N_4
REMARK    3  A    between atoms: C_5  and  C_7
REMARK    4  A    between atoms: C_10  and  O_11
REMARK    5  A    between atoms: O_11  and  C_12
REMARK    6  A    between atoms: C_12  and  C_13
REMARK    7  A    between atoms: C_22  and  C_23
REMARK    8  A    between atoms: C_23  and  C_24
REMARK    9  A    between atoms: C_23  and  N_25
REMARK                            x       y       z     vdW  Elec       q    Type
REMARK                         _______ _______ _______ _____ _____    ______ ____
ROOT
ATOM      1  C   UNL     1       0.179  10.390  18.845  0.00  0.00    +0.000 C 
ATOM      2  C   UNL     1       0.139  10.121  20.331  0.00  0.00    +0.000 A 
ATOM      3  C   UNL     1       0.991   9.181  20.935  0.00  0.00    +0.000 A 
ATOM      4  C   UNL     1       0.969   8.988  22.315  0.00  0.00    +0.000 A 
ATOM      5  C   UNL     1       0.066   9.701  23.101  0.00  0.00    +0.000 A 
ATOM      6  C   UNL     1      -0.788  10.650  22.514  0.00  0.00    +0.000 A 
ATOM      7  C   UNL     1      -1.684  11.419  23.286  0.00  0.00    +0.000 A 
ATOM      8  C   UNL     1      -2.477  12.395  22.673  0.00  0.00    +0.000 A 
ATOM      9  C   UNL     1      -2.360  12.508  21.297  0.00  0.00    +0.000 A 
ATOM     10  N   UNL     1      -1.539  11.769  20.524  0.00  0.00    +0.000 NA
ATOM     11  C   UNL     1      -0.746  10.862  21.113  0.00  0.00    +0.000 A 
ENDROOT
BRANCH   3  12
ATOM     12  N   UNL     1       1.823   8.400  20.118  0.00  0.00    +0.000 N 
ATOM     13  C   UNL     1       1.919   7.024  20.172  0.00  0.00    +0.000 C 
ATOM     14  O   UNL     1       1.306   6.290  20.938  0.00  0.00    +0.000 OA
ATOM     15  H   UNL     1       2.499   8.912  19.572  0.00  0.00    +0.000 HD
BRANCH  13  16
ATOM     16  C   UNL     1       2.868   6.435  19.189  0.00  0.00    +0.000 A 
ATOM     17  C   UNL     1       3.588   5.268  19.467  0.00  0.00    +0.000 A 
ATOM     18  C   UNL     1       4.579   4.835  18.590  0.00  0.00    +0.000 A 
ATOM     19  C   UNL     1       4.815   5.521  17.397  0.00  0.00    +0.000 A 
ATOM     20  C   UNL     1       4.065   6.660  17.099  0.00  0.00    +0.000 A 
ATOM     21  C   UNL     1       3.086   7.113  17.985  0.00  0.00    +0.000 A 
BRANCH  19  22
ATOM     22  O   UNL     1       5.743   5.155  16.456  0.00  0.00    +0.000 OA
BRANCH  22  23
ATOM     23  C   UNL     1       7.044   5.708  16.658  0.00  0.00    +0.000 C 
BRANCH  23  24
ATOM     24  C   UNL     1       6.972   6.797  17.678  0.00  0.00    +0.000 C 
ATOM     25  C   UNL     1       8.143   6.991  18.607  0.00  0.00    +0.000 C 
ATOM     26  C   UNL     1       7.843   8.020  17.552  0.00  0.00    +0.000 C 
ENDBRANCH  23  24
ENDBRANCH  22  23
ENDBRANCH  19  22
ENDBRANCH  13  16
ENDBRANCH   3  12
BRANCH   8  27
ATOM     27  C   UNL     1      -3.496  13.285  23.374  0.00  0.00    +0.000 C 
ATOM     28  C   UNL     1      -4.306  12.443  24.369  0.00  0.00    +0.000 C 
BRANCH  27  29
ATOM     29  N   UNL     1      -3.008  14.524  23.957  0.00  0.00    +0.000 NA
ATOM     30  C   UNL     1      -1.924  15.238  23.309  0.00  0.00    +0.000 C 
ATOM     31  C   UNL     1      -0.984  15.608  24.441  0.00  0.00    +0.000 C 
ATOM     32  C   UNL     1      -1.884  15.711  25.659  0.00  0.00    +0.000 C 
ATOM     33  C   UNL     1      -3.018  14.734  25.390  0.00  0.00    +0.000 C 
ENDBRANCH  27  29
ENDBRANCH   8  27
TORSDOF 7
ENDMDL
MODEL 9
REMARK VINA RESULT:      -8.3      3.312     11.678
REMARK  Name = 
REMARK  9 active torsions:
REMARK  status: ('A' for Active; 'I' for Inactive)
REMARK    1  A    between atoms: C_1  and  C_2
REMARK    2  A    between atoms: C_3  and  N_4
REMARK    3  A    between atoms: C_5  and  C_7
REMARK    4  A    between atoms: C_10  and  O_11
REMARK    5  A    between atoms: O_11  and  C_12
REMARK    6  A    between atoms: C_12  and  C_13
REMARK    7  A    between atoms: C_22  and  C_23
REMARK    8  A    between atoms: C_23  and  C_24
REMARK    9  A    between atoms: C_23  and  N_25
REMARK                            x       y       z     vdW  Elec       q    Type
REMARK                         _______ _______ _______ _____ _____    ______ ____
ROOT
ATOM      1  C   UNL     1       0.518   8.389  21.841  0.00  0.00    +0.000 C 
ATOM      2  C   UNL     1       0.928   8.755  20.434  0.00  0.00    +0.000 A 
ATOM      3  C   UNL     1       0.498   9.946  19.824  0.00  0.00    +0.000 A 
ATOM      4  C   UNL     1       0.931  10.285  18.543  0.00  0.00    +0.000 A 
ATOM      5  C   UNL     1       1.764   9.416  17.842  0.00  0.00    +0.000 A 
ATOM      6  C   UNL     1       2.210   8.225  18.438  0.00  0.00    +0.000 A 
ATOM      7  C   UNL     1       3.088   7.344  17.772  0.00  0.00    +0.000 A 
ATOM      8  C   UNL     1       3.556   6.197  18.422  0.00  0.00    +0.000 A 
ATOM      9  C   UNL     1       3.069   5.971  19.699  0.00  0.00    +0.000 A 
ATOM     10  N   UNL     1       2.205   6.773  20.354  0.00  0.00    +0.000 NA
ATOM     11  C   UNL     1       1.788   7.895  19.751  0.00  0.00    +0.000 A 
ENDROOT
BRANCH   3  12
ATOM     12  N   UNL     1      -0.421  10.760  20.505  0.00  0.00    +0.000 N 
ATOM     13  C   UNL     1      -0.088  11.852  21.279  0.00  0.00    +0.000 C 
ATOM     14  O   UNL     1       1.046  12.265  21.492  0.00  0.00    +0.000 OA
ATOM     15  H   UNL     1      -1.367  10.409  20.542  0.00  0.00    +0.000 HD
BRANCH  13  16
ATOM     16  C   UNL     1      -1.252  12.554  21.886  0.00  0.00    +0.000 A 
ATOM     17  C   UNL     1      -1.952  12.018  22.972  0.00  0.00    +0.000 A 
ATOM     18  C   UNL     1      -3.127  12.624  23.411  0.00  0.00    +0.000 A 
ATOM     19  C   UNL     1      -3.578  13.804  22.817  0.00  0.00    +0.000 A 
ATOM     20  C   UNL     1      -2.855  14.362  21.761  0.00  0.00    +0.000 A 
ATOM     21  C   UNL     1      -1.688  13.748  21.301  0.00  0.00    +0.000 A 
BRANCH  19  22
ATOM     22  O   UNL     1      -4.701  14.491  23.199  0.00  0.00    +0.000 OA
BRANCH  22  23
ATOM     23  C   UNL     1      -4.516  15.899  23.344  0.00  0.00    +0.000 C 
BRANCH  23  24
ATOM     24  C   UNL     1      -4.207  16.218  24.770  0.00  0.00    +0.000 C 
ATOM     25  C   UNL     1      -2.765  16.394  25.172  0.00  0.00    +0.000 C 
ATOM     26  C   UNL     1      -3.688  17.580  25.154  0.00  0.00    +0.000 C 
ENDBRANCH  23  24
ENDBRANCH  22  23
ENDBRANCH  19  22
ENDBRANCH  13  16
ENDBRANCH   3  12
BRANCH   8  27
ATOM     27  C   UNL     1       4.490   5.152  17.823  0.00  0.00    +0.000 C 
ATOM     28  C   UNL     1       5.849   5.221  18.532  0.00  0.00    +0.000 C 
BRANCH  27  29
ATOM     29  N   UNL     1       3.984   3.794  17.713  0.00  0.00    +0.000 NA
ATOM     30  C   UNL     1       2.686   3.564  17.106  0.00  0.00    +0.000 C 
ATOM     31  C   UNL     1       2.002   2.581  18.037  0.00  0.00    +0.000 C 
ATOM     32  C   UNL     1       3.144   1.811  18.676  0.00  0.00    +0.000 C 
ATOM     33  C   UNL     1       4.307   2.790  18.705  0.00  0.00    +0.000 C 
ENDBRANCH  27  29
ENDBRANCH   8  27
TORSDOF 7
ENDMDL
