MODEL 1
REMARK VINA RESULT:      -8.8      0.000      0.000
REMARK  Name = 
REMARK  8 active torsions:
REMARK  status: ('A' for Active; 'I' for Inactive)
REMARK    1  A    between atoms: C_1  and  O_2
REMARK    2  A    between atoms: O_2  and  C_3
REMARK    3  A    between atoms: C_7  and  C_8
REMARK    4  A    between atoms: C_9  and  C_10
REMARK    5  A    between atoms: C_10  and  C_12
REMARK    6  A    between atoms: C_13  and  O_14
REMARK    7  A    between atoms: C_17  and  C_18
REMARK    8  A    between atoms: C_19  and  C_20
REMARK                            x       y       z     vdW  Elec       q    Type
REMARK                         _______ _______ _______ _____ _____    ______ ____
ROOT
ATOM      1  C   UNL     1       6.654   6.278  18.099  0.00  0.00    +0.000 A 
ATOM      2  C   UNL     1       5.379   6.273  17.646  0.00  0.00    +0.000 A 
ATOM      3  C   UNL     1       4.399   5.355  18.223  0.00  0.00    +0.000 A 
ATOM      4  C   UNL     1       3.174   5.044  17.625  0.00  0.00    +0.000 A 
ATOM      5  C   UNL     1       2.263   4.159  18.238  0.00  0.00    +0.000 A 
ATOM      6  C   UNL     1       0.976   3.841  17.526  0.00  0.00    +0.000 C 
ATOM      7  C   UNL     1       2.575   3.606  19.498  0.00  0.00    +0.000 A 
ATOM      8  C   UNL     1       1.650   2.686  20.248  0.00  0.00    +0.000 C 
ATOM      9  C   UNL     1       3.802   3.926  20.095  0.00  0.00    +0.000 A 
ATOM     10  C   UNL     1       4.700   4.762  19.438  0.00  0.00    +0.000 A 
ATOM     11  O   UNL     1       5.957   4.934  20.022  0.00  0.00    +0.000 OA
ATOM     12  C   UNL     1       6.994   5.342  19.201  0.00  0.00    +0.000 A 
ATOM     13  O   UNL     1       8.141   4.985  19.450  0.00  0.00    +0.000 OA
ENDROOT
BRANCH   1  14
ATOM     14  C   UNL     1       7.633   7.204  17.439  0.00  0.00    +0.000 C 
ATOM     15  O   UNL     1       7.895   7.077  16.240  0.00  0.00    +0.000 OA
BRANCH  14  17
ATOM     16  C   UNL     1       8.371   9.544  17.732  0.00  0.00    +0.000 C 
ATOM     17  C   UNL     1       8.263   8.299  18.224  0.00  0.00    +0.000 C 
BRANCH  16  22
ATOM     18  C   UNL     1       9.740  12.969  18.648  0.00  0.00    +0.000 A 
ATOM     19  C   UNL     1      10.168  12.731  19.954  0.00  0.00    +0.000 A 
ATOM     20  C   UNL     1      10.003  11.472  20.532  0.00  0.00    +0.000 A 
ATOM     21  C   UNL     1       9.406  10.441  19.805  0.00  0.00    +0.000 A 
ATOM     22  C   UNL     1       8.958  10.661  18.498  0.00  0.00    +0.000 A 
ATOM     23  C   UNL     1       9.140  11.934  17.928  0.00  0.00    +0.000 A 
BRANCH  18  25
ATOM     24  C   UNL     1      11.062  14.395  17.280  0.00  0.00    +0.000 C 
ATOM     25  O   UNL     1       9.974  14.236  18.183  0.00  0.00    +0.000 OA
ENDBRANCH  18  25
ENDBRANCH  16  22
ENDBRANCH  14  17
ENDBRANCH   1  14
BRANCH   2  26
ATOM     26  O   UNL     1       4.879   7.096  16.653  0.00  0.00    +0.000 OA
ATOM     27  H   UNL     1       4.283   7.764  17.064  0.00  0.00    +0.000 HD
ENDBRANCH   2  26
TORSDOF 5
ENDMDL
MODEL 2
REMARK VINA RESULT:      -8.5      1.092      1.822
REMARK  Name = 
REMARK  8 active torsions:
REMARK  status: ('A' for Active; 'I' for Inactive)
REMARK    1  A    between atoms: C_1  and  O_2
REMARK    2  A    between atoms: O_2  and  C_3
REMARK    3  A    between atoms: C_7  and  C_8
REMARK    4  A    between atoms: C_9  and  C_10
REMARK    5  A    between atoms: C_10  and  C_12
REMARK    6  A    between atoms: C_13  and  O_14
REMARK    7  A    between atoms: C_17  and  C_18
REMARK    8  A    between atoms: C_19  and  C_20
REMARK                            x       y       z     vdW  Elec       q    Type
REMARK                         _______ _______ _______ _____ _____    ______ ____
ROOT
ATOM      1  C   UNL     1       6.442   6.291  17.980  0.00  0.00    +0.000 A 
ATOM      2  C   UNL     1       5.177   6.188  17.510  0.00  0.00    +0.000 A 
ATOM      3  C   UNL     1       4.200   5.354  18.207  0.00  0.00    +0.000 A 
ATOM      4  C   UNL     1       2.995   4.927  17.643  0.00  0.00    +0.000 A 
ATOM      5  C   UNL     1       2.085   4.132  18.372  0.00  0.00    +0.000 A 
ATOM      6  C   UNL     1       0.820   3.679  17.696  0.00  0.00    +0.000 C 
ATOM      7  C   UNL     1       2.379   3.792  19.709  0.00  0.00    +0.000 A 
ATOM      8  C   UNL     1       1.455   2.984  20.579  0.00  0.00    +0.000 C 
ATOM      9  C   UNL     1       3.588   4.228  20.271  0.00  0.00    +0.000 A 
ATOM     10  C   UNL     1       4.485   4.967  19.506  0.00  0.00    +0.000 A 
ATOM     11  O   UNL     1       5.726   5.256  20.079  0.00  0.00    +0.000 OA
ATOM     12  C   UNL     1       6.773   5.549  19.223  0.00  0.00    +0.000 A 
ATOM     13  O   UNL     1       7.921   5.260  19.547  0.00  0.00    +0.000 OA
ENDROOT
BRANCH   1  14
ATOM     14  C   UNL     1       7.419   7.121  17.200  0.00  0.00    +0.000 C 
ATOM     15  O   UNL     1       7.965   6.654  16.196  0.00  0.00    +0.000 OA
BRANCH  14  17
ATOM     16  C   UNL     1       8.697   8.811  18.471  0.00  0.00    +0.000 C 
ATOM     17  C   UNL     1       7.702   8.520  17.617  0.00  0.00    +0.000 C 
BRANCH  16  22
ATOM     18  C   UNL     1       9.502  11.854  20.601  0.00  0.00    +0.000 A 
ATOM     19  C   UNL     1       9.554  12.844  19.620  0.00  0.00    +0.000 A 
ATOM     20  C   UNL     1       9.340  12.522  18.280  0.00  0.00    +0.000 A 
ATOM     21  C   UNL     1       9.072  11.202  17.912  0.00  0.00    +0.000 A 
ATOM     22  C   UNL     1       9.028  10.191  18.877  0.00  0.00    +0.000 A 
ATOM     23  C   UNL     1       9.238  10.535  20.225  0.00  0.00    +0.000 A 
BRANCH  18  25
ATOM     24  C   UNL     1       8.598  12.224  22.768  0.00  0.00    +0.000 C 
ATOM     25  O   UNL     1       9.708  12.293  21.882  0.00  0.00    +0.000 OA
ENDBRANCH  18  25
ENDBRANCH  16  22
ENDBRANCH  14  17
ENDBRANCH   1  14
BRANCH   2  26
ATOM     26  O   UNL     1       4.685   6.833  16.390  0.00  0.00    +0.000 OA
ATOM     27  H   UNL     1       4.275   7.686  16.667  0.00  0.00    +0.000 HD
ENDBRANCH   2  26
TORSDOF 5
ENDMDL
MODEL 3
REMARK VINA RESULT:      -8.2      6.696      9.477
REMARK  Name = 
REMARK  8 active torsions:
REMARK  status: ('A' for Active; 'I' for Inactive)
REMARK    1  A    between atoms: C_1  and  O_2
REMARK    2  A    between atoms: O_2  and  C_3
REMARK    3  A    between atoms: C_7  and  C_8
REMARK    4  A    between atoms: C_9  and  C_10
REMARK    5  A    between atoms: C_10  and  C_12
REMARK    6  A    between atoms: C_13  and  O_14
REMARK    7  A    between atoms: C_17  and  C_18
REMARK    8  A    between atoms: C_19  and  C_20
REMARK                            x       y       z     vdW  Elec       q    Type
REMARK                         _______ _______ _______ _____ _____    ______ ____
ROOT
ATOM      1  C   UNL     1       0.858  10.193  19.512  0.00  0.00    +0.000 A 
ATOM      2  C   UNL     1      -0.101  11.121  19.288  0.00  0.00    +0.000 A 
ATOM      3  C   UNL     1      -0.984  11.542  20.374  0.00  0.00    +0.000 A 
ATOM      4  C   UNL     1      -2.186  12.229  20.181  0.00  0.00    +0.000 A 
ATOM      5  C   UNL     1      -2.990  12.620  21.273  0.00  0.00    +0.000 A 
ATOM      6  C   UNL     1      -4.287  13.329  20.995  0.00  0.00    +0.000 C 
ATOM      7  C   UNL     1      -2.556  12.345  22.586  0.00  0.00    +0.000 A 
ATOM      8  C   UNL     1      -3.324  12.757  23.813  0.00  0.00    +0.000 C 
ATOM      9  C   UNL     1      -1.347  11.659  22.774  0.00  0.00    +0.000 A 
ATOM     10  C   UNL     1      -0.605  11.243  21.672  0.00  0.00    +0.000 A 
ATOM     11  O   UNL     1       0.518  10.451  21.922  0.00  0.00    +0.000 OA
ATOM     12  C   UNL     1       0.980   9.653  20.890  0.00  0.00    +0.000 A 
ATOM     13  O   UNL     1       1.528   8.585  21.147  0.00  0.00    +0.000 OA
ENDROOT
BRANCH   1  14
ATOM     14  C   UNL     1       1.705   9.760  18.352  0.00  0.00    +0.000 C 
ATOM     15  O   UNL     1       2.338  10.595  17.701  0.00  0.00    +0.000 OA
BRANCH  14  17
ATOM     16  C   UNL     1       2.991   7.677  18.008  0.00  0.00    +0.000 C 
ATOM     17  C   UNL     1       1.809   8.316  18.009  0.00  0.00    +0.000 C 
BRANCH  16  22
ATOM     18  C   UNL     1       2.239   3.963  17.719  0.00  0.00    +0.000 A 
ATOM     19  C   UNL     1       3.454   3.496  17.218  0.00  0.00    +0.000 A 
ATOM     20  C   UNL     1       4.502   4.383  16.969  0.00  0.00    +0.000 A 
ATOM     21  C   UNL     1       4.339   5.747  17.218  0.00  0.00    +0.000 A 
ATOM     22  C   UNL     1       3.125   6.238  17.708  0.00  0.00    +0.000 A 
ATOM     23  C   UNL     1       2.082   5.329  17.962  0.00  0.00    +0.000 A 
BRANCH  18  25
ATOM     24  C   UNL     1       1.515   2.130  19.048  0.00  0.00    +0.000 C 
ATOM     25  O   UNL     1       1.294   2.998  17.942  0.00  0.00    +0.000 OA
ENDBRANCH  18  25
ENDBRANCH  16  22
ENDBRANCH  14  17
ENDBRANCH   1  14
BRANCH   2  26
ATOM     26  O   UNL     1      -0.335  11.754  18.081  0.00  0.00    +0.000 OA
ATOM     27  H   UNL     1       0.276  11.384  17.403  0.00  0.00    +0.000 HD
ENDBRANCH   2  26
TORSDOF 5
ENDMDL
MODEL 4
REMARK VINA RESULT:      -8.2      1.043      2.262
REMARK  Name = 
REMARK  8 active torsions:
REMARK  status: ('A' for Active; 'I' for Inactive)
REMARK    1  A    between atoms: C_1  and  O_2
REMARK    2  A    between atoms: O_2  and  C_3
REMARK    3  A    between atoms: C_7  and  C_8
REMARK    4  A    between atoms: C_9  and  C_10
REMARK    5  A    between atoms: C_10  and  C_12
REMARK    6  A    between atoms: C_13  and  O_14
REMARK    7  A    between atoms: C_17  and  C_18
REMARK    8  A    between atoms: C_19  and  C_20
REMARK                            x       y       z     vdW  Elec       q    Type
REMARK                         _______ _______ _______ _____ _____    ______ ____
ROOT
ATOM      1  C   UNL     1       5.812   6.191  17.646  0.00  0.00    +0.000 A 
ATOM      2  C   UNL     1       5.783   5.045  18.364  0.00  0.00    +0.000 A 
ATOM      3  C   UNL     1       4.510   4.514  18.850  0.00  0.00    +0.000 A 
ATOM      4  C   UNL     1       4.400   3.545  19.851  0.00  0.00    +0.000 A 
ATOM      5  C   UNL     1       3.142   3.063  20.269  0.00  0.00    +0.000 A 
ATOM      6  C   UNL     1       3.091   2.043  21.373  0.00  0.00    +0.000 C 
ATOM      7  C   UNL     1       1.973   3.540  19.641  0.00  0.00    +0.000 A 
ATOM      8  C   UNL     1       0.592   3.058  19.989  0.00  0.00    +0.000 C 
ATOM      9  C   UNL     1       2.090   4.509  18.634  0.00  0.00    +0.000 A 
ATOM     10  C   UNL     1       3.345   5.000  18.282  0.00  0.00    +0.000 A 
ATOM     11  O   UNL     1       3.384   6.057  17.370  0.00  0.00    +0.000 OA
ATOM     12  C   UNL     1       4.514   6.856  17.364  0.00  0.00    +0.000 A 
ATOM     13  O   UNL     1       4.418   8.041  17.060  0.00  0.00    +0.000 OA
ENDROOT
BRANCH   1  14
ATOM     14  C   UNL     1       7.148   6.719  17.213  0.00  0.00    +0.000 C 
ATOM     15  O   UNL     1       7.686   6.282  16.192  0.00  0.00    +0.000 OA
BRANCH  14  17
ATOM     16  C   UNL     1       7.988   9.027  17.490  0.00  0.00    +0.000 C 
ATOM     17  C   UNL     1       7.809   7.796  17.998  0.00  0.00    +0.000 C 
BRANCH  16  22
ATOM     18  C   UNL     1       9.283  12.464  18.465  0.00  0.00    +0.000 A 
ATOM     19  C   UNL     1       9.881  12.172  19.690  0.00  0.00    +0.000 A 
ATOM     20  C   UNL     1       9.853  10.873  20.198  0.00  0.00    +0.000 A 
ATOM     21  C   UNL     1       9.224   9.855  19.480  0.00  0.00    +0.000 A 
ATOM     22  C   UNL     1       8.607  10.127  18.254  0.00  0.00    +0.000 A 
ATOM     23  C   UNL     1       8.652  11.441  17.753  0.00  0.00    +0.000 A 
BRANCH  18  25
ATOM     24  C   UNL     1      10.089  14.651  18.933  0.00  0.00    +0.000 C 
ATOM     25  O   UNL     1       9.393  13.768  18.061  0.00  0.00    +0.000 OA
ENDBRANCH  18  25
ENDBRANCH  16  22
ENDBRANCH  14  17
ENDBRANCH   1  14
BRANCH   2  26
ATOM     26  O   UNL     1       6.886   4.277  18.691  0.00  0.00    +0.000 OA
ATOM     27  H   UNL     1       6.801   3.979  19.627  0.00  0.00    +0.000 HD
ENDBRANCH   2  26
TORSDOF 5
ENDMDL
MODEL 5
REMARK VINA RESULT:      -8.1      4.559      6.893
REMARK  Name = 
REMARK  8 active torsions:
REMARK  status: ('A' for Active; 'I' for Inactive)
REMARK    1  A    between atoms: C_1  and  O_2
REMARK    2  A    between atoms: O_2  and  C_3
REMARK    3  A    between atoms: C_7  and  C_8
REMARK    4  A    between atoms: C_9  and  C_10
REMARK    5  A    between atoms: C_10  and  C_12
REMARK    6  A    between atoms: C_13  and  O_14
REMARK    7  A    between atoms: C_17  and  C_18
REMARK    8  A    between atoms: C_19  and  C_20
REMARK                            x       y       z     vdW  Elec       q    Type
REMARK                         _______ _______ _______ _____ _____    ______ ____
ROOT
ATOM      1  C   UNL     1       5.811   4.907  17.473  0.00  0.00    +0.000 A 
ATOM      2  C   UNL     1       5.426   4.002  16.543  0.00  0.00    +0.000 A 
ATOM      3  C   UNL     1       5.885   4.130  15.161  0.00  0.00    +0.000 A 
ATOM      4  C   UNL     1       5.302   3.461  14.080  0.00  0.00    +0.000 A 
ATOM      5  C   UNL     1       5.799   3.615  12.769  0.00  0.00    +0.000 A 
ATOM      6  C   UNL     1       5.106   2.893  11.646  0.00  0.00    +0.000 C 
ATOM      7  C   UNL     1       6.928   4.430  12.547  0.00  0.00    +0.000 A 
ATOM      8  C   UNL     1       7.554   4.624  11.192  0.00  0.00    +0.000 C 
ATOM      9  C   UNL     1       7.512   5.094  13.635  0.00  0.00    +0.000 A 
ATOM     10  C   UNL     1       6.964   4.960  14.908  0.00  0.00    +0.000 A 
ATOM     11  O   UNL     1       7.507   5.751  15.923  0.00  0.00    +0.000 OA
ATOM     12  C   UNL     1       6.719   5.997  17.033  0.00  0.00    +0.000 A 
ATOM     13  O   UNL     1       6.847   7.053  17.646  0.00  0.00    +0.000 OA
ENDROOT
BRANCH   1  14
ATOM     14  C   UNL     1       5.272   4.759  18.865  0.00  0.00    +0.000 C 
ATOM     15  O   UNL     1       5.607   3.797  19.560  0.00  0.00    +0.000 OA
BRANCH  14  17
ATOM     16  C   UNL     1       3.369   6.325  18.686  0.00  0.00    +0.000 C 
ATOM     17  C   UNL     1       4.360   5.795  19.421  0.00  0.00    +0.000 C 
BRANCH  16  22
ATOM     18  C   UNL     1       1.192   9.425  19.002  0.00  0.00    +0.000 A 
ATOM     19  C   UNL     1       0.706   9.262  20.299  0.00  0.00    +0.000 A 
ATOM     20  C   UNL     1       1.074   8.151  21.057  0.00  0.00    +0.000 A 
ATOM     21  C   UNL     1       1.935   7.191  20.520  0.00  0.00    +0.000 A 
ATOM     22  C   UNL     1       2.424   7.328  19.216  0.00  0.00    +0.000 A 
ATOM     23  C   UNL     1       2.048   8.459  18.470  0.00  0.00    +0.000 A 
BRANCH  18  25
ATOM     24  C   UNL     1       0.836  11.773  19.112  0.00  0.00    +0.000 C 
ATOM     25  O   UNL     1       0.776  10.563  18.365  0.00  0.00    +0.000 OA
ENDBRANCH  18  25
ENDBRANCH  16  22
ENDBRANCH  14  17
ENDBRANCH   1  14
BRANCH   2  26
ATOM     26  O   UNL     1       4.615   2.908  16.779  0.00  0.00    +0.000 OA
ATOM     27  H   UNL     1       4.710   2.273  16.031  0.00  0.00    +0.000 HD
ENDBRANCH   2  26
TORSDOF 5
ENDMDL
MODEL 6
REMARK VINA RESULT:      -8.1      6.575      9.015
REMARK  Name = 
REMARK  8 active torsions:
REMARK  status: ('A' for Active; 'I' for Inactive)
REMARK    1  A    between atoms: C_1  and  O_2
REMARK    2  A    between atoms: O_2  and  C_3
REMARK    3  A    between atoms: C_7  and  C_8
REMARK    4  A    between atoms: C_9  and  C_10
REMARK    5  A    between atoms: C_10  and  C_12
REMARK    6  A    between atoms: C_13  and  O_14
REMARK    7  A    between atoms: C_17  and  C_18
REMARK    8  A    between atoms: C_19  and  C_20
REMARK                            x       y       z     vdW  Elec       q    Type
REMARK                         _______ _______ _______ _____ _____    ______ ____
ROOT
ATOM      1  C   UNL     1       0.855  10.076  19.421  0.00  0.00    +0.000 A 
ATOM      2  C   UNL     1      -0.063  11.049  19.216  0.00  0.00    +0.000 A 
ATOM      3  C   UNL     1      -0.955  11.457  20.301  0.00  0.00    +0.000 A 
ATOM      4  C   UNL     1      -2.125  12.199  20.112  0.00  0.00    +0.000 A 
ATOM      5  C   UNL     1      -2.938  12.574  21.201  0.00  0.00    +0.000 A 
ATOM      6  C   UNL     1      -4.202  13.343  20.927  0.00  0.00    +0.000 C 
ATOM      7  C   UNL     1      -2.546  12.227  22.511  0.00  0.00    +0.000 A 
ATOM      8  C   UNL     1      -3.325  12.617  23.738  0.00  0.00    +0.000 C 
ATOM      9  C   UNL     1      -1.368  11.488  22.695  0.00  0.00    +0.000 A 
ATOM     10  C   UNL     1      -0.617  11.091  21.592  0.00  0.00    +0.000 A 
ATOM     11  O   UNL     1       0.469  10.245  21.832  0.00  0.00    +0.000 OA
ATOM     12  C   UNL     1       0.924   9.474  20.776  0.00  0.00    +0.000 A 
ATOM     13  O   UNL     1       1.426   8.376  20.999  0.00  0.00    +0.000 OA
ENDROOT
BRANCH   1  14
ATOM     14  C   UNL     1       1.711   9.660  18.261  0.00  0.00    +0.000 C 
ATOM     15  O   UNL     1       2.318  10.509  17.603  0.00  0.00    +0.000 OA
BRANCH  14  17
ATOM     16  C   UNL     1       3.039   7.589  18.023  0.00  0.00    +0.000 C 
ATOM     17  C   UNL     1       1.856   8.217  17.927  0.00  0.00    +0.000 C 
BRANCH  16  22
ATOM     18  C   UNL     1       4.498   4.300  16.800  0.00  0.00    +0.000 A 
ATOM     19  C   UNL     1       3.454   3.428  17.110  0.00  0.00    +0.000 A 
ATOM     20  C   UNL     1       2.294   3.905  17.719  0.00  0.00    +0.000 A 
ATOM     21  C   UNL     1       2.171   5.262  18.024  0.00  0.00    +0.000 A 
ATOM     22  C   UNL     1       3.210   6.152  17.734  0.00  0.00    +0.000 A 
ATOM     23  C   UNL     1       4.370   5.655  17.111  0.00  0.00    +0.000 A 
BRANCH  18  25
ATOM     24  C   UNL     1       6.793   4.458  16.199  0.00  0.00    +0.000 C 
ATOM     25  O   UNL     1       5.576   3.720  16.186  0.00  0.00    +0.000 OA
ENDBRANCH  18  25
ENDBRANCH  16  22
ENDBRANCH  14  17
ENDBRANCH   1  14
BRANCH   2  26
ATOM     26  O   UNL     1      -0.246  11.741  18.033  0.00  0.00    +0.000 OA
ATOM     27  H   UNL     1      -0.997  12.370  18.144  0.00  0.00    +0.000 HD
ENDBRANCH   2  26
TORSDOF 5
ENDMDL
MODEL 7
REMARK VINA RESULT:      -8.1      4.670      7.100
REMARK  Name = 
REMARK  8 active torsions:
REMARK  status: ('A' for Active; 'I' for Inactive)
REMARK    1  A    between atoms: C_1  and  O_2
REMARK    2  A    between atoms: O_2  and  C_3
REMARK    3  A    between atoms: C_7  and  C_8
REMARK    4  A    between atoms: C_9  and  C_10
REMARK    5  A    between atoms: C_10  and  C_12
REMARK    6  A    between atoms: C_13  and  O_14
REMARK    7  A    between atoms: C_17  and  C_18
REMARK    8  A    between atoms: C_19  and  C_20
REMARK                            x       y       z     vdW  Elec       q    Type
REMARK                         _______ _______ _______ _____ _____    ______ ____
ROOT
ATOM      1  C   UNL     1       5.556   4.871  17.564  0.00  0.00    +0.000 A 
ATOM      2  C   UNL     1       5.025   4.104  16.583  0.00  0.00    +0.000 A 
ATOM      3  C   UNL     1       5.570   4.165  15.228  0.00  0.00    +0.000 A 
ATOM      4  C   UNL     1       4.907   3.677  14.098  0.00  0.00    +0.000 A 
ATOM      5  C   UNL     1       5.492   3.753  12.816  0.00  0.00    +0.000 A 
ATOM      6  C   UNL     1       4.713   3.240  11.637  0.00  0.00    +0.000 C 
ATOM      7  C   UNL     1       6.786   4.298  12.675  0.00  0.00    +0.000 A 
ATOM      8  C   UNL     1       7.507   4.384  11.358  0.00  0.00    +0.000 C 
ATOM      9  C   UNL     1       7.447   4.780  13.814  0.00  0.00    +0.000 A 
ATOM     10  C   UNL     1       6.819   4.736  15.055  0.00  0.00    +0.000 A 
ATOM     11  O   UNL     1       7.475   5.353  16.124  0.00  0.00    +0.000 OA
ATOM     12  C   UNL     1       6.706   5.739  17.208  0.00  0.00    +0.000 A 
ATOM     13  O   UNL     1       7.037   6.720  17.868  0.00  0.00    +0.000 OA
ENDROOT
BRANCH   1  14
ATOM     14  C   UNL     1       4.927   4.808  18.925  0.00  0.00    +0.000 C 
ATOM     15  O   UNL     1       5.226   3.899  19.704  0.00  0.00    +0.000 OA
BRANCH  14  17
ATOM     16  C   UNL     1       3.400   6.695  18.459  0.00  0.00    +0.000 C 
ATOM     17  C   UNL     1       3.969   5.865  19.349  0.00  0.00    +0.000 C 
BRANCH  16  22
ATOM     18  C   UNL     1       0.939   8.767  20.481  0.00  0.00    +0.000 A 
ATOM     19  C   UNL     1       0.481   9.646  19.500  0.00  0.00    +0.000 A 
ATOM     20  C   UNL     1       0.976   9.571  18.198  0.00  0.00    +0.000 A 
ATOM     21  C   UNL     1       1.936   8.612  17.869  0.00  0.00    +0.000 A 
ATOM     22  C   UNL     1       2.419   7.729  18.840  0.00  0.00    +0.000 A 
ATOM     23  C   UNL     1       1.903   7.814  20.146  0.00  0.00    +0.000 A 
BRANCH  18  25
ATOM     24  C   UNL     1      -0.002  10.247  22.086  0.00  0.00    +0.000 C 
ATOM     25  O   UNL     1       0.366   8.924  21.715  0.00  0.00    +0.000 OA
ENDBRANCH  18  25
ENDBRANCH  16  22
ENDBRANCH  14  17
ENDBRANCH   1  14
BRANCH   2  26
ATOM     26  O   UNL     1       3.977   3.215  16.740  0.00  0.00    +0.000 OA
ATOM     27  H   UNL     1       3.134   3.723  16.792  0.00  0.00    +0.000 HD
ENDBRANCH   2  26
TORSDOF 5
ENDMDL
MODEL 8
REMARK VINA RESULT:      -8.1      1.137      2.321
REMARK  Name = 
REMARK  8 active torsions:
REMARK  status: ('A' for Active; 'I' for Inactive)
REMARK    1  A    between atoms: C_1  and  O_2
REMARK    2  A    between atoms: O_2  and  C_3
REMARK    3  A    between atoms: C_7  and  C_8
REMARK    4  A    between atoms: C_9  and  C_10
REMARK    5  A    between atoms: C_10  and  C_12
REMARK    6  A    between atoms: C_13  and  O_14
REMARK    7  A    between atoms: C_17  and  C_18
REMARK    8  A    between atoms: C_19  and  C_20
REMARK                            x       y       z     vdW  Elec       q    Type
REMARK                         _______ _______ _______ _____ _____    ______ ____
ROOT
ATOM      1  C   UNL     1       5.940   6.226  17.359  0.00  0.00    +0.000 A 
ATOM      2  C   UNL     1       5.670   5.650  18.553  0.00  0.00    +0.000 A 
ATOM      3  C   UNL     1       4.398   4.960  18.764  0.00  0.00    +0.000 A 
ATOM      4  C   UNL     1       3.892   4.625  20.023  0.00  0.00    +0.000 A 
ATOM      5  C   UNL     1       2.663   3.947  20.162  0.00  0.00    +0.000 A 
ATOM      6  C   UNL     1       2.158   3.645  21.546  0.00  0.00    +0.000 C 
ATOM      7  C   UNL     1       1.947   3.566  19.008  0.00  0.00    +0.000 A 
ATOM      8  C   UNL     1       0.650   2.805  19.053  0.00  0.00    +0.000 C 
ATOM      9  C   UNL     1       2.463   3.900  17.747  0.00  0.00    +0.000 A 
ATOM     10  C   UNL     1       3.653   4.615  17.649  0.00  0.00    +0.000 A 
ATOM     11  O   UNL     1       4.044   5.032  16.375  0.00  0.00    +0.000 OA
ATOM     12  C   UNL     1       4.915   6.105  16.292  0.00  0.00    +0.000 A 
ATOM     13  O   UNL     1       4.860   6.858  15.324  0.00  0.00    +0.000 OA
ENDROOT
BRANCH   1  14
ATOM     14  C   UNL     1       7.238   6.964  17.210  0.00  0.00    +0.000 C 
ATOM     15  O   UNL     1       8.120   6.525  16.467  0.00  0.00    +0.000 OA
BRANCH  14  17
ATOM     16  C   UNL     1       8.591   8.942  17.814  0.00  0.00    +0.000 C 
ATOM     17  C   UNL     1       7.448   8.247  17.933  0.00  0.00    +0.000 C 
BRANCH  16  22
ATOM     18  C   UNL     1       8.900  12.675  18.456  0.00  0.00    +0.000 A 
ATOM     19  C   UNL     1       9.356  12.669  19.774  0.00  0.00    +0.000 A 
ATOM     20  C   UNL     1       9.550  11.464  20.449  0.00  0.00    +0.000 A 
ATOM     21  C   UNL     1       9.288  10.253  19.806  0.00  0.00    +0.000 A 
ATOM     22  C   UNL     1       8.817  10.235  18.489  0.00  0.00    +0.000 A 
ATOM     23  C   UNL     1       8.636  11.460  17.821  0.00  0.00    +0.000 A 
BRANCH  18  25
ATOM     24  C   UNL     1       7.519  14.574  18.080  0.00  0.00    +0.000 C 
ATOM     25  O   UNL     1       8.767  13.917  17.893  0.00  0.00    +0.000 OA
ENDBRANCH  18  25
ENDBRANCH  16  22
ENDBRANCH  14  17
ENDBRANCH   1  14
BRANCH   2  26
ATOM     26  O   UNL     1       6.518   5.635  19.645  0.00  0.00    +0.000 OA
ATOM     27  H   UNL     1       6.059   5.198  20.399  0.00  0.00    +0.000 HD
ENDBRANCH   2  26
TORSDOF 5
ENDMDL
MODEL 9
REMARK VINA RESULT:      -8.0      5.967      9.047
REMARK  Name = 
REMARK  8 active torsions:
REMARK  status: ('A' for Active; 'I' for Inactive)
REMARK    1  A    between atoms: C_1  and  O_2
REMARK    2  A    between atoms: O_2  and  C_3
REMARK    3  A    between atoms: C_7  and  C_8
REMARK    4  A    between atoms: C_9  and  C_10
REMARK    5  A    between atoms: C_10  and  C_12
REMARK    6  A    between atoms: C_13  and  O_14
REMARK    7  A    between atoms: C_17  and  C_18
REMARK    8  A    between atoms: C_19  and  C_20
REMARK                            x       y       z     vdW  Elec       q    Type
REMARK                         _______ _______ _______ _____ _____    ______ ____
ROOT
ATOM      1  C   UNL     1       1.470   9.047  19.638  0.00  0.00    +0.000 A 
ATOM      2  C   UNL     1       1.404   8.039  20.538  0.00  0.00    +0.000 A 
ATOM      3  C   UNL     1       1.944   6.721  20.205  0.00  0.00    +0.000 A 
ATOM      4  C   UNL     1       1.643   5.553  20.912  0.00  0.00    +0.000 A 
ATOM      5  C   UNL     1       2.206   4.312  20.549  0.00  0.00    +0.000 A 
ATOM      6  C   UNL     1       1.816   3.087  21.331  0.00  0.00    +0.000 C 
ATOM      7  C   UNL     1       3.119   4.252  19.475  0.00  0.00    +0.000 A 
ATOM      8  C   UNL     1       3.801   2.983  19.040  0.00  0.00    +0.000 C 
ATOM      9  C   UNL     1       3.420   5.428  18.773  0.00  0.00    +0.000 A 
ATOM     10  C   UNL     1       2.807   6.626  19.126  0.00  0.00    +0.000 A 
ATOM     11  O   UNL     1       3.046   7.731  18.306  0.00  0.00    +0.000 OA
ATOM     12  C   UNL     1       2.122   8.761  18.335  0.00  0.00    +0.000 A 
ATOM     13  O   UNL     1       1.933   9.435  17.327  0.00  0.00    +0.000 OA
ENDROOT
BRANCH   1  14
ATOM     14  C   UNL     1       0.858  10.365  20.011  0.00  0.00    +0.000 C 
ATOM     15  O   UNL     1       1.347  11.041  20.919  0.00  0.00    +0.000 OA
BRANCH  14  17
ATOM     16  C   UNL     1      -1.148  10.042  18.604  0.00  0.00    +0.000 C 
ATOM     17  C   UNL     1      -0.321  10.874  19.259  0.00  0.00    +0.000 C 
BRANCH  16  22
ATOM     18  C   UNL     1      -3.640  10.746  15.822  0.00  0.00    +0.000 A 
ATOM     19  C   UNL     1      -4.587  11.501  16.514  0.00  0.00    +0.000 A 
ATOM     20  C   UNL     1      -4.420  11.768  17.872  0.00  0.00    +0.000 A 
ATOM     21  C   UNL     1      -3.301  11.280  18.550  0.00  0.00    +0.000 A 
ATOM     22  C   UNL     1      -2.346  10.509  17.879  0.00  0.00    +0.000 A 
ATOM     23  C   UNL     1      -2.526  10.257  16.506  0.00  0.00    +0.000 A 
BRANCH  18  25
ATOM     24  C   UNL     1      -2.966   9.786  13.753  0.00  0.00    +0.000 C 
ATOM     25  O   UNL     1      -3.901  10.566  14.489  0.00  0.00    +0.000 OA
ENDBRANCH  18  25
ENDBRANCH  16  22
ENDBRANCH  14  17
ENDBRANCH   1  14
BRANCH   2  26
ATOM     26  O   UNL     1       0.865   8.133  21.808  0.00  0.00    +0.000 OA
ATOM     27  H   UNL     1       1.556   8.471  22.424  0.00  0.00    +0.000 HD
ENDBRANCH   2  26
TORSDOF 5
ENDMDL
