MODEL 1
REMARK VINA RESULT:      -8.4      0.000      0.000
REMARK  Name = 
REMARK  6 active torsions:
REMARK  status: ('A' for Active; 'I' for Inactive)
REMARK    1  A    between atoms: C_1  and  N_2
REMARK    2  A    between atoms: C_4  and  C_5
REMARK    3  A    between atoms: C_8  and  O_9
REMARK    4  A    between atoms: O_9  and  C_10
REMARK    5  A    between atoms: C_10  and  C_11
REMARK    6  A    between atoms: C_20  and  C_21
REMARK                            x       y       z     vdW  Elec       q    Type
REMARK                         _______ _______ _______ _____ _____    ______ ____
ROOT
ATOM      1  C   UNL     1       3.018   6.862  18.240  0.00  0.00    +0.000 A 
ATOM      2  C   UNL     1       2.435   5.596  18.071  0.00  0.00    +0.000 A 
ATOM      3  C   UNL     1       3.130   4.569  17.431  0.00  0.00    +0.000 A 
ATOM      4  C   UNL     1       4.414   4.802  16.943  0.00  0.00    +0.000 A 
ATOM      5  C   UNL     1       5.014   6.046  17.136  0.00  0.00    +0.000 A 
ATOM      6  C   UNL     1       4.318   7.078  17.772  0.00  0.00    +0.000 A 
ENDROOT
BRANCH   1  10
ATOM      7  C   UNL     1       0.354   9.044  21.577  0.00  0.00    +0.000 C 
ATOM      8  N   UNL     1       1.010   8.879  20.301  0.00  0.00    +0.000 N 
ATOM      9  N   UNL     1       1.836   7.839  20.130  0.00  0.00    +0.000 NA
ATOM     10  C   UNL     1       2.241   7.932  18.857  0.00  0.00    +0.000 A 
ATOM     11  C   UNL     1       1.700   9.094  18.238  0.00  0.00    +0.000 A 
ATOM     12  C   UNL     1       0.780   9.588  19.145  0.00  0.00    +0.000 A 
BRANCH  12  13
ATOM     13  C   UNL     1      -0.419  10.464  18.988  0.00  0.00    +0.000 C 
ATOM     14  C   UNL     1      -0.206  11.974  18.951  0.00  0.00    +0.000 C 
ATOM     15  C   UNL     1      -1.594  12.640  18.878  0.00  0.00    +0.000 C 
ATOM     16  N   UNL     1      -2.400  12.181  17.737  0.00  0.00    +0.000 NA
ATOM     17  C   UNL     1      -2.523  10.722  17.687  0.00  0.00    +0.000 C 
ATOM     18  C   UNL     1      -1.159  10.051  17.709  0.00  0.00    +0.000 C 
ATOM     19  H   UNL     1      -1.965  12.502  16.876  0.00  0.00    +0.000 HD
ENDBRANCH  12  13
ENDBRANCH   1  10
BRANCH   4  20
ATOM     20  O   UNL     1       5.180   3.889  16.272  0.00  0.00    +0.000 OA
BRANCH  20  21
ATOM     21  C   UNL     1       6.503   4.314  15.943  0.00  0.00    +0.000 C 
BRANCH  21  22
ATOM     22  C   UNL     1       6.652   4.317  14.443  0.00  0.00    +0.000 A 
ATOM     23  C   UNL     1       7.556   5.178  13.809  0.00  0.00    +0.000 A 
ATOM     24  C   UNL     1       7.707   5.145  12.421  0.00  0.00    +0.000 A 
ATOM     25  C   UNL     1       6.963   4.247  11.656  0.00  0.00    +0.000 A 
ATOM     26  C   UNL     1       6.062   3.385  12.278  0.00  0.00    +0.000 A 
ATOM     27  C   UNL     1       5.909   3.414  13.662  0.00  0.00    +0.000 A 
ENDBRANCH  21  22
ENDBRANCH  20  21
ENDBRANCH   4  20
TORSDOF 5
ENDMDL
MODEL 2
REMARK VINA RESULT:      -8.3      0.340      1.359
REMARK  Name = 
REMARK  6 active torsions:
REMARK  status: ('A' for Active; 'I' for Inactive)
REMARK    1  A    between atoms: C_1  and  N_2
REMARK    2  A    between atoms: C_4  and  C_5
REMARK    3  A    between atoms: C_8  and  O_9
REMARK    4  A    between atoms: O_9  and  C_10
REMARK    5  A    between atoms: C_10  and  C_11
REMARK    6  A    between atoms: C_20  and  C_21
REMARK                            x       y       z     vdW  Elec       q    Type
REMARK                         _______ _______ _______ _____ _____    ______ ____
ROOT
ATOM      1  C   UNL     1       2.946   6.944  18.109  0.00  0.00    +0.000 A 
ATOM      2  C   UNL     1       4.018   7.293  17.274  0.00  0.00    +0.000 A 
ATOM      3  C   UNL     1       4.752   6.312  16.605  0.00  0.00    +0.000 A 
ATOM      4  C   UNL     1       4.427   4.968  16.776  0.00  0.00    +0.000 A 
ATOM      5  C   UNL     1       3.342   4.615  17.578  0.00  0.00    +0.000 A 
ATOM      6  C   UNL     1       2.609   5.595  18.253  0.00  0.00    +0.000 A 
ENDROOT
BRANCH   1  10
ATOM      7  C   UNL     1       0.425   8.916  21.681  0.00  0.00    +0.000 C 
ATOM      8  N   UNL     1       1.070   8.850  20.390  0.00  0.00    +0.000 N 
ATOM      9  N   UNL     1       1.827   7.783  20.102  0.00  0.00    +0.000 NA
ATOM     10  C   UNL     1       2.239   7.989  18.844  0.00  0.00    +0.000 A 
ATOM     11  C   UNL     1       1.773   9.244  18.358  0.00  0.00    +0.000 A 
ATOM     12  C   UNL     1       0.886   9.693  19.319  0.00  0.00    +0.000 A 
BRANCH  12  13
ATOM     13  C   UNL     1      -0.254  10.656  19.266  0.00  0.00    +0.000 C 
ATOM     14  C   UNL     1       0.064  12.137  19.088  0.00  0.00    +0.000 C 
ATOM     15  C   UNL     1      -1.266  12.912  19.160  0.00  0.00    +0.000 C 
ATOM     16  N   UNL     1      -2.261  12.453  18.179  0.00  0.00    +0.000 NA
ATOM     17  C   UNL     1      -2.499  11.009  18.254  0.00  0.00    +0.000 C 
ATOM     18  C   UNL     1      -1.200  10.227  18.136  0.00  0.00    +0.000 C 
ATOM     19  H   UNL     1      -1.932  12.681  17.245  0.00  0.00    +0.000 HD
ENDBRANCH  12  13
ENDBRANCH   1  10
BRANCH   4  20
ATOM     20  O   UNL     1       5.089   3.919  16.203  0.00  0.00    +0.000 OA
BRANCH  20  21
ATOM     21  C   UNL     1       6.488   4.114  15.987  0.00  0.00    +0.000 C 
BRANCH  21  22
ATOM     22  C   UNL     1       6.741   4.210  14.505  0.00  0.00    +0.000 A 
ATOM     23  C   UNL     1       6.066   3.379  13.602  0.00  0.00    +0.000 A 
ATOM     24  C   UNL     1       6.286   3.502  12.229  0.00  0.00    +0.000 A 
ATOM     25  C   UNL     1       7.175   4.463  11.745  0.00  0.00    +0.000 A 
ATOM     26  C   UNL     1       7.850   5.295  12.635  0.00  0.00    +0.000 A 
ATOM     27  C   UNL     1       7.633   5.175  14.006  0.00  0.00    +0.000 A 
ENDBRANCH  21  22
ENDBRANCH  20  21
ENDBRANCH   4  20
TORSDOF 5
ENDMDL
MODEL 3
REMARK VINA RESULT:      -8.2      0.536      1.086
REMARK  Name = 
REMARK  6 active torsions:
REMARK  status: ('A' for Active; 'I' for Inactive)
REMARK    1  A    between atoms: C_1  and  N_2
REMARK    2  A    between atoms: C_4  and  C_5
REMARK    3  A    between atoms: C_8  and  O_9
REMARK    4  A    between atoms: O_9  and  C_10
REMARK    5  A    between atoms: C_10  and  C_11
REMARK    6  A    between atoms: C_20  and  C_21
REMARK                            x       y       z     vdW  Elec       q    Type
REMARK                         _______ _______ _______ _____ _____    ______ ____
ROOT
ATOM      1  C   UNL     1       3.011   7.099  18.541  0.00  0.00    +0.000 A 
ATOM      2  C   UNL     1       3.004   5.778  19.015  0.00  0.00    +0.000 A 
ATOM      3  C   UNL     1       3.794   4.797  18.412  0.00  0.00    +0.000 A 
ATOM      4  C   UNL     1       4.590   5.127  17.318  0.00  0.00    +0.000 A 
ATOM      5  C   UNL     1       4.628   6.444  16.861  0.00  0.00    +0.000 A 
ATOM      6  C   UNL     1       3.835   7.426  17.459  0.00  0.00    +0.000 A 
ENDROOT
BRANCH   1  10
ATOM      7  C   UNL     1       0.043   8.959  21.816  0.00  0.00    +0.000 C 
ATOM      8  N   UNL     1       0.765   8.887  20.567  0.00  0.00    +0.000 N 
ATOM      9  N   UNL     1       1.676   7.919  20.403  0.00  0.00    +0.000 NA
ATOM     10  C   UNL     1       2.127   8.086  19.153  0.00  0.00    +0.000 A 
ATOM     11  C   UNL     1       1.523   9.223  18.544  0.00  0.00    +0.000 A 
ATOM     12  C   UNL     1       0.530   9.614  19.423  0.00  0.00    +0.000 A 
BRANCH  12  13
ATOM     13  C   UNL     1      -0.726  10.400  19.237  0.00  0.00    +0.000 C 
ATOM     14  C   UNL     1      -0.693  11.892  19.550  0.00  0.00    +0.000 C 
ATOM     15  C   UNL     1      -2.122  12.439  19.369  0.00  0.00    +0.000 C 
ATOM     16  N   UNL     1      -2.679  12.181  18.033  0.00  0.00    +0.000 NA
ATOM     17  C   UNL     1      -2.617  10.765  17.662  0.00  0.00    +0.000 C 
ATOM     18  C   UNL     1      -1.202  10.222  17.790  0.00  0.00    +0.000 C 
ATOM     19  H   UNL     1      -2.156  12.721  17.348  0.00  0.00    +0.000 HD
ENDBRANCH  12  13
ENDBRANCH   1  10
BRANCH   4  20
ATOM     20  O   UNL     1       5.378   4.251  16.625  0.00  0.00    +0.000 OA
BRANCH  20  21
ATOM     21  C   UNL     1       6.633   4.768  16.177  0.00  0.00    +0.000 C 
BRANCH  21  22
ATOM     22  C   UNL     1       6.744   4.548  14.690  0.00  0.00    +0.000 A 
ATOM     23  C   UNL     1       5.904   3.644  14.030  0.00  0.00    +0.000 A 
ATOM     24  C   UNL     1       5.996   3.476  12.647  0.00  0.00    +0.000 A 
ATOM     25  C   UNL     1       6.921   4.216  11.911  0.00  0.00    +0.000 A 
ATOM     26  C   UNL     1       7.760   5.120  12.559  0.00  0.00    +0.000 A 
ATOM     27  C   UNL     1       7.671   5.291  13.938  0.00  0.00    +0.000 A 
ENDBRANCH  21  22
ENDBRANCH  20  21
ENDBRANCH   4  20
TORSDOF 5
ENDMDL
MODEL 4
REMARK VINA RESULT:      -8.1      5.669      7.510
REMARK  Name = 
REMARK  6 active torsions:
REMARK  status: ('A' for Active; 'I' for Inactive)
REMARK    1  A    between atoms: C_1  and  N_2
REMARK    2  A    between atoms: C_4  and  C_5
REMARK    3  A    between atoms: C_8  and  O_9
REMARK    4  A    between atoms: O_9  and  C_10
REMARK    5  A    between atoms: C_10  and  C_11
REMARK    6  A    between atoms: C_20  and  C_21
REMARK                            x       y       z     vdW  Elec       q    Type
REMARK                         _______ _______ _______ _____ _____    ______ ____
ROOT
ATOM      1  C   UNL     1       8.044   8.151  18.266  0.00  0.00    +0.000 A 
ATOM      2  C   UNL     1       7.101   8.010  17.236  0.00  0.00    +0.000 A 
ATOM      3  C   UNL     1       6.504   6.775  16.977  0.00  0.00    +0.000 A 
ATOM      4  C   UNL     1       6.854   5.664  17.742  0.00  0.00    +0.000 A 
ATOM      5  C   UNL     1       7.765   5.803  18.789  0.00  0.00    +0.000 A 
ATOM      6  C   UNL     1       8.368   7.037  19.046  0.00  0.00    +0.000 A 
ENDROOT
BRANCH   1  10
ATOM      7  C   UNL     1      10.313  11.640  20.649  0.00  0.00    +0.000 C 
ATOM      8  N   UNL     1       9.643  11.012  19.533  0.00  0.00    +0.000 N 
ATOM      9  N   UNL     1       9.339   9.711  19.613  0.00  0.00    +0.000 NA
ATOM     10  C   UNL     1       8.696   9.441  18.469  0.00  0.00    +0.000 A 
ATOM     11  C   UNL     1       8.651  10.591  17.632  0.00  0.00    +0.000 A 
ATOM     12  C   UNL     1       9.122  11.626  18.419  0.00  0.00    +0.000 A 
BRANCH  12  13
ATOM     13  C   UNL     1       8.933  13.106  18.354  0.00  0.00    +0.000 C 
ATOM     14  C   UNL     1      10.058  13.949  17.760  0.00  0.00    +0.000 C 
ATOM     15  C   UNL     1       9.654  15.430  17.898  0.00  0.00    +0.000 C 
ATOM     16  N   UNL     1       8.361  15.740  17.273  0.00  0.00    +0.000 NA
ATOM     17  C   UNL     1       7.284  14.866  17.744  0.00  0.00    +0.000 C 
ATOM     18  C   UNL     1       7.647  13.400  17.571  0.00  0.00    +0.000 C 
ATOM     19  H   UNL     1       8.448  15.637  16.266  0.00  0.00    +0.000 HD
ENDBRANCH  12  13
ENDBRANCH   1  10
BRANCH   4  20
ATOM     20  O   UNL     1       6.365   4.400  17.564  0.00  0.00    +0.000 OA
BRANCH  20  21
ATOM     21  C   UNL     1       5.408   4.249  16.514  0.00  0.00    +0.000 C 
BRANCH  21  22
ATOM     22  C   UNL     1       4.055   3.989  17.125  0.00  0.00    +0.000 A 
ATOM     23  C   UNL     1       3.585   2.683  17.308  0.00  0.00    +0.000 A 
ATOM     24  C   UNL     1       2.344   2.457  17.907  0.00  0.00    +0.000 A 
ATOM     25  C   UNL     1       1.567   3.533  18.336  0.00  0.00    +0.000 A 
ATOM     26  C   UNL     1       2.026   4.837  18.160  0.00  0.00    +0.000 A 
ATOM     27  C   UNL     1       3.264   5.066  17.564  0.00  0.00    +0.000 A 
ENDBRANCH  21  22
ENDBRANCH  20  21
ENDBRANCH   4  20
TORSDOF 5
ENDMDL
MODEL 5
REMARK VINA RESULT:      -8.0      0.750      1.157
REMARK  Name = 
REMARK  6 active torsions:
REMARK  status: ('A' for Active; 'I' for Inactive)
REMARK    1  A    between atoms: C_1  and  N_2
REMARK    2  A    between atoms: C_4  and  C_5
REMARK    3  A    between atoms: C_8  and  O_9
REMARK    4  A    between atoms: O_9  and  C_10
REMARK    5  A    between atoms: C_10  and  C_11
REMARK    6  A    between atoms: C_20  and  C_21
REMARK                            x       y       z     vdW  Elec       q    Type
REMARK                         _______ _______ _______ _____ _____    ______ ____
ROOT
ATOM      1  C   UNL     1       2.943   7.329  18.221  0.00  0.00    +0.000 A 
ATOM      2  C   UNL     1       3.884   7.751  17.269  0.00  0.00    +0.000 A 
ATOM      3  C   UNL     1       4.817   6.858  16.741  0.00  0.00    +0.000 A 
ATOM      4  C   UNL     1       4.826   5.533  17.171  0.00  0.00    +0.000 A 
ATOM      5  C   UNL     1       3.873   5.097  18.091  0.00  0.00    +0.000 A 
ATOM      6  C   UNL     1       2.941   5.990  18.625  0.00  0.00    +0.000 A 
ENDROOT
BRANCH   1  10
ATOM      7  C   UNL     1       0.094   9.304  21.535  0.00  0.00    +0.000 C 
ATOM      8  N   UNL     1       0.711   9.146  20.238  0.00  0.00    +0.000 N 
ATOM      9  N   UNL     1       1.695   8.248  20.098  0.00  0.00    +0.000 NA
ATOM     10  C   UNL     1       2.021   8.302  18.800  0.00  0.00    +0.000 A 
ATOM     11  C   UNL     1       1.260   9.300  18.128  0.00  0.00    +0.000 A 
ATOM     12  C   UNL     1       0.311   9.706  19.048  0.00  0.00    +0.000 A 
BRANCH  12  13
ATOM     13  C   UNL     1      -1.027  10.352  18.896  0.00  0.00    +0.000 C 
ATOM     14  C   UNL     1      -1.143  11.843  19.194  0.00  0.00    +0.000 C 
ATOM     15  C   UNL     1      -2.628  12.233  19.054  0.00  0.00    +0.000 C 
ATOM     16  N   UNL     1      -3.195  11.901  17.739  0.00  0.00    +0.000 NA
ATOM     17  C   UNL     1      -2.993  10.495  17.379  0.00  0.00    +0.000 C 
ATOM     18  C   UNL     1      -1.526  10.107  17.466  0.00  0.00    +0.000 C 
ATOM     19  H   UNL     1      -2.754  12.485  17.033  0.00  0.00    +0.000 HD
ENDBRANCH  12  13
ENDBRANCH   1  10
BRANCH   4  20
ATOM     20  O   UNL     1       5.709   4.576  16.754  0.00  0.00    +0.000 OA
BRANCH  20  21
ATOM     21  C   UNL     1       5.241   3.714  15.714  0.00  0.00    +0.000 C 
BRANCH  21  22
ATOM     22  C   UNL     1       5.989   4.036  14.446  0.00  0.00    +0.000 A 
ATOM     23  C   UNL     1       7.077   4.918  14.453  0.00  0.00    +0.000 A 
ATOM     24  C   UNL     1       7.781   5.180  13.276  0.00  0.00    +0.000 A 
ATOM     25  C   UNL     1       7.411   4.557  12.084  0.00  0.00    +0.000 A 
ATOM     26  C   UNL     1       6.331   3.677  12.067  0.00  0.00    +0.000 A 
ATOM     27  C   UNL     1       5.626   3.413  13.239  0.00  0.00    +0.000 A 
ENDBRANCH  21  22
ENDBRANCH  20  21
ENDBRANCH   4  20
TORSDOF 5
ENDMDL
MODEL 6
REMARK VINA RESULT:      -8.0      3.162      9.703
REMARK  Name = 
REMARK  6 active torsions:
REMARK  status: ('A' for Active; 'I' for Inactive)
REMARK    1  A    between atoms: C_1  and  N_2
REMARK    2  A    between atoms: C_4  and  C_5
REMARK    3  A    between atoms: C_8  and  O_9
REMARK    4  A    between atoms: O_9  and  C_10
REMARK    5  A    between atoms: C_10  and  C_11
REMARK    6  A    between atoms: C_20  and  C_21
REMARK                            x       y       z     vdW  Elec       q    Type
REMARK                         _______ _______ _______ _____ _____    ______ ____
ROOT
ATOM      1  C   UNL     1       1.864   8.080  19.404  0.00  0.00    +0.000 A 
ATOM      2  C   UNL     1       1.675   9.118  18.478  0.00  0.00    +0.000 A 
ATOM      3  C   UNL     1       1.031  10.299  18.850  0.00  0.00    +0.000 A 
ATOM      4  C   UNL     1       0.558  10.449  20.152  0.00  0.00    +0.000 A 
ATOM      5  C   UNL     1       0.771   9.436  21.087  0.00  0.00    +0.000 A 
ATOM      6  C   UNL     1       1.411   8.250  20.716  0.00  0.00    +0.000 A 
ENDROOT
BRANCH   1  10
ATOM      7  C   UNL     1       3.593   3.623  19.782  0.00  0.00    +0.000 C 
ATOM      8  N   UNL     1       3.308   4.887  19.143  0.00  0.00    +0.000 N 
ATOM      9  N   UNL     1       2.519   5.765  19.775  0.00  0.00    +0.000 NA
ATOM     10  C   UNL     1       2.485   6.833  18.967  0.00  0.00    +0.000 A 
ATOM     11  C   UNL     1       3.225   6.590  17.775  0.00  0.00    +0.000 A 
ATOM     12  C   UNL     1       3.878   5.391  17.998  0.00  0.00    +0.000 A 
BRANCH  12  13
ATOM     13  C   UNL     1       5.109   4.791  17.404  0.00  0.00    +0.000 C 
ATOM     14  C   UNL     1       5.286   4.863  15.890  0.00  0.00    +0.000 C 
ATOM     15  C   UNL     1       6.575   4.096  15.534  0.00  0.00    +0.000 C 
ATOM     16  N   UNL     1       7.763   4.597  16.240  0.00  0.00    +0.000 NA
ATOM     17  C   UNL     1       7.576   4.645  17.692  0.00  0.00    +0.000 C 
ATOM     18  C   UNL     1       6.334   5.439  18.063  0.00  0.00    +0.000 C 
ATOM     19  H   UNL     1       7.975   5.534  15.907  0.00  0.00    +0.000 HD
ENDBRANCH  12  13
ENDBRANCH   1  10
BRANCH   4  20
ATOM     20  O   UNL     1      -0.115  11.540  20.625  0.00  0.00    +0.000 OA
BRANCH  20  21
ATOM     21  C   UNL     1      -0.512  12.497  19.640  0.00  0.00    +0.000 C 
BRANCH  21  22
ATOM     22  C   UNL     1      -1.984  12.327  19.366  0.00  0.00    +0.000 A 
ATOM     23  C   UNL     1      -2.433  11.643  18.229  0.00  0.00    +0.000 A 
ATOM     24  C   UNL     1      -3.799  11.465  18.007  0.00  0.00    +0.000 A 
ATOM     25  C   UNL     1      -4.729  11.960  18.922  0.00  0.00    +0.000 A 
ATOM     26  C   UNL     1      -4.293  12.640  20.057  0.00  0.00    +0.000 A 
ATOM     27  C   UNL     1      -2.930  12.819  20.282  0.00  0.00    +0.000 A 
ENDBRANCH  21  22
ENDBRANCH  20  21
ENDBRANCH   4  20
TORSDOF 5
ENDMDL
MODEL 7
REMARK VINA RESULT:      -8.0      3.694     10.530
REMARK  Name = 
REMARK  6 active torsions:
REMARK  status: ('A' for Active; 'I' for Inactive)
REMARK    1  A    between atoms: C_1  and  N_2
REMARK    2  A    between atoms: C_4  and  C_5
REMARK    3  A    between atoms: C_8  and  O_9
REMARK    4  A    between atoms: O_9  and  C_10
REMARK    5  A    between atoms: C_10  and  C_11
REMARK    6  A    between atoms: C_20  and  C_21
REMARK                            x       y       z     vdW  Elec       q    Type
REMARK                         _______ _______ _______ _____ _____    ______ ____
ROOT
ATOM      1  C   UNL     1       1.828   8.009  19.590  0.00  0.00    +0.000 A 
ATOM      2  C   UNL     1       1.536   9.124  18.790  0.00  0.00    +0.000 A 
ATOM      3  C   UNL     1       0.931  10.257  19.336  0.00  0.00    +0.000 A 
ATOM      4  C   UNL     1       0.599  10.280  20.689  0.00  0.00    +0.000 A 
ATOM      5  C   UNL     1       0.915   9.189  21.498  0.00  0.00    +0.000 A 
ATOM      6  C   UNL     1       1.516   8.051  20.952  0.00  0.00    +0.000 A 
ENDROOT
BRANCH   1  10
ATOM      7  C   UNL     1       3.133   3.409  19.218  0.00  0.00    +0.000 C 
ATOM      8  N   UNL     1       3.039   4.798  18.832  0.00  0.00    +0.000 N 
ATOM      9  N   UNL     1       2.241   5.611  19.537  0.00  0.00    +0.000 NA
ATOM     10  C   UNL     1       2.403   6.816  18.976  0.00  0.00    +0.000 A 
ATOM     11  C   UNL     1       3.279   6.739  17.856  0.00  0.00    +0.000 A 
ATOM     12  C   UNL     1       3.799   5.458  17.895  0.00  0.00    +0.000 A 
BRANCH  12  13
ATOM     13  C   UNL     1       5.050   4.862  17.339  0.00  0.00    +0.000 C 
ATOM     14  C   UNL     1       5.311   5.008  15.843  0.00  0.00    +0.000 C 
ATOM     15  C   UNL     1       6.603   4.233  15.517  0.00  0.00    +0.000 C 
ATOM     16  N   UNL     1       7.760   4.670  16.311  0.00  0.00    +0.000 NA
ATOM     17  C   UNL     1       7.494   4.648  17.752  0.00  0.00    +0.000 C 
ATOM     18  C   UNL     1       6.248   5.449  18.096  0.00  0.00    +0.000 C 
ATOM     19  H   UNL     1       8.007   5.618  16.040  0.00  0.00    +0.000 HD
ENDBRANCH  12  13
ENDBRANCH   1  10
BRANCH   4  20
ATOM     20  O   UNL     1      -0.024  11.315  21.329  0.00  0.00    +0.000 OA
BRANCH  20  21
ATOM     21  C   UNL     1      -0.728  10.968  22.523  0.00  0.00    +0.000 C 
BRANCH  21  22
ATOM     22  C   UNL     1      -1.525  12.163  22.980  0.00  0.00    +0.000 A 
ATOM     23  C   UNL     1      -2.848  12.024  23.416  0.00  0.00    +0.000 A 
ATOM     24  C   UNL     1      -3.563  13.136  23.867  0.00  0.00    +0.000 A 
ATOM     25  C   UNL     1      -2.959  14.393  23.895  0.00  0.00    +0.000 A 
ATOM     26  C   UNL     1      -1.643  14.541  23.464  0.00  0.00    +0.000 A 
ATOM     27  C   UNL     1      -0.926  13.435  23.014  0.00  0.00    +0.000 A 
ENDBRANCH  21  22
ENDBRANCH  20  21
ENDBRANCH   4  20
TORSDOF 5
ENDMDL
MODEL 8
REMARK VINA RESULT:      -8.0      5.667      7.621
REMARK  Name = 
REMARK  6 active torsions:
REMARK  status: ('A' for Active; 'I' for Inactive)
REMARK    1  A    between atoms: C_1  and  N_2
REMARK    2  A    between atoms: C_4  and  C_5
REMARK    3  A    between atoms: C_8  and  O_9
REMARK    4  A    between atoms: O_9  and  C_10
REMARK    5  A    between atoms: C_10  and  C_11
REMARK    6  A    between atoms: C_20  and  C_21
REMARK                            x       y       z     vdW  Elec       q    Type
REMARK                         _______ _______ _______ _____ _____    ______ ____
ROOT
ATOM      1  C   UNL     1       7.880   8.114  18.110  0.00  0.00    +0.000 A 
ATOM      2  C   UNL     1       8.275   6.981  18.838  0.00  0.00    +0.000 A 
ATOM      3  C   UNL     1       7.596   5.769  18.700  0.00  0.00    +0.000 A 
ATOM      4  C   UNL     1       6.503   5.683  17.840  0.00  0.00    +0.000 A 
ATOM      5  C   UNL     1       6.124   6.795  17.089  0.00  0.00    +0.000 A 
ATOM      6  C   UNL     1       6.800   8.011  17.229  0.00  0.00    +0.000 A 
ENDROOT
BRANCH   1  10
ATOM      7  C   UNL     1      10.327  11.476  20.499  0.00  0.00    +0.000 C 
ATOM      8  N   UNL     1       9.598  10.898  19.394  0.00  0.00    +0.000 N 
ATOM      9  N   UNL     1       9.266   9.601  19.449  0.00  0.00    +0.000 NA
ATOM     10  C   UNL     1       8.572   9.381  18.324  0.00  0.00    +0.000 A 
ATOM     11  C   UNL     1       8.522  10.556  17.522  0.00  0.00    +0.000 A 
ATOM     12  C   UNL     1       9.049  11.556  18.319  0.00  0.00    +0.000 A 
BRANCH  12  13
ATOM     13  C   UNL     1       8.895  13.041  18.304  0.00  0.00    +0.000 C 
ATOM     14  C   UNL     1      10.039  13.877  17.740  0.00  0.00    +0.000 C 
ATOM     15  C   UNL     1       9.670  15.362  17.927  0.00  0.00    +0.000 C 
ATOM     16  N   UNL     1       8.384  15.723  17.313  0.00  0.00    +0.000 NA
ATOM     17  C   UNL     1       7.287  14.858  17.754  0.00  0.00    +0.000 C 
ATOM     18  C   UNL     1       7.616  13.391  17.531  0.00  0.00    +0.000 C 
ATOM     19  H   UNL     1       8.470  15.652  16.302  0.00  0.00    +0.000 HD
ENDBRANCH  12  13
ENDBRANCH   1  10
BRANCH   4  20
ATOM     20  O   UNL     1       5.740   4.566  17.646  0.00  0.00    +0.000 OA
BRANCH  20  21
ATOM     21  C   UNL     1       5.276   3.920  18.833  0.00  0.00    +0.000 C 
BRANCH  21  22
ATOM     22  C   UNL     1       3.798   3.659  18.696  0.00  0.00    +0.000 A 
ATOM     23  C   UNL     1       2.993   4.474  17.890  0.00  0.00    +0.000 A 
ATOM     24  C   UNL     1       1.631   4.199  17.746  0.00  0.00    +0.000 A 
ATOM     25  C   UNL     1       1.065   3.104  18.398  0.00  0.00    +0.000 A 
ATOM     26  C   UNL     1       1.857   2.286  19.201  0.00  0.00    +0.000 A 
ATOM     27  C   UNL     1       3.216   2.557  19.346  0.00  0.00    +0.000 A 
ENDBRANCH  21  22
ENDBRANCH  20  21
ENDBRANCH   4  20
TORSDOF 5
ENDMDL
MODEL 9
REMARK VINA RESULT:      -8.0      5.574      7.516
REMARK  Name = 
REMARK  6 active torsions:
REMARK  status: ('A' for Active; 'I' for Inactive)
REMARK    1  A    between atoms: C_1  and  N_2
REMARK    2  A    between atoms: C_4  and  C_5
REMARK    3  A    between atoms: C_8  and  O_9
REMARK    4  A    between atoms: O_9  and  C_10
REMARK    5  A    between atoms: C_10  and  C_11
REMARK    6  A    between atoms: C_20  and  C_21
REMARK                            x       y       z     vdW  Elec       q    Type
REMARK                         _______ _______ _______ _____ _____    ______ ____
ROOT
ATOM      1  C   UNL     1       7.825   7.963  18.115  0.00  0.00    +0.000 A 
ATOM      2  C   UNL     1       6.776   7.876  17.186  0.00  0.00    +0.000 A 
ATOM      3  C   UNL     1       6.138   6.659  16.941  0.00  0.00    +0.000 A 
ATOM      4  C   UNL     1       6.553   5.512  17.615  0.00  0.00    +0.000 A 
ATOM      5  C   UNL     1       7.573   5.596  18.563  0.00  0.00    +0.000 A 
ATOM      6  C   UNL     1       8.217   6.813  18.806  0.00  0.00    +0.000 A 
ENDROOT
BRANCH   1  10
ATOM      7  C   UNL     1      10.329  11.349  20.409  0.00  0.00    +0.000 C 
ATOM      8  N   UNL     1       9.566  10.763  19.332  0.00  0.00    +0.000 N 
ATOM      9  N   UNL     1       9.247   9.464  19.400  0.00  0.00    +0.000 NA
ATOM     10  C   UNL     1       8.513   9.236  18.302  0.00  0.00    +0.000 A 
ATOM     11  C   UNL     1       8.424  10.411  17.501  0.00  0.00    +0.000 A 
ATOM     12  C   UNL     1       8.971  11.416  18.277  0.00  0.00    +0.000 A 
BRANCH  12  13
ATOM     13  C   UNL     1       8.804  12.900  18.267  0.00  0.00    +0.000 C 
ATOM     14  C   UNL     1       9.962  13.750  17.756  0.00  0.00    +0.000 C 
ATOM     15  C   UNL     1       9.571  15.230  17.939  0.00  0.00    +0.000 C 
ATOM     16  N   UNL     1       8.309  15.584  17.275  0.00  0.00    +0.000 NA
ATOM     17  C   UNL     1       7.203  14.706  17.665  0.00  0.00    +0.000 C 
ATOM     18  C   UNL     1       7.555  13.243  17.445  0.00  0.00    +0.000 C 
ATOM     19  H   UNL     1       8.436  15.521  16.269  0.00  0.00    +0.000 HD
ENDBRANCH  12  13
ENDBRANCH   1  10
BRANCH   4  20
ATOM     20  O   UNL     1       6.030   4.262  17.436  0.00  0.00    +0.000 OA
BRANCH  20  21
ATOM     21  C   UNL     1       4.821   4.199  16.679  0.00  0.00    +0.000 C 
BRANCH  21  22
ATOM     22  C   UNL     1       3.707   3.733  17.582  0.00  0.00    +0.000 A 
ATOM     23  C   UNL     1       2.404   4.223  17.432  0.00  0.00    +0.000 A 
ATOM     24  C   UNL     1       1.377   3.757  18.254  0.00  0.00    +0.000 A 
ATOM     25  C   UNL     1       1.640   2.791  19.226  0.00  0.00    +0.000 A 
ATOM     26  C   UNL     1       2.933   2.297  19.382  0.00  0.00    +0.000 A 
ATOM     27  C   UNL     1       3.961   2.759  18.563  0.00  0.00    +0.000 A 
ENDBRANCH  21  22
ENDBRANCH  20  21
ENDBRANCH   4  20
TORSDOF 5
ENDMDL
