MODEL 1
REMARK VINA RESULT:      -8.2      0.000      0.000
REMARK  Name = 
REMARK  4 active torsions:
REMARK  status: ('A' for Active; 'I' for Inactive)
REMARK    1  A    between atoms: C_5  and  C_6
REMARK    2  A    between atoms: C_6  and  S_7
REMARK    3  A    between atoms: S_7  and  C_8
REMARK    4  A    between atoms: C_14  and  C_15
REMARK                            x       y       z     vdW  Elec       q    Type
REMARK                         _______ _______ _______ _____ _____    ______ ____
ROOT
ATOM      1  C   UNL     1       2.502   7.287  18.715  0.00  0.00    +0.000 A 
ATOM      2  C   UNL     1       1.798   6.930  19.975  0.00  0.00    +0.000 A 
ATOM      3  C   UNL     1       2.070   5.732  20.511  0.00  0.00    +0.000 A 
ATOM      4  C   UNL     1       3.002   4.887  19.870  0.00  0.00    +0.000 A 
ATOM      5  N   UNL     1       3.440   3.677  20.134  0.00  0.00    +0.000 NA
ATOM      6  N   UNL     1       4.358   3.343  19.161  0.00  0.00    +0.000 NA
ATOM      7  C   UNL     1       4.488   4.366  18.333  0.00  0.00    +0.000 A 
ATOM      8  N   UNL     1       3.609   5.361  18.725  0.00  0.00    +0.000 N 
ATOM      9  N   UNL     1       3.375   6.560  18.100  0.00  0.00    +0.000 NA
ENDROOT
BRANCH   7  10
ATOM     10  C   UNL     1       5.366   4.445  17.170  0.00  0.00    +0.000 A 
ATOM     11  C   UNL     1       4.872   4.214  15.884  0.00  0.00    +0.000 A 
ATOM     12  C   UNL     1       5.719   4.339  14.782  0.00  0.00    +0.000 A 
ATOM     13  C   UNL     1       7.044   4.677  15.003  0.00  0.00    +0.000 A 
ATOM     14  N   UNL     1       7.568   4.883  16.229  0.00  0.00    +0.000 NA
ATOM     15  C   UNL     1       6.720   4.755  17.277  0.00  0.00    +0.000 A 
ENDBRANCH   7  10
BRANCH   1  16
ATOM     16  S   UNL     1       2.078   8.868  18.090  0.00  0.00    +0.000 S 
BRANCH  16  17
ATOM     17  C   UNL     1       1.052   9.514  19.448  0.00  0.00    +0.000 C 
BRANCH  17  22
ATOM     18  F   UNL     1      -3.716  11.886  17.547  0.00  0.00    +0.000 F 
ATOM     19  C   UNL     1      -2.584  11.328  17.996  0.00  0.00    +0.000 A 
ATOM     20  C   UNL     1      -1.965  10.335  17.248  0.00  0.00    +0.000 A 
ATOM     21  C   UNL     1      -0.785   9.751  17.717  0.00  0.00    +0.000 A 
ATOM     22  C   UNL     1      -0.223  10.156  18.940  0.00  0.00    +0.000 A 
ATOM     23  C   UNL     1      -0.866  11.166  19.678  0.00  0.00    +0.000 A 
ATOM     24  C   UNL     1      -2.046  11.747  19.206  0.00  0.00    +0.000 A 
ENDBRANCH  17  22
ENDBRANCH  16  17
ENDBRANCH   1  16
TORSDOF 4
ENDMDL
MODEL 2
REMARK VINA RESULT:      -8.2      0.399      1.059
REMARK  Name = 
REMARK  4 active torsions:
REMARK  status: ('A' for Active; 'I' for Inactive)
REMARK    1  A    between atoms: C_5  and  C_6
REMARK    2  A    between atoms: C_6  and  S_7
REMARK    3  A    between atoms: S_7  and  C_8
REMARK    4  A    between atoms: C_14  and  C_15
REMARK                            x       y       z     vdW  Elec       q    Type
REMARK                         _______ _______ _______ _____ _____    ______ ____
ROOT
ATOM      1  C   UNL     1       2.588   7.436  18.466  0.00  0.00    +0.000 A 
ATOM      2  C   UNL     1       1.940   7.055  19.748  0.00  0.00    +0.000 A 
ATOM      3  C   UNL     1       2.266   5.864  20.269  0.00  0.00    +0.000 A 
ATOM      4  C   UNL     1       3.199   5.048  19.594  0.00  0.00    +0.000 A 
ATOM      5  N   UNL     1       3.682   3.851  19.837  0.00  0.00    +0.000 NA
ATOM      6  N   UNL     1       4.574   3.547  18.832  0.00  0.00    +0.000 NA
ATOM      7  C   UNL     1       4.645   4.576  18.004  0.00  0.00    +0.000 A 
ATOM      8  N   UNL     1       3.752   5.544  18.430  0.00  0.00    +0.000 N 
ATOM      9  N   UNL     1       3.461   6.736  17.819  0.00  0.00    +0.000 NA
ENDROOT
BRANCH   7  10
ATOM     10  C   UNL     1       5.479   4.684  16.811  0.00  0.00    +0.000 A 
ATOM     11  C   UNL     1       5.094   4.081  15.611  0.00  0.00    +0.000 A 
ATOM     12  C   UNL     1       5.885   4.235  14.472  0.00  0.00    +0.000 A 
ATOM     13  C   UNL     1       7.049   4.979  14.572  0.00  0.00    +0.000 A 
ATOM     14  N   UNL     1       7.472   5.555  15.716  0.00  0.00    +0.000 NA
ATOM     15  C   UNL     1       6.682   5.388  16.804  0.00  0.00    +0.000 A 
ENDBRANCH   7  10
BRANCH   1  16
ATOM     16  S   UNL     1       2.097   9.005  17.863  0.00  0.00    +0.000 S 
BRANCH  16  17
ATOM     17  C   UNL     1       1.061   9.597  19.237  0.00  0.00    +0.000 C 
BRANCH  17  22
ATOM     18  F   UNL     1      -3.766  11.911  17.417  0.00  0.00    +0.000 F 
ATOM     19  C   UNL     1      -2.625  11.359  17.850  0.00  0.00    +0.000 A 
ATOM     20  C   UNL     1      -1.973  11.904  18.949  0.00  0.00    +0.000 A 
ATOM     21  C   UNL     1      -0.782  11.329  19.399  0.00  0.00    +0.000 A 
ATOM     22  C   UNL     1      -0.236  10.210  18.749  0.00  0.00    +0.000 A 
ATOM     23  C   UNL     1      -0.915   9.674  17.641  0.00  0.00    +0.000 A 
ATOM     24  C   UNL     1      -2.107  10.251  17.192  0.00  0.00    +0.000 A 
ENDBRANCH  17  22
ENDBRANCH  16  17
ENDBRANCH   1  16
TORSDOF 4
ENDMDL
MODEL 3
REMARK VINA RESULT:      -8.1      1.905      2.382
REMARK  Name = 
REMARK  4 active torsions:
REMARK  status: ('A' for Active; 'I' for Inactive)
REMARK    1  A    between atoms: C_5  and  C_6
REMARK    2  A    between atoms: C_6  and  S_7
REMARK    3  A    between atoms: S_7  and  C_8
REMARK    4  A    between atoms: C_14  and  C_15
REMARK                            x       y       z     vdW  Elec       q    Type
REMARK                         _______ _______ _______ _____ _____    ______ ____
ROOT
ATOM      1  C   UNL     1       2.280   6.074  19.689  0.00  0.00    +0.000 A 
ATOM      2  C   UNL     1       1.431   5.232  20.573  0.00  0.00    +0.000 A 
ATOM      3  C   UNL     1       1.594   3.904  20.494  0.00  0.00    +0.000 A 
ATOM      4  C   UNL     1       2.551   3.378  19.600  0.00  0.00    +0.000 A 
ATOM      5  N   UNL     1       2.908   2.152  19.289  0.00  0.00    +0.000 NA
ATOM      6  N   UNL     1       3.909   2.234  18.345  0.00  0.00    +0.000 NA
ATOM      7  C   UNL     1       4.169   3.510  18.114  0.00  0.00    +0.000 A 
ATOM      8  N   UNL     1       3.297   4.278  18.866  0.00  0.00    +0.000 N 
ATOM      9  N   UNL     1       3.182   5.645  18.869  0.00  0.00    +0.000 NA
ENDROOT
BRANCH   7  10
ATOM     10  C   UNL     1       5.169   4.047  17.196  0.00  0.00    +0.000 A 
ATOM     11  C   UNL     1       4.874   4.226  15.842  0.00  0.00    +0.000 A 
ATOM     12  C   UNL     1       5.830   4.783  14.991  0.00  0.00    +0.000 A 
ATOM     13  C   UNL     1       7.062   5.131  15.521  0.00  0.00    +0.000 A 
ATOM     14  N   UNL     1       7.397   4.951  16.814  0.00  0.00    +0.000 NA
ATOM     15  C   UNL     1       6.448   4.409  17.615  0.00  0.00    +0.000 A 
ENDBRANCH   7  10
BRANCH   1  16
ATOM     16  S   UNL     1       1.993   7.793  19.860  0.00  0.00    +0.000 S 
BRANCH  16  17
ATOM     17  C   UNL     1       1.078   7.837  21.433  0.00  0.00    +0.000 C 
BRANCH  17  22
ATOM     18  F   UNL     1      -1.844  12.640  22.036  0.00  0.00    +0.000 F 
ATOM     19  C   UNL     1      -1.149  11.504  21.895  0.00  0.00    +0.000 A 
ATOM     20  C   UNL     1      -0.649  11.155  20.647  0.00  0.00    +0.000 A 
ATOM     21  C   UNL     1       0.075   9.970  20.500  0.00  0.00    +0.000 A 
ATOM     22  C   UNL     1       0.298   9.126  21.601  0.00  0.00    +0.000 A 
ATOM     23  C   UNL     1      -0.214   9.501  22.855  0.00  0.00    +0.000 A 
ATOM     24  C   UNL     1      -0.938  10.688  22.999  0.00  0.00    +0.000 A 
ENDBRANCH  17  22
ENDBRANCH  16  17
ENDBRANCH   1  16
TORSDOF 4
ENDMDL
MODEL 4
REMARK VINA RESULT:      -7.8      3.732      5.152
REMARK  Name = 
REMARK  4 active torsions:
REMARK  status: ('A' for Active; 'I' for Inactive)
REMARK    1  A    between atoms: C_5  and  C_6
REMARK    2  A    between atoms: C_6  and  S_7
REMARK    3  A    between atoms: S_7  and  C_8
REMARK    4  A    between atoms: C_14  and  C_15
REMARK                            x       y       z     vdW  Elec       q    Type
REMARK                         _______ _______ _______ _____ _____    ______ ____
ROOT
ATOM      1  C   UNL     1       4.757   3.535  18.037  0.00  0.00    +0.000 A 
ATOM      2  C   UNL     1       5.115   4.301  19.260  0.00  0.00    +0.000 A 
ATOM      3  C   UNL     1       6.033   5.269  19.130  0.00  0.00    +0.000 A 
ATOM      4  C   UNL     1       6.598   5.517  17.860  0.00  0.00    +0.000 A 
ATOM      5  N   UNL     1       7.516   6.357  17.438  0.00  0.00    +0.000 NA
ATOM      6  N   UNL     1       7.671   6.161  16.082  0.00  0.00    +0.000 NA
ATOM      7  C   UNL     1       6.825   5.223  15.691  0.00  0.00    +0.000 A 
ATOM      8  N   UNL     1       6.146   4.754  16.802  0.00  0.00    +0.000 N 
ATOM      9  N   UNL     1       5.230   3.734  16.851  0.00  0.00    +0.000 NA
ENDROOT
BRANCH   7  10
ATOM     10  C   UNL     1       6.646   4.716  14.334  0.00  0.00    +0.000 A 
ATOM     11  C   UNL     1       7.570   5.016  13.330  0.00  0.00    +0.000 A 
ATOM     12  C   UNL     1       7.404   4.483  12.052  0.00  0.00    +0.000 A 
ATOM     13  C   UNL     1       6.304   3.676  11.811  0.00  0.00    +0.000 A 
ATOM     14  N   UNL     1       5.375   3.382  12.743  0.00  0.00    +0.000 NA
ATOM     15  C   UNL     1       5.565   3.914  13.974  0.00  0.00    +0.000 A 
ENDBRANCH   7  10
BRANCH   1  16
ATOM     16  S   UNL     1       3.555   2.290  18.307  0.00  0.00    +0.000 S 
BRANCH  16  17
ATOM     17  C   UNL     1       2.021   3.210  17.970  0.00  0.00    +0.000 C 
BRANCH  17  22
ATOM     18  F   UNL     1       1.962   8.223  20.584  0.00  0.00    +0.000 F 
ATOM     19  C   UNL     1       1.972   7.036  19.963  0.00  0.00    +0.000 A 
ATOM     20  C   UNL     1       1.677   5.884  20.680  0.00  0.00    +0.000 A 
ATOM     21  C   UNL     1       1.690   4.646  20.032  0.00  0.00    +0.000 A 
ATOM     22  C   UNL     1       2.002   4.556  18.665  0.00  0.00    +0.000 A 
ATOM     23  C   UNL     1       2.293   5.737  17.959  0.00  0.00    +0.000 A 
ATOM     24  C   UNL     1       2.280   6.974  18.610  0.00  0.00    +0.000 A 
ENDBRANCH  17  22
ENDBRANCH  16  17
ENDBRANCH   1  16
TORSDOF 4
ENDMDL
MODEL 5
REMARK VINA RESULT:      -7.8      3.710      5.113
REMARK  Name = 
REMARK  4 active torsions:
REMARK  status: ('A' for Active; 'I' for Inactive)
REMARK    1  A    between atoms: C_5  and  C_6
REMARK    2  A    between atoms: C_6  and  S_7
REMARK    3  A    between atoms: S_7  and  C_8
REMARK    4  A    between atoms: C_14  and  C_15
REMARK                            x       y       z     vdW  Elec       q    Type
REMARK                         _______ _______ _______ _____ _____    ______ ____
ROOT
ATOM      1  C   UNL     1       4.700   3.474  18.080  0.00  0.00    +0.000 A 
ATOM      2  C   UNL     1       5.159   4.244  19.266  0.00  0.00    +0.000 A 
ATOM      3  C   UNL     1       6.103   5.173  19.065  0.00  0.00    +0.000 A 
ATOM      4  C   UNL     1       6.601   5.380  17.761  0.00  0.00    +0.000 A 
ATOM      5  N   UNL     1       7.523   6.177  17.270  0.00  0.00    +0.000 NA
ATOM      6  N   UNL     1       7.590   5.954  15.912  0.00  0.00    +0.000 NA
ATOM      7  C   UNL     1       6.687   5.044  15.587  0.00  0.00    +0.000 A 
ATOM      8  N   UNL     1       6.058   4.619  16.745  0.00  0.00    +0.000 N 
ATOM      9  N   UNL     1       5.109   3.636  16.864  0.00  0.00    +0.000 NA
ENDROOT
BRANCH   7  10
ATOM     10  C   UNL     1       6.409   4.524  14.253  0.00  0.00    +0.000 A 
ATOM     11  C   UNL     1       7.391   4.542  13.258  0.00  0.00    +0.000 A 
ATOM     12  C   UNL     1       7.117   3.998  12.003  0.00  0.00    +0.000 A 
ATOM     13  C   UNL     1       5.859   3.464  11.774  0.00  0.00    +0.000 A 
ATOM     14  N   UNL     1       4.875   3.449  12.696  0.00  0.00    +0.000 NA
ATOM     15  C   UNL     1       5.172   3.984  13.905  0.00  0.00    +0.000 A 
ENDBRANCH   7  10
BRANCH   1  16
ATOM     16  S   UNL     1       3.470   2.281  18.442  0.00  0.00    +0.000 S 
BRANCH  16  17
ATOM     17  C   UNL     1       1.956   3.226  18.088  0.00  0.00    +0.000 C 
BRANCH  17  22
ATOM     18  F   UNL     1       1.970   8.304  20.573  0.00  0.00    +0.000 F 
ATOM     19  C   UNL     1       1.970   7.100  19.986  0.00  0.00    +0.000 A 
ATOM     20  C   UNL     1       2.289   6.993  18.639  0.00  0.00    +0.000 A 
ATOM     21  C   UNL     1       2.288   5.738  18.027  0.00  0.00    +0.000 A 
ATOM     22  C   UNL     1       1.963   4.584  18.759  0.00  0.00    +0.000 A 
ATOM     23  C   UNL     1       1.647   4.715  20.123  0.00  0.00    +0.000 A 
ATOM     24  C   UNL     1       1.649   5.974  20.733  0.00  0.00    +0.000 A 
ENDBRANCH  17  22
ENDBRANCH  16  17
ENDBRANCH   1  16
TORSDOF 4
ENDMDL
MODEL 6
REMARK VINA RESULT:      -7.8      1.960      2.675
REMARK  Name = 
REMARK  4 active torsions:
REMARK  status: ('A' for Active; 'I' for Inactive)
REMARK    1  A    between atoms: C_5  and  C_6
REMARK    2  A    between atoms: C_6  and  S_7
REMARK    3  A    between atoms: S_7  and  C_8
REMARK    4  A    between atoms: C_14  and  C_15
REMARK                            x       y       z     vdW  Elec       q    Type
REMARK                         _______ _______ _______ _____ _____    ______ ____
ROOT
ATOM      1  C   UNL     1       2.214   6.206  19.796  0.00  0.00    +0.000 A 
ATOM      2  C   UNL     1       1.369   5.404  20.719  0.00  0.00    +0.000 A 
ATOM      3  C   UNL     1       1.544   4.075  20.710  0.00  0.00    +0.000 A 
ATOM      4  C   UNL     1       2.509   3.512  19.848  0.00  0.00    +0.000 A 
ATOM      5  N   UNL     1       2.877   2.275  19.602  0.00  0.00    +0.000 NA
ATOM      6  N   UNL     1       3.881   2.316  18.658  0.00  0.00    +0.000 NA
ATOM      7  C   UNL     1       4.132   3.581  18.363  0.00  0.00    +0.000 A 
ATOM      8  N   UNL     1       3.250   4.379  19.070  0.00  0.00    +0.000 N 
ATOM      9  N   UNL     1       3.123   5.744  19.002  0.00  0.00    +0.000 NA
ENDROOT
BRANCH   7  10
ATOM     10  C   UNL     1       5.130   4.078  17.421  0.00  0.00    +0.000 A 
ATOM     11  C   UNL     1       6.382   4.509  17.866  0.00  0.00    +0.000 A 
ATOM     12  C   UNL     1       7.337   4.939  16.944  0.00  0.00    +0.000 A 
ATOM     13  C   UNL     1       7.003   4.938  15.599  0.00  0.00    +0.000 A 
ATOM     14  N   UNL     1       5.799   4.555  15.129  0.00  0.00    +0.000 NA
ATOM     15  C   UNL     1       4.894   4.143  16.049  0.00  0.00    +0.000 A 
ENDBRANCH   7  10
BRANCH   1  16
ATOM     16  S   UNL     1       1.912   7.930  19.876  0.00  0.00    +0.000 S 
BRANCH  16  17
ATOM     17  C   UNL     1       1.202   8.080  21.545  0.00  0.00    +0.000 C 
BRANCH  17  22
ATOM     18  F   UNL     1      -2.071  12.660  22.071  0.00  0.00    +0.000 F 
ATOM     19  C   UNL     1      -1.299  11.573  21.944  0.00  0.00    +0.000 A 
ATOM     20  C   UNL     1      -1.047  10.777  23.054  0.00  0.00    +0.000 A 
ATOM     21  C   UNL     1      -0.241   9.643  22.922  0.00  0.00    +0.000 A 
ATOM     22  C   UNL     1       0.322   9.306  21.680  0.00  0.00    +0.000 A 
ATOM     23  C   UNL     1       0.050  10.124  20.569  0.00  0.00    +0.000 A 
ATOM     24  C   UNL     1      -0.757  11.258  20.705  0.00  0.00    +0.000 A 
ENDBRANCH  17  22
ENDBRANCH  16  17
ENDBRANCH   1  16
TORSDOF 4
ENDMDL
MODEL 7
REMARK VINA RESULT:      -7.8      1.110      1.662
REMARK  Name = 
REMARK  4 active torsions:
REMARK  status: ('A' for Active; 'I' for Inactive)
REMARK    1  A    between atoms: C_5  and  C_6
REMARK    2  A    between atoms: C_6  and  S_7
REMARK    3  A    between atoms: S_7  and  C_8
REMARK    4  A    between atoms: C_14  and  C_15
REMARK                            x       y       z     vdW  Elec       q    Type
REMARK                         _______ _______ _______ _____ _____    ______ ____
ROOT
ATOM      1  C   UNL     1       2.450   6.677  19.338  0.00  0.00    +0.000 A 
ATOM      2  C   UNL     1       1.771   6.103  20.529  0.00  0.00    +0.000 A 
ATOM      3  C   UNL     1       2.085   4.844  20.866  0.00  0.00    +0.000 A 
ATOM      4  C   UNL     1       3.034   4.141  20.093  0.00  0.00    +0.000 A 
ATOM      5  N   UNL     1       3.512   2.918  20.158  0.00  0.00    +0.000 NA
ATOM      6  N   UNL     1       4.428   2.772  19.139  0.00  0.00    +0.000 NA
ATOM      7  C   UNL     1       4.518   3.917  18.483  0.00  0.00    +0.000 A 
ATOM      8  N   UNL     1       3.615   4.810  19.034  0.00  0.00    +0.000 N 
ATOM      9  N   UNL     1       3.337   6.084  18.609  0.00  0.00    +0.000 NA
ENDROOT
BRANCH   7  10
ATOM     10  C   UNL     1       5.379   4.207  17.341  0.00  0.00    +0.000 A 
ATOM     11  C   UNL     1       4.887   4.135  16.036  0.00  0.00    +0.000 A 
ATOM     12  C   UNL     1       5.716   4.460  14.962  0.00  0.00    +0.000 A 
ATOM     13  C   UNL     1       7.024   4.834  15.227  0.00  0.00    +0.000 A 
ATOM     14  N   UNL     1       7.547   4.892  16.469  0.00  0.00    +0.000 NA
ATOM     15  C   UNL     1       6.717   4.571  17.490  0.00  0.00    +0.000 A 
ENDBRANCH   7  10
BRANCH   1  16
ATOM     16  S   UNL     1       1.971   8.323  18.975  0.00  0.00    +0.000 S 
BRANCH  16  17
ATOM     17  C   UNL     1       1.130   8.788  20.520  0.00  0.00    +0.000 C 
BRANCH  17  22
ATOM     18  F   UNL     1      -2.075  13.402  19.882  0.00  0.00    +0.000 F 
ATOM     19  C   UNL     1      -1.319  12.307  20.034  0.00  0.00    +0.000 A 
ATOM     20  C   UNL     1      -0.474  12.203  21.131  0.00  0.00    +0.000 A 
ATOM     21  C   UNL     1       0.315  11.061  21.290  0.00  0.00    +0.000 A 
ATOM     22  C   UNL     1       0.266  10.020  20.347  0.00  0.00    +0.000 A 
ATOM     23  C   UNL     1      -0.601  10.145  19.247  0.00  0.00    +0.000 A 
ATOM     24  C   UNL     1      -1.389  11.289  19.091  0.00  0.00    +0.000 A 
ENDBRANCH  17  22
ENDBRANCH  16  17
ENDBRANCH   1  16
TORSDOF 4
ENDMDL
MODEL 8
REMARK VINA RESULT:      -7.7      1.413      1.648
REMARK  Name = 
REMARK  4 active torsions:
REMARK  status: ('A' for Active; 'I' for Inactive)
REMARK    1  A    between atoms: C_5  and  C_6
REMARK    2  A    between atoms: C_6  and  S_7
REMARK    3  A    between atoms: S_7  and  C_8
REMARK    4  A    between atoms: C_14  and  C_15
REMARK                            x       y       z     vdW  Elec       q    Type
REMARK                         _______ _______ _______ _____ _____    ______ ____
ROOT
ATOM      1  C   UNL     1       2.611   7.287  18.552  0.00  0.00    +0.000 A 
ATOM      2  C   UNL     1       1.933   6.951  19.832  0.00  0.00    +0.000 A 
ATOM      3  C   UNL     1       2.219   5.764  20.383  0.00  0.00    +0.000 A 
ATOM      4  C   UNL     1       3.140   4.908  19.740  0.00  0.00    +0.000 A 
ATOM      5  N   UNL     1       3.586   3.704  20.016  0.00  0.00    +0.000 NA
ATOM      6  N   UNL     1       4.485   3.354  19.031  0.00  0.00    +0.000 NA
ATOM      7  C   UNL     1       4.596   4.363  18.183  0.00  0.00    +0.000 A 
ATOM      8  N   UNL     1       3.723   5.363  18.574  0.00  0.00    +0.000 N 
ATOM      9  N   UNL     1       3.473   6.550  17.933  0.00  0.00    +0.000 NA
ENDROOT
BRANCH   7  10
ATOM     10  C   UNL     1       5.450   4.422  17.000  0.00  0.00    +0.000 A 
ATOM     11  C   UNL     1       4.932   4.164  15.729  0.00  0.00    +0.000 A 
ATOM     12  C   UNL     1       5.756   4.270  14.608  0.00  0.00    +0.000 A 
ATOM     13  C   UNL     1       7.084   4.619  14.796  0.00  0.00    +0.000 A 
ATOM     14  N   UNL     1       7.631   4.851  16.007  0.00  0.00    +0.000 NA
ATOM     15  C   UNL     1       6.805   4.740  17.075  0.00  0.00    +0.000 A 
ENDBRANCH   7  10
BRANCH   1  16
ATOM     16  S   UNL     1       2.171   8.855  17.907  0.00  0.00    +0.000 S 
BRANCH  16  17
ATOM     17  C   UNL     1       1.115   9.495  19.244  0.00  0.00    +0.000 C 
BRANCH  17  22
ATOM     18  F   UNL     1      -0.527  14.825  18.312  0.00  0.00    +0.000 F 
ATOM     19  C   UNL     1      -0.136  13.562  18.529  0.00  0.00    +0.000 A 
ATOM     20  C   UNL     1      -1.092  12.566  18.688  0.00  0.00    +0.000 A 
ATOM     21  C   UNL     1      -0.685  11.249  18.915  0.00  0.00    +0.000 A 
ATOM     22  C   UNL     1       0.680  10.924  18.989  0.00  0.00    +0.000 A 
ATOM     23  C   UNL     1       1.629  11.948  18.821  0.00  0.00    +0.000 A 
ATOM     24  C   UNL     1       1.219  13.265  18.594  0.00  0.00    +0.000 A 
ENDBRANCH  17  22
ENDBRANCH  16  17
ENDBRANCH   1  16
TORSDOF 4
ENDMDL
MODEL 9
REMARK VINA RESULT:      -7.7      1.466      1.762
REMARK  Name = 
REMARK  4 active torsions:
REMARK  status: ('A' for Active; 'I' for Inactive)
REMARK    1  A    between atoms: C_5  and  C_6
REMARK    2  A    between atoms: C_6  and  S_7
REMARK    3  A    between atoms: S_7  and  C_8
REMARK    4  A    between atoms: C_14  and  C_15
REMARK                            x       y       z     vdW  Elec       q    Type
REMARK                         _______ _______ _______ _____ _____    ______ ____
ROOT
ATOM      1  C   UNL     1       2.629   7.341  18.448  0.00  0.00    +0.000 A 
ATOM      2  C   UNL     1       2.020   6.974  19.754  0.00  0.00    +0.000 A 
ATOM      3  C   UNL     1       2.390   5.806  20.296  0.00  0.00    +0.000 A 
ATOM      4  C   UNL     1       3.330   4.999  19.619  0.00  0.00    +0.000 A 
ATOM      5  N   UNL     1       3.851   3.821  19.880  0.00  0.00    +0.000 NA
ATOM      6  N   UNL     1       4.728   3.516  18.861  0.00  0.00    +0.000 NA
ATOM      7  C   UNL     1       4.752   4.526  18.007  0.00  0.00    +0.000 A 
ATOM      8  N   UNL     1       3.843   5.480  18.431  0.00  0.00    +0.000 N 
ATOM      9  N   UNL     1       3.505   6.648  17.797  0.00  0.00    +0.000 NA
ENDROOT
BRANCH   7  10
ATOM     10  C   UNL     1       5.555   4.627  16.793  0.00  0.00    +0.000 A 
ATOM     11  C   UNL     1       5.160   3.984  15.617  0.00  0.00    +0.000 A 
ATOM     12  C   UNL     1       5.919   4.130  14.456  0.00  0.00    +0.000 A 
ATOM     13  C   UNL     1       7.065   4.907  14.511  0.00  0.00    +0.000 A 
ATOM     14  N   UNL     1       7.498   5.523  15.630  0.00  0.00    +0.000 NA
ATOM     15  C   UNL     1       6.738   5.362  16.740  0.00  0.00    +0.000 A 
ENDBRANCH   7  10
BRANCH   1  16
ATOM     16  S   UNL     1       2.081   8.881  17.818  0.00  0.00    +0.000 S 
BRANCH  16  17
ATOM     17  C   UNL     1       1.192   9.549  19.259  0.00  0.00    +0.000 C 
BRANCH  17  22
ATOM     18  F   UNL     1      -0.588  14.840  18.363  0.00  0.00    +0.000 F 
ATOM     19  C   UNL     1      -0.169  13.586  18.579  0.00  0.00    +0.000 A 
ATOM     20  C   UNL     1       1.135  13.362  19.001  0.00  0.00    +0.000 A 
ATOM     21  C   UNL     1       1.573  12.054  19.225  0.00  0.00    +0.000 A 
ATOM     22  C   UNL     1       0.709  10.965  19.022  0.00  0.00    +0.000 A 
ATOM     23  C   UNL     1      -0.608  11.216  18.598  0.00  0.00    +0.000 A 
ATOM     24  C   UNL     1      -1.043  12.526  18.375  0.00  0.00    +0.000 A 
ENDBRANCH  17  22
ENDBRANCH  16  17
ENDBRANCH   1  16
TORSDOF 4
ENDMDL
