MODEL 1
REMARK VINA RESULT:      -5.8      0.000      0.000
REMARK  Name = 
REMARK  5 active torsions:
REMARK  status: ('A' for Active; 'I' for Inactive)
REMARK    1  A    between atoms: C_1  and  C_2
REMARK    2  A    between atoms: C_2  and  C_3
REMARK    3  A    between atoms: C_3  and  N_4
REMARK    4  A    between atoms: N_4  and  C_5
REMARK    5  A    between atoms: C_5  and  C_6
REMARK                            x       y       z     vdW  Elec       q    Type
REMARK                         _______ _______ _______ _____ _____    ______ ____
ROOT
ATOM      1  C   UNL     1       5.464   5.082  15.578  0.00  0.00    +0.000 A 
ATOM      2  C   UNL     1       5.179   6.371  16.064  0.00  0.00    +0.000 A 
ATOM      3  C   UNL     1       4.265   6.549  17.104  0.00  0.00    +0.000 A 
ATOM      4  C   UNL     1       3.617   5.448  17.670  0.00  0.00    +0.000 A 
ATOM      5 CL   UNL     1       2.458   5.715  18.966  0.00  0.00    +0.000 Cl
ATOM      6  C   UNL     1       3.891   4.155  17.192  0.00  0.00    +0.000 A 
ATOM      7 CL   UNL     1       3.087   2.745  17.868  0.00  0.00    +0.000 Cl
ATOM      8  C   UNL     1       4.812   3.977  16.153  0.00  0.00    +0.000 A 
ENDROOT
BRANCH   1   9
ATOM      9  C   UNL     1       6.416   4.897  14.430  0.00  0.00    +0.000 C 
BRANCH   9  10
ATOM     10  N   UNL     1       6.313   3.545  13.857  0.00  0.00    +0.000 NA
ATOM     11  H   UNL     1       7.048   2.916  14.254  0.00  0.00    +0.000 HD
BRANCH  10  12
ATOM     12  C   UNL     1       6.430   3.545  12.388  0.00  0.00    +0.000 C 
BRANCH  12  14
ATOM     13  C   UNL     1       4.139   3.281  11.334  0.00  0.00    +0.000 C 
ATOM     14  C   UNL     1       5.435   2.577  11.714  0.00  0.00    +0.000 C 
ENDBRANCH  12  14
ENDBRANCH  10  12
ENDBRANCH   9  10
ENDBRANCH   1   9
TORSDOF 4
ENDMDL
MODEL 2
REMARK VINA RESULT:      -5.7      3.901      5.903
REMARK  Name = 
REMARK  5 active torsions:
REMARK  status: ('A' for Active; 'I' for Inactive)
REMARK    1  A    between atoms: C_1  and  C_2
REMARK    2  A    between atoms: C_2  and  C_3
REMARK    3  A    between atoms: C_3  and  N_4
REMARK    4  A    between atoms: N_4  and  C_5
REMARK    5  A    between atoms: C_5  and  C_6
REMARK                            x       y       z     vdW  Elec       q    Type
REMARK                         _______ _______ _______ _____ _____    ______ ____
ROOT
ATOM      1  C   UNL     1       3.973   3.688  17.741  0.00  0.00    +0.000 A 
ATOM      2  C   UNL     1       4.203   4.369  18.951  0.00  0.00    +0.000 A 
ATOM      3  C   UNL     1       5.343   5.158  19.113  0.00  0.00    +0.000 A 
ATOM      4  C   UNL     1       6.273   5.276  18.077  0.00  0.00    +0.000 A 
ATOM      5 CL   UNL     1       7.705   6.265  18.327  0.00  0.00    +0.000 Cl
ATOM      6  C   UNL     1       6.057   4.599  16.865  0.00  0.00    +0.000 A 
ATOM      7 CL   UNL     1       7.209   4.710  15.541  0.00  0.00    +0.000 Cl
ATOM      8  C   UNL     1       4.910   3.812  16.701  0.00  0.00    +0.000 A 
ENDROOT
BRANCH   1   9
ATOM      9  C   UNL     1       2.768   2.805  17.584  0.00  0.00    +0.000 C 
BRANCH   9  10
ATOM     10  N   UNL     1       2.368   2.204  18.867  0.00  0.00    +0.000 NA
ATOM     11  H   UNL     1       2.399   1.159  18.813  0.00  0.00    +0.000 HD
BRANCH  10  12
ATOM     12  C   UNL     1       1.019   2.619  19.289  0.00  0.00    +0.000 C 
BRANCH  12  14
ATOM     13  C   UNL     1       2.159   2.803  21.547  0.00  0.00    +0.000 C 
ATOM     14  C   UNL     1       1.015   3.300  20.673  0.00  0.00    +0.000 C 
ENDBRANCH  12  14
ENDBRANCH  10  12
ENDBRANCH   9  10
ENDBRANCH   1   9
TORSDOF 4
ENDMDL
MODEL 3
REMARK VINA RESULT:      -5.6      2.370      3.427
REMARK  Name = 
REMARK  5 active torsions:
REMARK  status: ('A' for Active; 'I' for Inactive)
REMARK    1  A    between atoms: C_1  and  C_2
REMARK    2  A    between atoms: C_2  and  C_3
REMARK    3  A    between atoms: C_3  and  N_4
REMARK    4  A    between atoms: N_4  and  C_5
REMARK    5  A    between atoms: C_5  and  C_6
REMARK                            x       y       z     vdW  Elec       q    Type
REMARK                         _______ _______ _______ _____ _____    ______ ____
ROOT
ATOM      1  C   UNL     1       4.735   4.057  18.308  0.00  0.00    +0.000 A 
ATOM      2  C   UNL     1       3.876   3.893  17.206  0.00  0.00    +0.000 A 
ATOM      3  C   UNL     1       2.596   3.363  17.378  0.00  0.00    +0.000 A 
ATOM      4  C   UNL     1       2.155   2.983  18.649  0.00  0.00    +0.000 A 
ATOM      5 CL   UNL     1       0.544   2.302  18.823  0.00  0.00    +0.000 Cl
ATOM      6  C   UNL     1       3.004   3.140  19.758  0.00  0.00    +0.000 A 
ATOM      7 CL   UNL     1       2.494   2.662  21.371  0.00  0.00    +0.000 Cl
ATOM      8  C   UNL     1       4.286   3.677  19.584  0.00  0.00    +0.000 A 
ENDROOT
BRANCH   1   9
ATOM      9  C   UNL     1       6.127   4.588  18.113  0.00  0.00    +0.000 C 
BRANCH   9  10
ATOM     10  N   UNL     1       6.710   4.119  16.845  0.00  0.00    +0.000 NA
ATOM     11  H   UNL     1       7.599   3.594  17.018  0.00  0.00    +0.000 HD
BRANCH  10  12
ATOM     12  C   UNL     1       6.984   5.222  15.908  0.00  0.00    +0.000 C 
BRANCH  12  14
ATOM     13  C   UNL     1       5.739   4.088  14.012  0.00  0.00    +0.000 C 
ATOM     14  C   UNL     1       7.042   4.751  14.440  0.00  0.00    +0.000 C 
ENDBRANCH  12  14
ENDBRANCH  10  12
ENDBRANCH   9  10
ENDBRANCH   1   9
TORSDOF 4
ENDMDL
MODEL 4
REMARK VINA RESULT:      -5.6      3.642      5.729
REMARK  Name = 
REMARK  5 active torsions:
REMARK  status: ('A' for Active; 'I' for Inactive)
REMARK    1  A    between atoms: C_1  and  C_2
REMARK    2  A    between atoms: C_2  and  C_3
REMARK    3  A    between atoms: C_3  and  N_4
REMARK    4  A    between atoms: N_4  and  C_5
REMARK    5  A    between atoms: C_5  and  C_6
REMARK                            x       y       z     vdW  Elec       q    Type
REMARK                         _______ _______ _______ _____ _____    ______ ____
ROOT
ATOM      1  C   UNL     1       2.795   4.643  17.651  0.00  0.00    +0.000 A 
ATOM      2  C   UNL     1       3.162   5.871  18.231  0.00  0.00    +0.000 A 
ATOM      3  C   UNL     1       4.425   6.416  17.996  0.00  0.00    +0.000 A 
ATOM      4  C   UNL     1       5.344   5.743  17.185  0.00  0.00    +0.000 A 
ATOM      5 CL   UNL     1       6.932   6.452  16.929  0.00  0.00    +0.000 Cl
ATOM      6  C   UNL     1       4.991   4.514  16.602  0.00  0.00    +0.000 A 
ATOM      7 CL   UNL     1       6.122   3.629  15.587  0.00  0.00    +0.000 Cl
ATOM      8  C   UNL     1       3.721   3.972  16.834  0.00  0.00    +0.000 A 
ENDROOT
BRANCH   1   9
ATOM      9  C   UNL     1       1.450   4.038  17.940  0.00  0.00    +0.000 C 
BRANCH   9  10
ATOM     10  N   UNL     1       1.532   2.574  18.063  0.00  0.00    +0.000 NA
ATOM     11  H   UNL     1       0.673   2.120  17.675  0.00  0.00    +0.000 HD
BRANCH  10  12
ATOM     12  C   UNL     1       1.714   2.133  19.457  0.00  0.00    +0.000 C 
BRANCH  12  14
ATOM     13  C   UNL     1       2.120   3.413  21.608  0.00  0.00    +0.000 C 
ATOM     14  C   UNL     1       1.139   3.139  20.476  0.00  0.00    +0.000 C 
ENDBRANCH  12  14
ENDBRANCH  10  12
ENDBRANCH   9  10
ENDBRANCH   1   9
TORSDOF 4
ENDMDL
MODEL 5
REMARK VINA RESULT:      -5.6      3.022      4.210
REMARK  Name = 
REMARK  5 active torsions:
REMARK  status: ('A' for Active; 'I' for Inactive)
REMARK    1  A    between atoms: C_1  and  C_2
REMARK    2  A    between atoms: C_2  and  C_3
REMARK    3  A    between atoms: C_3  and  N_4
REMARK    4  A    between atoms: N_4  and  C_5
REMARK    5  A    between atoms: C_5  and  C_6
REMARK                            x       y       z     vdW  Elec       q    Type
REMARK                         _______ _______ _______ _____ _____    ______ ____
ROOT
ATOM      1  C   UNL     1       3.785   4.019  17.541  0.00  0.00    +0.000 A 
ATOM      2  C   UNL     1       2.426   4.378  17.615  0.00  0.00    +0.000 A 
ATOM      3  C   UNL     1       1.654   4.007  18.717  0.00  0.00    +0.000 A 
ATOM      4  C   UNL     1       2.222   3.266  19.758  0.00  0.00    +0.000 A 
ATOM      5 CL   UNL     1       1.211   2.801  21.119  0.00  0.00    +0.000 Cl
ATOM      6  C   UNL     1       3.576   2.898  19.695  0.00  0.00    +0.000 A 
ATOM      7 CL   UNL     1       4.324   1.955  20.977  0.00  0.00    +0.000 Cl
ATOM      8  C   UNL     1       4.351   3.277  18.591  0.00  0.00    +0.000 A 
ENDROOT
BRANCH   1   9
ATOM      9  C   UNL     1       4.602   4.384  16.334  0.00  0.00    +0.000 C 
BRANCH   9  10
ATOM     10  N   UNL     1       5.855   3.613  16.279  0.00  0.00    +0.000 NA
ATOM     11  H   UNL     1       5.918   2.948  17.084  0.00  0.00    +0.000 HD
BRANCH  10  12
ATOM     12  C   UNL     1       7.049   4.477  16.281  0.00  0.00    +0.000 C 
BRANCH  12  14
ATOM     13  C   UNL     1       7.468   6.086  18.195  0.00  0.00    +0.000 C 
ATOM     14  C   UNL     1       7.646   4.660  17.691  0.00  0.00    +0.000 C 
ENDBRANCH  12  14
ENDBRANCH  10  12
ENDBRANCH   9  10
ENDBRANCH   1   9
TORSDOF 4
ENDMDL
MODEL 6
REMARK VINA RESULT:      -5.6      2.748      4.318
REMARK  Name = 
REMARK  5 active torsions:
REMARK  status: ('A' for Active; 'I' for Inactive)
REMARK    1  A    between atoms: C_1  and  C_2
REMARK    2  A    between atoms: C_2  and  C_3
REMARK    3  A    between atoms: C_3  and  N_4
REMARK    4  A    between atoms: N_4  and  C_5
REMARK    5  A    between atoms: C_5  and  C_6
REMARK                            x       y       z     vdW  Elec       q    Type
REMARK                         _______ _______ _______ _____ _____    ______ ____
ROOT
ATOM      1  C   UNL     1       3.914   4.190  17.194  0.00  0.00    +0.000 A 
ATOM      2  C   UNL     1       3.400   2.934  17.564  0.00  0.00    +0.000 A 
ATOM      3  C   UNL     1       2.509   2.821  18.633  0.00  0.00    +0.000 A 
ATOM      4  C   UNL     1       2.124   3.955  19.353  0.00  0.00    +0.000 A 
ATOM      5 CL   UNL     1       1.015   3.769  20.704  0.00  0.00    +0.000 Cl
ATOM      6  C   UNL     1       2.632   5.216  18.995  0.00  0.00    +0.000 A 
ATOM      7 CL   UNL     1       2.182   6.665  19.883  0.00  0.00    +0.000 Cl
ATOM      8  C   UNL     1       3.521   5.328  17.918  0.00  0.00    +0.000 A 
ENDROOT
BRANCH   1   9
ATOM      9  C   UNL     1       4.905   4.304  16.070  0.00  0.00    +0.000 C 
BRANCH   9  10
ATOM     10  N   UNL     1       6.171   3.626  16.396  0.00  0.00    +0.000 NA
ATOM     11  H   UNL     1       6.070   3.049  17.264  0.00  0.00    +0.000 HD
BRANCH  10  12
ATOM     12  C   UNL     1       7.286   4.570  16.580  0.00  0.00    +0.000 C 
BRANCH  12  14
ATOM     13  C   UNL     1       7.605   6.469  18.229  0.00  0.00    +0.000 C 
ATOM     14  C   UNL     1       7.495   4.960  18.058  0.00  0.00    +0.000 C 
ENDBRANCH  12  14
ENDBRANCH  10  12
ENDBRANCH   9  10
ENDBRANCH   1   9
TORSDOF 4
ENDMDL
MODEL 7
REMARK VINA RESULT:      -5.6      3.215      4.245
REMARK  Name = 
REMARK  5 active torsions:
REMARK  status: ('A' for Active; 'I' for Inactive)
REMARK    1  A    between atoms: C_1  and  C_2
REMARK    2  A    between atoms: C_2  and  C_3
REMARK    3  A    between atoms: C_3  and  N_4
REMARK    4  A    between atoms: N_4  and  C_5
REMARK    5  A    between atoms: C_5  and  C_6
REMARK                            x       y       z     vdW  Elec       q    Type
REMARK                         _______ _______ _______ _____ _____    ______ ____
ROOT
ATOM      1  C   UNL     1       4.076   5.352  17.739  0.00  0.00    +0.000 A 
ATOM      2  C   UNL     1       3.746   6.699  17.503  0.00  0.00    +0.000 A 
ATOM      3  C   UNL     1       2.951   7.404  18.409  0.00  0.00    +0.000 A 
ATOM      4  C   UNL     1       2.469   6.775  19.561  0.00  0.00    +0.000 A 
ATOM      5 CL   UNL     1       1.456   7.690  20.668  0.00  0.00    +0.000 Cl
ATOM      6  C   UNL     1       2.789   5.429  19.808  0.00  0.00    +0.000 A 
ATOM      7 CL   UNL     1       2.191   4.598  21.237  0.00  0.00    +0.000 Cl
ATOM      8  C   UNL     1       3.591   4.726  18.900  0.00  0.00    +0.000 A 
ENDROOT
BRANCH   1   9
ATOM      9  C   UNL     1       4.895   4.585  16.741  0.00  0.00    +0.000 C 
BRANCH   9  10
ATOM     10  N   UNL     1       6.056   3.941  17.377  0.00  0.00    +0.000 NA
ATOM     11  H   UNL     1       5.902   3.832  18.407  0.00  0.00    +0.000 HD
BRANCH  10  12
ATOM     12  C   UNL     1       7.307   4.689  17.160  0.00  0.00    +0.000 C 
BRANCH  12  14
ATOM     13  C   UNL     1       7.549   7.152  17.711  0.00  0.00    +0.000 C 
ATOM     14  C   UNL     1       7.572   5.733  18.264  0.00  0.00    +0.000 C 
ENDBRANCH  12  14
ENDBRANCH  10  12
ENDBRANCH   9  10
ENDBRANCH   1   9
TORSDOF 4
ENDMDL
MODEL 8
REMARK VINA RESULT:      -5.6      1.455      1.939
REMARK  Name = 
REMARK  5 active torsions:
REMARK  status: ('A' for Active; 'I' for Inactive)
REMARK    1  A    between atoms: C_1  and  C_2
REMARK    2  A    between atoms: C_2  and  C_3
REMARK    3  A    between atoms: C_3  and  N_4
REMARK    4  A    between atoms: N_4  and  C_5
REMARK    5  A    between atoms: C_5  and  C_6
REMARK                            x       y       z     vdW  Elec       q    Type
REMARK                         _______ _______ _______ _____ _____    ______ ____
ROOT
ATOM      1  C   UNL     1       5.050   5.355  17.055  0.00  0.00    +0.000 A 
ATOM      2  C   UNL     1       4.050   6.239  17.499  0.00  0.00    +0.000 A 
ATOM      3  C   UNL     1       2.878   5.750  18.079  0.00  0.00    +0.000 A 
ATOM      4  C   UNL     1       2.683   4.373  18.219  0.00  0.00    +0.000 A 
ATOM      5 CL   UNL     1       1.186   3.795  18.938  0.00  0.00    +0.000 Cl
ATOM      6  C   UNL     1       3.673   3.479  17.778  0.00  0.00    +0.000 A 
ATOM      7 CL   UNL     1       3.460   1.739  17.923  0.00  0.00    +0.000 Cl
ATOM      8  C   UNL     1       4.850   3.972  17.201  0.00  0.00    +0.000 A 
ENDROOT
BRANCH   1   9
ATOM      9  C   UNL     1       6.291   5.883  16.392  0.00  0.00    +0.000 C 
BRANCH   9  10
ATOM     10  N   UNL     1       7.101   4.796  15.820  0.00  0.00    +0.000 NA
ATOM     11  H   UNL     1       8.089   4.851  16.160  0.00  0.00    +0.000 HD
BRANCH  10  12
ATOM     12  C   UNL     1       7.103   4.809  14.347  0.00  0.00    +0.000 C 
BRANCH  12  14
ATOM     13  C   UNL     1       6.341   3.493  12.318  0.00  0.00    +0.000 C 
ATOM     14  C   UNL     1       6.006   3.907  13.745  0.00  0.00    +0.000 C 
ENDBRANCH  12  14
ENDBRANCH  10  12
ENDBRANCH   9  10
ENDBRANCH   1   9
TORSDOF 4
ENDMDL
MODEL 9
REMARK VINA RESULT:      -5.6      3.563      6.069
REMARK  Name = 
REMARK  5 active torsions:
REMARK  status: ('A' for Active; 'I' for Inactive)
REMARK    1  A    between atoms: C_1  and  C_2
REMARK    2  A    between atoms: C_2  and  C_3
REMARK    3  A    between atoms: C_3  and  N_4
REMARK    4  A    between atoms: N_4  and  C_5
REMARK    5  A    between atoms: C_5  and  C_6
REMARK                            x       y       z     vdW  Elec       q    Type
REMARK                         _______ _______ _______ _____ _____    ______ ____
ROOT
ATOM      1  C   UNL     1       3.380   4.824  17.653  0.00  0.00    +0.000 A 
ATOM      2  C   UNL     1       3.788   3.717  16.888  0.00  0.00    +0.000 A 
ATOM      3  C   UNL     1       5.031   3.715  16.251  0.00  0.00    +0.000 A 
ATOM      4  C   UNL     1       5.881   4.819  16.361  0.00  0.00    +0.000 A 
ATOM      5 CL   UNL     1       7.429   4.787  15.528  0.00  0.00    +0.000 Cl
ATOM      6  C   UNL     1       5.484   5.933  17.120  0.00  0.00    +0.000 A 
ATOM      7 CL   UNL     1       6.518   7.347  17.273  0.00  0.00    +0.000 Cl
ATOM      8  C   UNL     1       4.240   5.931  17.763  0.00  0.00    +0.000 A 
ENDROOT
BRANCH   1   9
ATOM      9  C   UNL     1       2.025   4.840  18.302  0.00  0.00    +0.000 C 
BRANCH   9  10
ATOM     10  N   UNL     1       1.250   3.636  17.962  0.00  0.00    +0.000 NA
ATOM     11  H   UNL     1       0.384   3.889  17.431  0.00  0.00    +0.000 HD
BRANCH  10  12
ATOM     12  C   UNL     1       0.867   2.857  19.152  0.00  0.00    +0.000 C 
BRANCH  12  14
ATOM     13  C   UNL     1       1.744   2.802  21.530  0.00  0.00    +0.000 C 
ATOM     14  C   UNL     1       1.058   3.645  20.464  0.00  0.00    +0.000 C 
ENDBRANCH  12  14
ENDBRANCH  10  12
ENDBRANCH   9  10
ENDBRANCH   1   9
TORSDOF 4
ENDMDL
