MODEL 1
REMARK VINA RESULT:      -6.8      0.000      0.000
REMARK  Name = 
REMARK  11 active torsions:
REMARK  status: ('A' for Active; 'I' for Inactive)
REMARK    1  A    between atoms: S_2  and  C_3
REMARK    2  A    between atoms: S_2  and  C_17
REMARK    3  A    between atoms: C_3  and  C_4
REMARK    4  A    between atoms: C_4  and  N_5
REMARK    5  A    between atoms: N_5  and  C_6
REMARK    6  A    between atoms: C_6  and  C_7
REMARK    7  A    between atoms: C_7  and  O_8
REMARK    8  A    between atoms: C_7  and  C_9
REMARK    9  A    between atoms: C_9  and  O_10
REMARK   10  A    between atoms: O_10  and  C_11
REMARK   11  A    between atoms: C_17  and  C_18
REMARK                            x       y       z     vdW  Elec       q    Type
REMARK                         _______ _______ _______ _____ _____    ______ ____
ROOT
ATOM      1  N   UNL     1       5.586   3.203  19.350  0.00  0.00    +0.000 NA
ATOM      2  H   UNL     1       6.433   2.969  19.874  0.00  0.00    +0.000 HD
ENDROOT
BRANCH   1   3
ATOM      3  C   UNL     1       5.246   4.625  19.467  0.00  0.00    +0.000 C 
BRANCH   3   4
ATOM      4  C   UNL     1       5.943   5.474  18.401  0.00  0.00    +0.000 C 
BRANCH   4   6
ATOM      5  O   UNL     1       8.038   4.309  17.076  0.00  0.00    +0.000 OA
ATOM      6  S   UNL     1       6.469   4.392  17.022  0.00  0.00    +0.000 S 
BRANCH   6   7
ATOM      7  C   UNL     1       5.999   5.534  15.677  0.00  0.00    +0.000 C 
BRANCH   7   8
ATOM      8  C   UNL     1       6.304   4.945  14.322  0.00  0.00    +0.000 A 
ATOM      9  C   UNL     1       5.505   3.930  13.776  0.00  0.00    +0.000 A 
ATOM     10  C   UNL     1       5.833   3.356  12.546  0.00  0.00    +0.000 A 
ATOM     11  C   UNL     1       6.962   3.787  11.849  0.00  0.00    +0.000 A 
ATOM     12  C   UNL     1       7.760   4.797  12.380  0.00  0.00    +0.000 A 
ATOM     13  C   UNL     1       7.435   5.372  13.609  0.00  0.00    +0.000 A 
ENDBRANCH   7   8
ENDBRANCH   6   7
ENDBRANCH   4   6
ENDBRANCH   3   4
ENDBRANCH   1   3
BRANCH   1  14
ATOM     14  C   UNL     1       4.486   2.371  19.865  0.00  0.00    +0.000 C 
BRANCH  14  15
ATOM     15  C   UNL     1       3.378   2.169  18.811  0.00  0.00    +0.000 C 
BRANCH  15  16
ATOM     16  O   UNL     1       3.649   0.949  18.095  0.00  0.00    +0.000 OA
ATOM     17  H   UNL     1       2.802   0.508  17.916  0.00  0.00    +0.000 HD
ENDBRANCH  15  16
BRANCH  15  18
ATOM     18  C   UNL     1       2.010   2.111  19.518  0.00  0.00    +0.000 C 
BRANCH  18  19
ATOM     19  O   UNL     1       1.131   3.106  18.980  0.00  0.00    +0.000 OA
BRANCH  19  20
ATOM     20  C   UNL     1       1.521   4.403  19.194  0.00  0.00    +0.000 A 
ATOM     21  C   UNL     1       1.936   5.101  18.054  0.00  0.00    +0.000 A 
ATOM     22  C   UNL     1       2.349   6.431  18.150  0.00  0.00    +0.000 A 
ATOM     23  C   UNL     1       2.336   7.079  19.386  0.00  0.00    +0.000 A 
ATOM     24  C   UNL     1       1.904   6.394  20.518  0.00  0.00    +0.000 A 
ATOM     25  C   UNL     1       1.497   5.063  20.423  0.00  0.00    +0.000 A 
ENDBRANCH  19  20
ENDBRANCH  18  19
ENDBRANCH  15  18
ENDBRANCH  14  15
ENDBRANCH   1  14
TORSDOF 11
ENDMDL
MODEL 2
REMARK VINA RESULT:      -6.8      2.930      6.140
REMARK  Name = 
REMARK  11 active torsions:
REMARK  status: ('A' for Active; 'I' for Inactive)
REMARK    1  A    between atoms: S_2  and  C_3
REMARK    2  A    between atoms: S_2  and  C_17
REMARK    3  A    between atoms: C_3  and  C_4
REMARK    4  A    between atoms: C_4  and  N_5
REMARK    5  A    between atoms: N_5  and  C_6
REMARK    6  A    between atoms: C_6  and  C_7
REMARK    7  A    between atoms: C_7  and  O_8
REMARK    8  A    between atoms: C_7  and  C_9
REMARK    9  A    between atoms: C_9  and  O_10
REMARK   10  A    between atoms: O_10  and  C_11
REMARK   11  A    between atoms: C_17  and  C_18
REMARK                            x       y       z     vdW  Elec       q    Type
REMARK                         _______ _______ _______ _____ _____    ______ ____
ROOT
ATOM      1  N   UNL     1       3.799   2.796  20.039  0.00  0.00    +0.000 NA
ATOM      2  H   UNL     1       4.750   2.833  20.414  0.00  0.00    +0.000 HD
ENDROOT
BRANCH   1   3
ATOM      3  C   UNL     1       2.800   2.637  21.101  0.00  0.00    +0.000 C 
BRANCH   3   4
ATOM      4  C   UNL     1       2.373   3.981  21.697  0.00  0.00    +0.000 C 
BRANCH   4   6
ATOM      5  O   UNL     1       0.977   3.859  19.343  0.00  0.00    +0.000 OA
ATOM      6  S   UNL     1       1.361   4.886  20.470  0.00  0.00    +0.000 S 
BRANCH   6   7
ATOM      7  C   UNL     1       2.704   5.952  19.845  0.00  0.00    +0.000 C 
BRANCH   7   8
ATOM      8  C   UNL     1       2.200   7.332  19.502  0.00  0.00    +0.000 A 
ATOM      9  C   UNL     1       1.454   8.081  20.424  0.00  0.00    +0.000 A 
ATOM     10  C   UNL     1       0.946   9.334  20.071  0.00  0.00    +0.000 A 
ATOM     11  C   UNL     1       1.175   9.850  18.795  0.00  0.00    +0.000 A 
ATOM     12  C   UNL     1       1.917   9.116  17.873  0.00  0.00    +0.000 A 
ATOM     13  C   UNL     1       2.425   7.864  18.223  0.00  0.00    +0.000 A 
ENDBRANCH   7   8
ENDBRANCH   6   7
ENDBRANCH   4   6
ENDBRANCH   3   4
ENDBRANCH   1   3
BRANCH   1  14
ATOM     14  C   UNL     1       3.724   1.669  19.095  0.00  0.00    +0.000 C 
BRANCH  14  15
ATOM     15  C   UNL     1       3.407   2.143  17.661  0.00  0.00    +0.000 C 
BRANCH  15  16
ATOM     16  O   UNL     1       2.010   1.903  17.402  0.00  0.00    +0.000 OA
ATOM     17  H   UNL     1       1.514   2.697  17.658  0.00  0.00    +0.000 HD
ENDBRANCH  15  16
BRANCH  15  18
ATOM     18  C   UNL     1       3.750   3.640  17.536  0.00  0.00    +0.000 C 
BRANCH  18  19
ATOM     19  O   UNL     1       4.937   3.812  16.751  0.00  0.00    +0.000 OA
BRANCH  19  20
ATOM     20  C   UNL     1       5.737   4.859  17.131  0.00  0.00    +0.000 A 
ATOM     21  C   UNL     1       6.788   4.529  17.994  0.00  0.00    +0.000 A 
ATOM     22  C   UNL     1       7.672   5.513  18.442  0.00  0.00    +0.000 A 
ATOM     23  C   UNL     1       7.521   6.834  18.017  0.00  0.00    +0.000 A 
ATOM     24  C   UNL     1       6.489   7.161  17.141  0.00  0.00    +0.000 A 
ATOM     25  C   UNL     1       5.602   6.179  16.699  0.00  0.00    +0.000 A 
ENDBRANCH  19  20
ENDBRANCH  18  19
ENDBRANCH  15  18
ENDBRANCH  14  15
ENDBRANCH   1  14
TORSDOF 11
ENDMDL
MODEL 3
REMARK VINA RESULT:      -6.5      2.558      7.323
REMARK  Name = 
REMARK  11 active torsions:
REMARK  status: ('A' for Active; 'I' for Inactive)
REMARK    1  A    between atoms: S_2  and  C_3
REMARK    2  A    between atoms: S_2  and  C_17
REMARK    3  A    between atoms: C_3  and  C_4
REMARK    4  A    between atoms: C_4  and  N_5
REMARK    5  A    between atoms: N_5  and  C_6
REMARK    6  A    between atoms: C_6  and  C_7
REMARK    7  A    between atoms: C_7  and  O_8
REMARK    8  A    between atoms: C_7  and  C_9
REMARK    9  A    between atoms: C_9  and  O_10
REMARK   10  A    between atoms: O_10  and  C_11
REMARK   11  A    between atoms: C_17  and  C_18
REMARK                            x       y       z     vdW  Elec       q    Type
REMARK                         _______ _______ _______ _____ _____    ______ ____
ROOT
ATOM      1  N   UNL     1       6.107   7.101  16.795  0.00  0.00    +0.000 NA
ATOM      2  H   UNL     1       6.277   7.872  16.144  0.00  0.00    +0.000 HD
ENDROOT
BRANCH   1   3
ATOM      3  C   UNL     1       4.907   7.328  17.608  0.00  0.00    +0.000 C 
BRANCH   3   4
ATOM      4  C   UNL     1       3.908   6.174  17.497  0.00  0.00    +0.000 C 
BRANCH   4   6
ATOM      5  O   UNL     1       2.245   8.328  17.814  0.00  0.00    +0.000 OA
ATOM      6  S   UNL     1       2.250   6.765  17.996  0.00  0.00    +0.000 S 
BRANCH   6   7
ATOM      7  C   UNL     1       2.427   6.394  19.774  0.00  0.00    +0.000 C 
BRANCH   7   8
ATOM      8  C   UNL     1       1.990   4.984  20.090  0.00  0.00    +0.000 A 
ATOM      9  C   UNL     1       2.229   4.417  21.350  0.00  0.00    +0.000 A 
ATOM     10  C   UNL     1       1.870   3.092  21.608  0.00  0.00    +0.000 A 
ATOM     11  C   UNL     1       1.270   2.321  20.612  0.00  0.00    +0.000 A 
ATOM     12  C   UNL     1       1.025   2.875  19.359  0.00  0.00    +0.000 A 
ATOM     13  C   UNL     1       1.384   4.199  19.098  0.00  0.00    +0.000 A 
ENDBRANCH   7   8
ENDBRANCH   6   7
ENDBRANCH   4   6
ENDBRANCH   3   4
ENDBRANCH   1   3
BRANCH   1  14
ATOM     14  C   UNL     1       7.291   6.964  17.659  0.00  0.00    +0.000 C 
BRANCH  14  15
ATOM     15  C   UNL     1       7.627   5.485  17.940  0.00  0.00    +0.000 C 
BRANCH  15  16
ATOM     16  O   UNL     1       6.873   5.058  19.091  0.00  0.00    +0.000 OA
ATOM     17  H   UNL     1       6.401   4.242  18.858  0.00  0.00    +0.000 HD
ENDBRANCH  15  16
BRANCH  15  18
ATOM     18  C   UNL     1       7.278   4.642  16.698  0.00  0.00    +0.000 C 
BRANCH  18  19
ATOM     19  O   UNL     1       7.681   5.326  15.506  0.00  0.00    +0.000 OA
BRANCH  19  20
ATOM     20  C   UNL     1       7.172   4.812  14.341  0.00  0.00    +0.000 A 
ATOM     21  C   UNL     1       5.923   4.190  14.454  0.00  0.00    +0.000 A 
ATOM     22  C   UNL     1       5.304   3.635  13.332  0.00  0.00    +0.000 A 
ATOM     23  C   UNL     1       5.923   3.711  12.084  0.00  0.00    +0.000 A 
ATOM     24  C   UNL     1       7.155   4.349  11.964  0.00  0.00    +0.000 A 
ATOM     25  C   UNL     1       7.776   4.897  13.087  0.00  0.00    +0.000 A 
ENDBRANCH  19  20
ENDBRANCH  18  19
ENDBRANCH  15  18
ENDBRANCH  14  15
ENDBRANCH   1  14
TORSDOF 11
ENDMDL
MODEL 4
REMARK VINA RESULT:      -6.5      1.685      2.596
REMARK  Name = 
REMARK  11 active torsions:
REMARK  status: ('A' for Active; 'I' for Inactive)
REMARK    1  A    between atoms: S_2  and  C_3
REMARK    2  A    between atoms: S_2  and  C_17
REMARK    3  A    between atoms: C_3  and  C_4
REMARK    4  A    between atoms: C_4  and  N_5
REMARK    5  A    between atoms: N_5  and  C_6
REMARK    6  A    between atoms: C_6  and  C_7
REMARK    7  A    between atoms: C_7  and  O_8
REMARK    8  A    between atoms: C_7  and  C_9
REMARK    9  A    between atoms: C_9  and  O_10
REMARK   10  A    between atoms: O_10  and  C_11
REMARK   11  A    between atoms: C_17  and  C_18
REMARK                            x       y       z     vdW  Elec       q    Type
REMARK                         _______ _______ _______ _____ _____    ______ ____
ROOT
ATOM      1  N   UNL     1       2.659   3.810  17.699  0.00  0.00    +0.000 NA
ATOM      2  H   UNL     1       2.013   3.177  17.219  0.00  0.00    +0.000 HD
ENDROOT
BRANCH   1   3
ATOM      3  C   UNL     1       4.038   3.644  17.227  0.00  0.00    +0.000 C 
BRANCH   3   4
ATOM      4  C   UNL     1       5.009   4.585  17.942  0.00  0.00    +0.000 C 
BRANCH   4   6
ATOM      5  O   UNL     1       7.702   4.773  18.411  0.00  0.00    +0.000 OA
ATOM      6  S   UNL     1       6.698   4.309  17.293  0.00  0.00    +0.000 S 
BRANCH   6   7
ATOM      7  C   UNL     1       6.635   5.601  16.004  0.00  0.00    +0.000 C 
BRANCH   7   8
ATOM      8  C   UNL     1       6.730   5.006  14.621  0.00  0.00    +0.000 A 
ATOM      9  C   UNL     1       7.641   5.506  13.679  0.00  0.00    +0.000 A 
ATOM     10  C   UNL     1       7.677   4.982  12.384  0.00  0.00    +0.000 A 
ATOM     11  C   UNL     1       6.805   3.957  12.017  0.00  0.00    +0.000 A 
ATOM     12  C   UNL     1       5.899   3.452  12.945  0.00  0.00    +0.000 A 
ATOM     13  C   UNL     1       5.860   3.973  14.240  0.00  0.00    +0.000 A 
ENDBRANCH   7   8
ENDBRANCH   6   7
ENDBRANCH   4   6
ENDBRANCH   3   4
ENDBRANCH   1   3
BRANCH   1  14
ATOM     14  C   UNL     1       2.577   3.536  19.143  0.00  0.00    +0.000 C 
BRANCH  14  15
ATOM     15  C   UNL     1       1.265   4.069  19.754  0.00  0.00    +0.000 C 
BRANCH  15  16
ATOM     16  O   UNL     1       0.637   3.000  20.488  0.00  0.00    +0.000 OA
ATOM     17  H   UNL     1       0.222   3.379  21.280  0.00  0.00    +0.000 HD
ENDBRANCH  15  16
BRANCH  15  18
ATOM     18  C   UNL     1       1.584   5.266  20.672  0.00  0.00    +0.000 C 
BRANCH  18  19
ATOM     19  O   UNL     1       2.617   6.072  20.094  0.00  0.00    +0.000 OA
BRANCH  19  20
ATOM     20  C   UNL     1       2.205   7.290  19.616  0.00  0.00    +0.000 A 
ATOM     21  C   UNL     1       2.437   7.509  18.253  0.00  0.00    +0.000 A 
ATOM     22  C   UNL     1       2.054   8.711  17.655  0.00  0.00    +0.000 A 
ATOM     23  C   UNL     1       1.422   9.698  18.412  0.00  0.00    +0.000 A 
ATOM     24  C   UNL     1       1.170   9.474  19.763  0.00  0.00    +0.000 A 
ATOM     25  C   UNL     1       1.559   8.275  20.362  0.00  0.00    +0.000 A 
ENDBRANCH  19  20
ENDBRANCH  18  19
ENDBRANCH  15  18
ENDBRANCH  14  15
ENDBRANCH   1  14
TORSDOF 11
ENDMDL
MODEL 5
REMARK VINA RESULT:      -6.4      2.036      7.345
REMARK  Name = 
REMARK  11 active torsions:
REMARK  status: ('A' for Active; 'I' for Inactive)
REMARK    1  A    between atoms: S_2  and  C_3
REMARK    2  A    between atoms: S_2  and  C_17
REMARK    3  A    between atoms: C_3  and  C_4
REMARK    4  A    between atoms: C_4  and  N_5
REMARK    5  A    between atoms: N_5  and  C_6
REMARK    6  A    between atoms: C_6  and  C_7
REMARK    7  A    between atoms: C_7  and  O_8
REMARK    8  A    between atoms: C_7  and  C_9
REMARK    9  A    between atoms: C_9  and  O_10
REMARK   10  A    between atoms: O_10  and  C_11
REMARK   11  A    between atoms: C_17  and  C_18
REMARK                            x       y       z     vdW  Elec       q    Type
REMARK                         _______ _______ _______ _____ _____    ______ ____
ROOT
ATOM      1  N   UNL     1       5.125   4.298  18.005  0.00  0.00    +0.000 NA
ATOM      2  H   UNL     1       4.551   4.860  17.372  0.00  0.00    +0.000 HD
ENDROOT
BRANCH   1   3
ATOM      3  C   UNL     1       4.305   3.486  18.910  0.00  0.00    +0.000 C 
BRANCH   3   4
ATOM      4  C   UNL     1       3.456   4.347  19.848  0.00  0.00    +0.000 C 
BRANCH   4   6
ATOM      5  O   UNL     1       2.021   4.367  17.515  0.00  0.00    +0.000 OA
ATOM      6  S   UNL     1       2.105   5.125  18.890  0.00  0.00    +0.000 S 
BRANCH   6   7
ATOM      7  C   UNL     1       2.944   6.723  18.616  0.00  0.00    +0.000 C 
BRANCH   7   8
ATOM      8  C   UNL     1       2.042   7.885  18.953  0.00  0.00    +0.000 A 
ATOM      9  C   UNL     1       1.648   8.805  17.972  0.00  0.00    +0.000 A 
ATOM     10  C   UNL     1       0.860   9.907  18.311  0.00  0.00    +0.000 A 
ATOM     11  C   UNL     1       0.458  10.103  19.633  0.00  0.00    +0.000 A 
ATOM     12  C   UNL     1       0.841   9.194  20.615  0.00  0.00    +0.000 A 
ATOM     13  C   UNL     1       1.630   8.091  20.279  0.00  0.00    +0.000 A 
ENDBRANCH   7   8
ENDBRANCH   6   7
ENDBRANCH   4   6
ENDBRANCH   3   4
ENDBRANCH   1   3
BRANCH   1  14
ATOM     14  C   UNL     1       5.984   5.213  18.775  0.00  0.00    +0.000 C 
BRANCH  14  15
ATOM     15  C   UNL     1       7.389   5.343  18.152  0.00  0.00    +0.000 C 
BRANCH  15  16
ATOM     16  O   UNL     1       8.348   4.794  19.076  0.00  0.00    +0.000 OA
ATOM     17  H   UNL     1       8.013   3.937  19.387  0.00  0.00    +0.000 HD
ENDBRANCH  15  16
BRANCH  15  18
ATOM     18  C   UNL     1       7.416   4.594  16.806  0.00  0.00    +0.000 C 
BRANCH  18  19
ATOM     19  O   UNL     1       7.300   5.521  15.721  0.00  0.00    +0.000 OA
BRANCH  19  20
ATOM     20  C   UNL     1       7.077   4.953  14.492  0.00  0.00    +0.000 A 
ATOM     21  C   UNL     1       6.010   4.050  14.433  0.00  0.00    +0.000 A 
ATOM     22  C   UNL     1       5.686   3.414  13.233  0.00  0.00    +0.000 A 
ATOM     23  C   UNL     1       6.417   3.690  12.077  0.00  0.00    +0.000 A 
ATOM     24  C   UNL     1       7.466   4.605  12.128  0.00  0.00    +0.000 A 
ATOM     25  C   UNL     1       7.794   5.234  13.329  0.00  0.00    +0.000 A 
ENDBRANCH  19  20
ENDBRANCH  18  19
ENDBRANCH  15  18
ENDBRANCH  14  15
ENDBRANCH   1  14
TORSDOF 11
ENDMDL
MODEL 6
REMARK VINA RESULT:      -6.3      1.696      2.601
REMARK  Name = 
REMARK  11 active torsions:
REMARK  status: ('A' for Active; 'I' for Inactive)
REMARK    1  A    between atoms: S_2  and  C_3
REMARK    2  A    between atoms: S_2  and  C_17
REMARK    3  A    between atoms: C_3  and  C_4
REMARK    4  A    between atoms: C_4  and  N_5
REMARK    5  A    between atoms: N_5  and  C_6
REMARK    6  A    between atoms: C_6  and  C_7
REMARK    7  A    between atoms: C_7  and  O_8
REMARK    8  A    between atoms: C_7  and  C_9
REMARK    9  A    between atoms: C_9  and  O_10
REMARK   10  A    between atoms: O_10  and  C_11
REMARK   11  A    between atoms: C_17  and  C_18
REMARK                            x       y       z     vdW  Elec       q    Type
REMARK                         _______ _______ _______ _____ _____    ______ ____
ROOT
ATOM      1  N   UNL     1       2.897   3.781  18.067  0.00  0.00    +0.000 NA
ATOM      2  H   UNL     1       2.696   2.897  17.592  0.00  0.00    +0.000 HD
ENDROOT
BRANCH   1   3
ATOM      3  C   UNL     1       3.963   4.532  17.394  0.00  0.00    +0.000 C 
BRANCH   3   4
ATOM      4  C   UNL     1       5.274   4.505  18.183  0.00  0.00    +0.000 C 
BRANCH   4   6
ATOM      5  O   UNL     1       7.747   5.512  17.572  0.00  0.00    +0.000 OA
ATOM      6  S   UNL     1       6.679   4.503  17.011  0.00  0.00    +0.000 S 
BRANCH   6   7
ATOM      7  C   UNL     1       5.796   5.308  15.632  0.00  0.00    +0.000 C 
BRANCH   7   8
ATOM      8  C   UNL     1       6.242   4.763  14.297  0.00  0.00    +0.000 A 
ATOM      9  C   UNL     1       7.431   5.200  13.697  0.00  0.00    +0.000 A 
ATOM     10  C   UNL     1       7.801   4.729  12.436  0.00  0.00    +0.000 A 
ATOM     11  C   UNL     1       6.988   3.818  11.760  0.00  0.00    +0.000 A 
ATOM     12  C   UNL     1       5.806   3.375  12.348  0.00  0.00    +0.000 A 
ATOM     13  C   UNL     1       5.434   3.845  13.609  0.00  0.00    +0.000 A 
ENDBRANCH   7   8
ENDBRANCH   6   7
ENDBRANCH   4   6
ENDBRANCH   3   4
ENDBRANCH   1   3
BRANCH   1  14
ATOM     14  C   UNL     1       3.285   3.475  19.454  0.00  0.00    +0.000 C 
BRANCH  14  15
ATOM     15  C   UNL     1       2.068   3.475  20.402  0.00  0.00    +0.000 C 
BRANCH  15  16
ATOM     16  O   UNL     1       2.503   3.023  21.699  0.00  0.00    +0.000 OA
ATOM     17  H   UNL     1       1.891   3.378  22.365  0.00  0.00    +0.000 HD
ENDBRANCH  15  16
BRANCH  15  18
ATOM     18  C   UNL     1       1.481   4.898  20.473  0.00  0.00    +0.000 C 
BRANCH  18  19
ATOM     19  O   UNL     1       2.520   5.871  20.309  0.00  0.00    +0.000 OA
BRANCH  19  20
ATOM     20  C   UNL     1       2.118   7.064  19.765  0.00  0.00    +0.000 A 
ATOM     21  C   UNL     1       1.511   7.956  20.656  0.00  0.00    +0.000 A 
ATOM     22  C   UNL     1       1.067   9.204  20.216  0.00  0.00    +0.000 A 
ATOM     23  C   UNL     1       1.240   9.577  18.882  0.00  0.00    +0.000 A 
ATOM     24  C   UNL     1       1.863   8.700  17.998  0.00  0.00    +0.000 A 
ATOM     25  C   UNL     1       2.300   7.449  18.437  0.00  0.00    +0.000 A 
ENDBRANCH  19  20
ENDBRANCH  18  19
ENDBRANCH  15  18
ENDBRANCH  14  15
ENDBRANCH   1  14
TORSDOF 11
ENDMDL
MODEL 7
REMARK VINA RESULT:      -6.3      0.825      1.303
REMARK  Name = 
REMARK  11 active torsions:
REMARK  status: ('A' for Active; 'I' for Inactive)
REMARK    1  A    between atoms: S_2  and  C_3
REMARK    2  A    between atoms: S_2  and  C_17
REMARK    3  A    between atoms: C_3  and  C_4
REMARK    4  A    between atoms: C_4  and  N_5
REMARK    5  A    between atoms: N_5  and  C_6
REMARK    6  A    between atoms: C_6  and  C_7
REMARK    7  A    between atoms: C_7  and  O_8
REMARK    8  A    between atoms: C_7  and  C_9
REMARK    9  A    between atoms: C_9  and  O_10
REMARK   10  A    between atoms: O_10  and  C_11
REMARK   11  A    between atoms: C_17  and  C_18
REMARK                            x       y       z     vdW  Elec       q    Type
REMARK                         _______ _______ _______ _____ _____    ______ ____
ROOT
ATOM      1  N   UNL     1       5.332   2.605  19.634  0.00  0.00    +0.000 NA
ATOM      2  H   UNL     1       5.858   3.081  20.371  0.00  0.00    +0.000 HD
ENDROOT
BRANCH   1   3
ATOM      3  C   UNL     1       4.966   3.519  18.546  0.00  0.00    +0.000 C 
BRANCH   3   4
ATOM      4  C   UNL     1       5.770   4.820  18.591  0.00  0.00    +0.000 C 
BRANCH   4   6
ATOM      5  O   UNL     1       7.633   6.266  17.198  0.00  0.00    +0.000 OA
ATOM      6  S   UNL     1       6.908   4.871  17.159  0.00  0.00    +0.000 S 
BRANCH   6   7
ATOM      7  C   UNL     1       5.614   4.931  15.873  0.00  0.00    +0.000 C 
BRANCH   7   8
ATOM      8  C   UNL     1       6.176   4.610  14.509  0.00  0.00    +0.000 A 
ATOM      9  C   UNL     1       7.304   5.280  14.014  0.00  0.00    +0.000 A 
ATOM     10  C   UNL     1       7.777   5.012  12.728  0.00  0.00    +0.000 A 
ATOM     11  C   UNL     1       7.129   4.075  11.922  0.00  0.00    +0.000 A 
ATOM     12  C   UNL     1       6.010   3.402  12.405  0.00  0.00    +0.000 A 
ATOM     13  C   UNL     1       5.534   3.668  13.690  0.00  0.00    +0.000 A 
ENDBRANCH   7   8
ENDBRANCH   6   7
ENDBRANCH   4   6
ENDBRANCH   3   4
ENDBRANCH   1   3
BRANCH   1  14
ATOM     14  C   UNL     1       4.124   2.021  20.240  0.00  0.00    +0.000 C 
BRANCH  14  15
ATOM     15  C   UNL     1       2.860   2.336  19.415  0.00  0.00    +0.000 C 
BRANCH  15  16
ATOM     16  O   UNL     1       2.580   1.208  18.563  0.00  0.00    +0.000 OA
ATOM     17  H   UNL     1       2.372   1.543  17.676  0.00  0.00    +0.000 HD
ENDBRANCH  15  16
BRANCH  15  18
ATOM     18  C   UNL     1       1.686   2.619  20.373  0.00  0.00    +0.000 C 
BRANCH  18  19
ATOM     19  O   UNL     1       0.830   3.627  19.824  0.00  0.00    +0.000 OA
BRANCH  19  20
ATOM     20  C   UNL     1       1.450   4.812  19.517  0.00  0.00    +0.000 A 
ATOM     21  C   UNL     1       1.647   5.049  18.152  0.00  0.00    +0.000 A 
ATOM     22  C   UNL     1       2.263   6.225  17.720  0.00  0.00    +0.000 A 
ATOM     23  C   UNL     1       2.673   7.182  18.650  0.00  0.00    +0.000 A 
ATOM     24  C   UNL     1       2.458   6.958  20.007  0.00  0.00    +0.000 A 
ATOM     25  C   UNL     1       1.849   5.779  20.439  0.00  0.00    +0.000 A 
ENDBRANCH  19  20
ENDBRANCH  18  19
ENDBRANCH  15  18
ENDBRANCH  14  15
ENDBRANCH   1  14
TORSDOF 11
ENDMDL
MODEL 8
REMARK VINA RESULT:      -6.2      2.038      7.118
REMARK  Name = 
REMARK  11 active torsions:
REMARK  status: ('A' for Active; 'I' for Inactive)
REMARK    1  A    between atoms: S_2  and  C_3
REMARK    2  A    between atoms: S_2  and  C_17
REMARK    3  A    between atoms: C_3  and  C_4
REMARK    4  A    between atoms: C_4  and  N_5
REMARK    5  A    between atoms: N_5  and  C_6
REMARK    6  A    between atoms: C_6  and  C_7
REMARK    7  A    between atoms: C_7  and  O_8
REMARK    8  A    between atoms: C_7  and  C_9
REMARK    9  A    between atoms: C_9  and  O_10
REMARK   10  A    between atoms: O_10  and  C_11
REMARK   11  A    between atoms: C_17  and  C_18
REMARK                            x       y       z     vdW  Elec       q    Type
REMARK                         _______ _______ _______ _____ _____    ______ ____
ROOT
ATOM      1  N   UNL     1       4.297   2.303  18.820  0.00  0.00    +0.000 NA
ATOM      2  H   UNL     1       4.341   1.308  18.583  0.00  0.00    +0.000 HD
ENDROOT
BRANCH   1   3
ATOM      3  C   UNL     1       3.008   2.665  19.418  0.00  0.00    +0.000 C 
BRANCH   3   4
ATOM      4  C   UNL     1       3.172   3.320  20.790  0.00  0.00    +0.000 C 
BRANCH   4   6
ATOM      5  O   UNL     1       0.663   4.341  20.377  0.00  0.00    +0.000 OA
ATOM      6  S   UNL     1       2.082   4.787  20.890  0.00  0.00    +0.000 S 
BRANCH   6   7
ATOM      7  C   UNL     1       2.900   5.739  19.564  0.00  0.00    +0.000 C 
BRANCH   7   8
ATOM      8  C   UNL     1       2.304   7.119  19.427  0.00  0.00    +0.000 A 
ATOM      9  C   UNL     1       1.631   7.726  20.496  0.00  0.00    +0.000 A 
ATOM     10  C   UNL     1       1.036   8.980  20.336  0.00  0.00    +0.000 A 
ATOM     11  C   UNL     1       1.106   9.639  19.107  0.00  0.00    +0.000 A 
ATOM     12  C   UNL     1       1.775   9.046  18.040  0.00  0.00    +0.000 A 
ATOM     13  C   UNL     1       2.370   7.792  18.197  0.00  0.00    +0.000 A 
ENDBRANCH   7   8
ENDBRANCH   6   7
ENDBRANCH   4   6
ENDBRANCH   3   4
ENDBRANCH   1   3
BRANCH   1  14
ATOM     14  C   UNL     1       4.524   3.075  17.587  0.00  0.00    +0.000 C 
BRANCH  14  15
ATOM     15  C   UNL     1       5.385   4.329  17.847  0.00  0.00    +0.000 C 
BRANCH  15  16
ATOM     16  O   UNL     1       6.309   4.033  18.911  0.00  0.00    +0.000 OA
ATOM     17  H   UNL     1       7.200   4.284  18.617  0.00  0.00    +0.000 HD
ENDBRANCH  15  16
BRANCH  15  18
ATOM     18  C   UNL     1       6.126   4.712  16.552  0.00  0.00    +0.000 C 
BRANCH  18  19
ATOM     19  O   UNL     1       5.764   3.819  15.491  0.00  0.00    +0.000 OA
BRANCH  19  20
ATOM     20  C   UNL     1       6.349   4.088  14.280  0.00  0.00    +0.000 A 
ATOM     21  C   UNL     1       5.891   3.314  13.208  0.00  0.00    +0.000 A 
ATOM     22  C   UNL     1       6.411   3.504  11.926  0.00  0.00    +0.000 A 
ATOM     23  C   UNL     1       7.381   4.481  11.703  0.00  0.00    +0.000 A 
ATOM     24  C   UNL     1       7.823   5.268  12.764  0.00  0.00    +0.000 A 
ATOM     25  C   UNL     1       7.309   5.073  14.046  0.00  0.00    +0.000 A 
ENDBRANCH  19  20
ENDBRANCH  18  19
ENDBRANCH  15  18
ENDBRANCH  14  15
ENDBRANCH   1  14
TORSDOF 11
ENDMDL
MODEL 9
REMARK VINA RESULT:      -6.2      1.510      6.826
REMARK  Name = 
REMARK  11 active torsions:
REMARK  status: ('A' for Active; 'I' for Inactive)
REMARK    1  A    between atoms: S_2  and  C_3
REMARK    2  A    between atoms: S_2  and  C_17
REMARK    3  A    between atoms: C_3  and  C_4
REMARK    4  A    between atoms: C_4  and  N_5
REMARK    5  A    between atoms: N_5  and  C_6
REMARK    6  A    between atoms: C_6  and  C_7
REMARK    7  A    between atoms: C_7  and  O_8
REMARK    8  A    between atoms: C_7  and  C_9
REMARK    9  A    between atoms: C_9  and  O_10
REMARK   10  A    between atoms: O_10  and  C_11
REMARK   11  A    between atoms: C_17  and  C_18
REMARK                            x       y       z     vdW  Elec       q    Type
REMARK                         _______ _______ _______ _____ _____    ______ ____
ROOT
ATOM      1  N   UNL     1       5.339   4.169  19.399  0.00  0.00    +0.000 NA
ATOM      2  H   UNL     1       6.226   4.140  19.907  0.00  0.00    +0.000 HD
ENDROOT
BRANCH   1   3
ATOM      3  C   UNL     1       4.775   2.828  19.208  0.00  0.00    +0.000 C 
BRANCH   3   4
ATOM      4  C   UNL     1       3.670   2.517  20.220  0.00  0.00    +0.000 C 
BRANCH   4   6
ATOM      5  O   UNL     1       2.456   2.129  17.794  0.00  0.00    +0.000 OA
ATOM      6  S   UNL     1       2.198   1.894  19.328  0.00  0.00    +0.000 S 
BRANCH   6   7
ATOM      7  C   UNL     1       1.044   3.178  19.920  0.00  0.00    +0.000 C 
BRANCH   7   8
ATOM      8  C   UNL     1       1.519   4.562  19.550  0.00  0.00    +0.000 A 
ATOM      9  C   UNL     1       1.814   4.895  18.220  0.00  0.00    +0.000 A 
ATOM     10  C   UNL     1       2.307   6.162  17.902  0.00  0.00    +0.000 A 
ATOM     11  C   UNL     1       2.512   7.109  18.906  0.00  0.00    +0.000 A 
ATOM     12  C   UNL     1       2.219   6.789  20.229  0.00  0.00    +0.000 A 
ATOM     13  C   UNL     1       1.727   5.523  20.551  0.00  0.00    +0.000 A 
ENDBRANCH   7   8
ENDBRANCH   6   7
ENDBRANCH   4   6
ENDBRANCH   3   4
ENDBRANCH   1   3
BRANCH   1  14
ATOM     14  C   UNL     1       5.580   4.812  18.097  0.00  0.00    +0.000 C 
BRANCH  14  15
ATOM     15  C   UNL     1       7.069   5.162  17.897  0.00  0.00    +0.000 C 
BRANCH  15  16
ATOM     16  O   UNL     1       7.818   3.934  17.829  0.00  0.00    +0.000 OA
ATOM     17  H   UNL     1       7.671   3.537  16.954  0.00  0.00    +0.000 HD
ENDBRANCH  15  16
BRANCH  15  18
ATOM     18  C   UNL     1       7.226   5.987  16.605  0.00  0.00    +0.000 C 
BRANCH  18  19
ATOM     19  O   UNL     1       6.123   5.743  15.724  0.00  0.00    +0.000 OA
BRANCH  19  20
ATOM     20  C   UNL     1       6.449   5.139  14.537  0.00  0.00    +0.000 A 
ATOM     21  C   UNL     1       5.580   4.125  14.120  0.00  0.00    +0.000 A 
ATOM     22  C   UNL     1       5.809   3.443  12.924  0.00  0.00    +0.000 A 
ATOM     23  C   UNL     1       6.902   3.781  12.125  0.00  0.00    +0.000 A 
ATOM     24  C   UNL     1       7.757   4.804  12.526  0.00  0.00    +0.000 A 
ATOM     25  C   UNL     1       7.532   5.481  13.726  0.00  0.00    +0.000 A 
ENDBRANCH  19  20
ENDBRANCH  18  19
ENDBRANCH  15  18
ENDBRANCH  14  15
ENDBRANCH   1  14
TORSDOF 11
ENDMDL
