MODEL 1
REMARK VINA RESULT:      -7.9      0.000      0.000
REMARK  Name = 
REMARK  5 active torsions:
REMARK  status: ('A' for Active; 'I' for Inactive)
REMARK    1  A    between atoms: C_1  and  C_2
REMARK    2  A    between atoms: N_4  and  C_5
REMARK    3  A    between atoms: C_5  and  C_6
REMARK    4  A    between atoms: C_15  and  N_16
REMARK    5  A    between atoms: C_27  and  C_28
REMARK                            x       y       z     vdW  Elec       q    Type
REMARK                         _______ _______ _______ _____ _____    ______ ____
ROOT
ATOM      1  C   UNL     1       0.171  12.087  21.112  0.00  0.00    +0.000 C 
ATOM      2  O   UNL     1      -0.030  11.431  22.382  0.00  0.00    +0.000 OA
ATOM      3  C   UNL     1       0.274  10.099  22.231  0.00  0.00    +0.000 C 
ATOM      4  O   UNL     1      -0.043   9.264  23.055  0.00  0.00    +0.000 OA
ATOM      5  N   UNL     1       0.922   9.933  21.033  0.00  0.00    +0.000 N 
ATOM      6  C   UNL     1       1.350   8.761  20.392  0.00  0.00    +0.000 A 
ATOM      7  C   UNL     1       1.348   7.517  21.010  0.00  0.00    +0.000 A 
ATOM      8  C   UNL     1       1.805   6.393  20.316  0.00  0.00    +0.000 A 
ATOM      9  F   UNL     1       1.754   5.219  20.967  0.00  0.00    +0.000 F 
ATOM     10  C   UNL     1       2.273   6.451  18.987  0.00  0.00    +0.000 A 
ATOM     11  C   UNL     1       2.264   7.721  18.387  0.00  0.00    +0.000 A 
ATOM     12  C   UNL     1       1.799   8.857  19.064  0.00  0.00    +0.000 A 
ATOM     13  O   UNL     1       1.824  10.041  18.354  0.00  0.00    +0.000 OA
ATOM     14  C   UNL     1       0.951  11.048  18.895  0.00  0.00    +0.000 C 
ATOM     15  C   UNL     1       1.166  11.196  20.395  0.00  0.00    +0.000 C 
ENDROOT
BRANCH  10  16
ATOM     16  N   UNL     1       2.749   5.345  18.292  0.00  0.00    +0.000 N 
ATOM     17  C   UNL     1       4.161   4.930  18.376  0.00  0.00    +0.000 C 
ATOM     18  C   UNL     1       4.346   3.644  19.185  0.00  0.00    +0.000 C 
ATOM     19  S   UNL     1       3.437   2.242  18.444  0.00  0.00    +0.000 S 
ATOM     20  C   UNL     1       1.799   3.042  18.378  0.00  0.00    +0.000 C 
ATOM     21  C   UNL     1       1.826   4.393  17.651  0.00  0.00    +0.000 C 
ENDBRANCH  10  16
BRANCH   1  22
ATOM     22  C   UNL     1       0.540  13.571  21.291  0.00  0.00    +0.000 C 
BRANCH  22  26
ATOM     23  C   UNL     1       3.935  14.527  19.783  0.00  0.00    +0.000 C 
ATOM     24  C   UNL     1       2.839  14.098  20.736  0.00  0.00    +0.000 C 
ATOM     25  O   UNL     1       3.151  13.717  21.871  0.00  0.00    +0.000 OA
ATOM     26  N   UNL     1       1.498  14.139  20.324  0.00  0.00    +0.000 N 
ATOM     27  C   UNL     1       1.098  14.593  19.062  0.00  0.00    +0.000 C 
ATOM     28  C   UNL     1      -0.363  14.570  18.672  0.00  0.00    +0.000 C 
ATOM     29  O   UNL     1       1.885  15.017  18.211  0.00  0.00    +0.000 OA
ENDBRANCH  22  26
ENDBRANCH   1  22
TORSDOF 3
ENDMDL
MODEL 2
REMARK VINA RESULT:      -7.8      2.303      3.020
REMARK  Name = 
REMARK  5 active torsions:
REMARK  status: ('A' for Active; 'I' for Inactive)
REMARK    1  A    between atoms: C_1  and  C_2
REMARK    2  A    between atoms: N_4  and  C_5
REMARK    3  A    between atoms: C_5  and  C_6
REMARK    4  A    between atoms: C_15  and  N_16
REMARK    5  A    between atoms: C_27  and  C_28
REMARK                            x       y       z     vdW  Elec       q    Type
REMARK                         _______ _______ _______ _____ _____    ______ ____
ROOT
ATOM      1  C   UNL     1      -0.478  10.865  19.707  0.00  0.00    +0.000 C 
ATOM      2  O   UNL     1      -0.719  10.273  21.001  0.00  0.00    +0.000 OA
ATOM      3  C   UNL     1      -0.016   9.093  21.071  0.00  0.00    +0.000 C 
ATOM      4  O   UNL     1      -0.228   8.263  21.933  0.00  0.00    +0.000 OA
ATOM      5  N   UNL     1       0.869   9.051  20.024  0.00  0.00    +0.000 N 
ATOM      6  C   UNL     1       1.736   8.026  19.615  0.00  0.00    +0.000 A 
ATOM      7  C   UNL     1       1.978   6.891  20.377  0.00  0.00    +0.000 A 
ATOM      8  C   UNL     1       2.868   5.916  19.915  0.00  0.00    +0.000 A 
ATOM      9  F   UNL     1       3.037   4.835  20.694  0.00  0.00    +0.000 F 
ATOM     10  C   UNL     1       3.545   6.021  18.682  0.00  0.00    +0.000 A 
ATOM     11  C   UNL     1       3.281   7.179  17.933  0.00  0.00    +0.000 A 
ATOM     12  C   UNL     1       2.384   8.161  18.375  0.00  0.00    +0.000 A 
ATOM     13  O   UNL     1       2.198   9.240  17.534  0.00  0.00    +0.000 OA
ATOM     14  C   UNL     1       0.982   9.962  17.795  0.00  0.00    +0.000 C 
ATOM     15  C   UNL     1       0.852  10.278  19.279  0.00  0.00    +0.000 C 
ENDROOT
BRANCH  10  16
ATOM     16  N   UNL     1       4.447   5.071  18.220  0.00  0.00    +0.000 N 
ATOM     17  C   UNL     1       4.244   4.372  16.938  0.00  0.00    +0.000 C 
ATOM     18  C   UNL     1       5.226   4.832  15.858  0.00  0.00    +0.000 C 
ATOM     19  S   UNL     1       6.960   4.525  16.345  0.00  0.00    +0.000 S 
ATOM     20  C   UNL     1       6.904   5.395  17.948  0.00  0.00    +0.000 C 
ATOM     21  C   UNL     1       5.767   4.902  18.852  0.00  0.00    +0.000 C 
ENDBRANCH  10  16
BRANCH   1  22
ATOM     22  C   UNL     1      -0.599  12.399  19.753  0.00  0.00    +0.000 C 
BRANCH  22  26
ATOM     23  C   UNL     1      -0.887  14.214  23.120  0.00  0.00    +0.000 C 
ATOM     24  C   UNL     1      -0.355  13.474  21.911  0.00  0.00    +0.000 C 
ATOM     25  O   UNL     1       0.867  13.318  21.796  0.00  0.00    +0.000 OA
ATOM     26  N   UNL     1      -1.246  12.979  20.945  0.00  0.00    +0.000 N 
ATOM     27  C   UNL     1      -2.636  13.105  21.050  0.00  0.00    +0.000 C 
ATOM     28  C   UNL     1      -3.532  12.583  19.949  0.00  0.00    +0.000 C 
ATOM     29  O   UNL     1      -3.200  13.640  22.008  0.00  0.00    +0.000 OA
ENDBRANCH  22  26
ENDBRANCH   1  22
TORSDOF 3
ENDMDL
MODEL 3
REMARK VINA RESULT:      -7.7      0.898      1.673
REMARK  Name = 
REMARK  5 active torsions:
REMARK  status: ('A' for Active; 'I' for Inactive)
REMARK    1  A    between atoms: C_1  and  C_2
REMARK    2  A    between atoms: N_4  and  C_5
REMARK    3  A    between atoms: C_5  and  C_6
REMARK    4  A    between atoms: C_15  and  N_16
REMARK    5  A    between atoms: C_27  and  C_28
REMARK                            x       y       z     vdW  Elec       q    Type
REMARK                         _______ _______ _______ _____ _____    ______ ____
ROOT
ATOM      1  C   UNL     1       0.049  12.097  21.353  0.00  0.00    +0.000 C 
ATOM      2  O   UNL     1      -0.121  11.399  22.606  0.00  0.00    +0.000 OA
ATOM      3  C   UNL     1       0.204  10.078  22.409  0.00  0.00    +0.000 C 
ATOM      4  O   UNL     1      -0.085   9.213  23.212  0.00  0.00    +0.000 OA
ATOM      5  N   UNL     1       0.836   9.961  21.197  0.00  0.00    +0.000 N 
ATOM      6  C   UNL     1       1.275   8.816  20.514  0.00  0.00    +0.000 A 
ATOM      7  C   UNL     1       1.305   7.554  21.093  0.00  0.00    +0.000 A 
ATOM      8  C   UNL     1       1.771   6.460  20.358  0.00  0.00    +0.000 A 
ATOM      9  F   UNL     1       1.750   5.266  20.974  0.00  0.00    +0.000 F 
ATOM     10  C   UNL     1       2.217   6.567  19.025  0.00  0.00    +0.000 A 
ATOM     11  C   UNL     1       2.176   7.855  18.465  0.00  0.00    +0.000 A 
ATOM     12  C   UNL     1       1.702   8.961  19.183  0.00  0.00    +0.000 A 
ATOM     13  O   UNL     1       1.694  10.167  18.509  0.00  0.00    +0.000 OA
ATOM     14  C   UNL     1       0.812  11.140  19.094  0.00  0.00    +0.000 C 
ATOM     15  C   UNL     1       1.048  11.247  20.595  0.00  0.00    +0.000 C 
ENDROOT
BRANCH  10  16
ATOM     16  N   UNL     1       2.702   5.492  18.290  0.00  0.00    +0.000 N 
ATOM     17  C   UNL     1       4.131   5.131  18.300  0.00  0.00    +0.000 C 
ATOM     18  C   UNL     1       4.403   3.841  19.077  0.00  0.00    +0.000 C 
ATOM     19  S   UNL     1       3.515   2.416  18.355  0.00  0.00    +0.000 S 
ATOM     20  C   UNL     1       1.846   3.152  18.379  0.00  0.00    +0.000 C 
ATOM     21  C   UNL     1       1.787   4.515  17.676  0.00  0.00    +0.000 C 
ENDBRANCH  10  16
BRANCH   1  22
ATOM     22  C   UNL     1       0.394  13.581  21.572  0.00  0.00    +0.000 C 
BRANCH  22  26
ATOM     23  C   UNL     1      -0.350  15.888  18.600  0.00  0.00    +0.000 C 
ATOM     24  C   UNL     1      -0.490  14.932  19.766  0.00  0.00    +0.000 C 
ATOM     25  O   UNL     1      -1.624  14.646  20.171  0.00  0.00    +0.000 OA
ATOM     26  N   UNL     1       0.656  14.388  20.366  0.00  0.00    +0.000 N 
ATOM     27  C   UNL     1       1.955  14.658  19.920  0.00  0.00    +0.000 C 
ATOM     28  C   UNL     1       3.146  14.068  20.642  0.00  0.00    +0.000 C 
ATOM     29  O   UNL     1       2.205  15.379  18.950  0.00  0.00    +0.000 OA
ENDBRANCH  22  26
ENDBRANCH   1  22
TORSDOF 3
ENDMDL
MODEL 4
REMARK VINA RESULT:      -7.7      1.460      1.951
REMARK  Name = 
REMARK  5 active torsions:
REMARK  status: ('A' for Active; 'I' for Inactive)
REMARK    1  A    between atoms: C_1  and  C_2
REMARK    2  A    between atoms: N_4  and  C_5
REMARK    3  A    between atoms: C_5  and  C_6
REMARK    4  A    between atoms: C_15  and  N_16
REMARK    5  A    between atoms: C_27  and  C_28
REMARK                            x       y       z     vdW  Elec       q    Type
REMARK                         _______ _______ _______ _____ _____    ______ ____
ROOT
ATOM      1  C   UNL     1       0.215  11.921  21.153  0.00  0.00    +0.000 C 
ATOM      2  O   UNL     1       0.010  11.258  22.419  0.00  0.00    +0.000 OA
ATOM      3  C   UNL     1       0.301   9.924  22.257  0.00  0.00    +0.000 C 
ATOM      4  O   UNL     1      -0.023   9.086  23.076  0.00  0.00    +0.000 OA
ATOM      5  N   UNL     1       0.944   9.760  21.057  0.00  0.00    +0.000 N 
ATOM      6  C   UNL     1       1.359   8.589  20.407  0.00  0.00    +0.000 A 
ATOM      7  C   UNL     1       1.347   7.340  21.015  0.00  0.00    +0.000 A 
ATOM      8  C   UNL     1       1.791   6.217  20.312  0.00  0.00    +0.000 A 
ATOM      9  F   UNL     1       1.730   5.039  20.954  0.00  0.00    +0.000 F 
ATOM     10  C   UNL     1       2.257   6.280  18.982  0.00  0.00    +0.000 A 
ATOM     11  C   UNL     1       2.259   7.555  18.392  0.00  0.00    +0.000 A 
ATOM     12  C   UNL     1       1.807   8.691  19.078  0.00  0.00    +0.000 A 
ATOM     13  O   UNL     1       1.842   9.880  18.376  0.00  0.00    +0.000 OA
ATOM     14  C   UNL     1       0.980  10.891  18.927  0.00  0.00    +0.000 C 
ATOM     15  C   UNL     1       1.199  11.026  20.428  0.00  0.00    +0.000 C 
ENDROOT
BRANCH  10  16
ATOM     16  N   UNL     1       2.721   5.175  18.278  0.00  0.00    +0.000 N 
ATOM     17  C   UNL     1       4.129   4.746  18.356  0.00  0.00    +0.000 C 
ATOM     18  C   UNL     1       4.303   3.452  19.155  0.00  0.00    +0.000 C 
ATOM     19  S   UNL     1       3.379   2.065  18.406  0.00  0.00    +0.000 S 
ATOM     20  C   UNL     1       1.749   2.881  18.349  0.00  0.00    +0.000 C 
ATOM     21  C   UNL     1       1.787   4.237  17.633  0.00  0.00    +0.000 C 
ENDBRANCH  10  16
BRANCH   1  22
ATOM     22  C   UNL     1       0.599  13.399  21.343  0.00  0.00    +0.000 C 
BRANCH  22  26
ATOM     23  C   UNL     1      -2.074  15.834  22.624  0.00  0.00    +0.000 C 
ATOM     24  C   UNL     1      -1.035  14.736  22.532  0.00  0.00    +0.000 C 
ATOM     25  O   UNL     1      -0.677  14.164  23.570  0.00  0.00    +0.000 OA
ATOM     26  N   UNL     1      -0.498  14.384  21.284  0.00  0.00    +0.000 N 
ATOM     27  C   UNL     1      -0.896  14.981  20.083  0.00  0.00    +0.000 C 
ATOM     28  C   UNL     1      -0.242  14.580  18.779  0.00  0.00    +0.000 C 
ATOM     29  O   UNL     1      -1.768  15.852  20.012  0.00  0.00    +0.000 OA
ENDBRANCH  22  26
ENDBRANCH   1  22
TORSDOF 3
ENDMDL
MODEL 5
REMARK VINA RESULT:      -7.7      1.696      2.521
REMARK  Name = 
REMARK  5 active torsions:
REMARK  status: ('A' for Active; 'I' for Inactive)
REMARK    1  A    between atoms: C_1  and  C_2
REMARK    2  A    between atoms: N_4  and  C_5
REMARK    3  A    between atoms: C_5  and  C_6
REMARK    4  A    between atoms: C_15  and  N_16
REMARK    5  A    between atoms: C_27  and  C_28
REMARK                            x       y       z     vdW  Elec       q    Type
REMARK                         _______ _______ _______ _____ _____    ______ ____
ROOT
ATOM      1  C   UNL     1      -0.501  11.032  19.569  0.00  0.00    +0.000 C 
ATOM      2  O   UNL     1      -0.791  10.470  20.867  0.00  0.00    +0.000 OA
ATOM      3  C   UNL     1      -0.110   9.281  20.983  0.00  0.00    +0.000 C 
ATOM      4  O   UNL     1      -0.362   8.472  21.854  0.00  0.00    +0.000 OA
ATOM      5  N   UNL     1       0.806   9.203  19.965  0.00  0.00    +0.000 N 
ATOM      6  C   UNL     1       1.667   8.156  19.604  0.00  0.00    +0.000 A 
ATOM      7  C   UNL     1       1.868   7.033  20.396  0.00  0.00    +0.000 A 
ATOM      8  C   UNL     1       2.755   6.036  19.981  0.00  0.00    +0.000 A 
ATOM      9  F   UNL     1       2.883   4.968  20.786  0.00  0.00    +0.000 F 
ATOM     10  C   UNL     1       3.472   6.104  18.768  0.00  0.00    +0.000 A 
ATOM     11  C   UNL     1       3.250   7.250  17.988  0.00  0.00    +0.000 A 
ATOM     12  C   UNL     1       2.356   8.255  18.382  0.00  0.00    +0.000 A 
ATOM     13  O   UNL     1       2.214   9.319  17.514  0.00  0.00    +0.000 OA
ATOM     14  C   UNL     1       1.002  10.066  17.722  0.00  0.00    +0.000 C 
ATOM     15  C   UNL     1       0.832  10.414  19.195  0.00  0.00    +0.000 C 
ENDROOT
BRANCH  10  16
ATOM     16  N   UNL     1       4.372   5.130  18.354  0.00  0.00    +0.000 N 
ATOM     17  C   UNL     1       4.187   4.396  17.089  0.00  0.00    +0.000 C 
ATOM     18  C   UNL     1       5.196   4.812  16.017  0.00  0.00    +0.000 C 
ATOM     19  S   UNL     1       6.916   4.500  16.550  0.00  0.00    +0.000 S 
ATOM     20  C   UNL     1       6.837   5.418  18.125  0.00  0.00    +0.000 C 
ATOM     21  C   UNL     1       5.676   4.965  19.019  0.00  0.00    +0.000 C 
ENDBRANCH  10  16
BRANCH   1  22
ATOM     22  C   UNL     1      -0.598  12.568  19.581  0.00  0.00    +0.000 C 
BRANCH  22  26
ATOM     23  C   UNL     1       2.616  14.635  19.913  0.00  0.00    +0.000 C 
ATOM     24  C   UNL     1       1.503  13.758  19.380  0.00  0.00    +0.000 C 
ATOM     25  O   UNL     1       1.502  13.458  18.178  0.00  0.00    +0.000 OA
ATOM     26  N   UNL     1       0.498  13.299  20.245  0.00  0.00    +0.000 N 
ATOM     27  C   UNL     1       0.477  13.585  21.615  0.00  0.00    +0.000 C 
ATOM     28  C   UNL     1      -0.662  13.091  22.479  0.00  0.00    +0.000 C 
ATOM     29  O   UNL     1       1.350  14.246  22.184  0.00  0.00    +0.000 OA
ENDBRANCH  22  26
ENDBRANCH   1  22
TORSDOF 3
ENDMDL
MODEL 6
REMARK VINA RESULT:      -7.6      1.256      1.821
REMARK  Name = 
REMARK  5 active torsions:
REMARK  status: ('A' for Active; 'I' for Inactive)
REMARK    1  A    between atoms: C_1  and  C_2
REMARK    2  A    between atoms: N_4  and  C_5
REMARK    3  A    between atoms: C_5  and  C_6
REMARK    4  A    between atoms: C_15  and  N_16
REMARK    5  A    between atoms: C_27  and  C_28
REMARK                            x       y       z     vdW  Elec       q    Type
REMARK                         _______ _______ _______ _____ _____    ______ ____
ROOT
ATOM      1  C   UNL     1       0.126  12.085  21.216  0.00  0.00    +0.000 C 
ATOM      2  O   UNL     1      -0.108  11.402  22.466  0.00  0.00    +0.000 OA
ATOM      3  C   UNL     1       0.192  10.072  22.291  0.00  0.00    +0.000 C 
ATOM      4  O   UNL     1      -0.148   9.220  23.089  0.00  0.00    +0.000 OA
ATOM      5  N   UNL     1       0.866   9.929  21.105  0.00  0.00    +0.000 N 
ATOM      6  C   UNL     1       1.302   8.770  20.447  0.00  0.00    +0.000 A 
ATOM      7  C   UNL     1       1.280   7.512  21.036  0.00  0.00    +0.000 A 
ATOM      8  C   UNL     1       1.746   6.401  20.327  0.00  0.00    +0.000 A 
ATOM      9  F   UNL     1       1.674   5.213  20.950  0.00  0.00    +0.000 F 
ATOM     10  C   UNL     1       2.245   6.486  19.010  0.00  0.00    +0.000 A 
ATOM     11  C   UNL     1       2.257   7.770  18.440  0.00  0.00    +0.000 A 
ATOM     12  C   UNL     1       1.783   8.894  19.132  0.00  0.00    +0.000 A 
ATOM     13  O   UNL     1       1.830  10.093  18.450  0.00  0.00    +0.000 OA
ATOM     14  C   UNL     1       0.950  11.092  18.994  0.00  0.00    +0.000 C 
ATOM     15  C   UNL     1       1.131  11.205  20.502  0.00  0.00    +0.000 C 
ENDROOT
BRANCH  10  16
ATOM     16  N   UNL     1       2.731   5.394  18.302  0.00  0.00    +0.000 N 
ATOM     17  C   UNL     1       4.147   4.991  18.379  0.00  0.00    +0.000 C 
ATOM     18  C   UNL     1       4.345   3.698  19.171  0.00  0.00    +0.000 C 
ATOM     19  S   UNL     1       3.449   2.296  18.414  0.00  0.00    +0.000 S 
ATOM     20  C   UNL     1       1.803   3.081  18.360  0.00  0.00    +0.000 C 
ATOM     21  C   UNL     1       1.816   4.441  17.650  0.00  0.00    +0.000 C 
ENDBRANCH  10  16
BRANCH   1  22
ATOM     22  C   UNL     1       0.499  13.562  21.437  0.00  0.00    +0.000 C 
BRANCH  22  26
ATOM     23  C   UNL     1      -0.415  15.914  18.548  0.00  0.00    +0.000 C 
ATOM     24  C   UNL     1       0.332  14.989  19.486  0.00  0.00    +0.000 C 
ATOM     25  O   UNL     1       1.473  14.621  19.179  0.00  0.00    +0.000 OA
ATOM     26  N   UNL     1      -0.273  14.565  20.679  0.00  0.00    +0.000 N 
ATOM     27  C   UNL     1      -1.548  14.980  21.081  0.00  0.00    +0.000 C 
ATOM     28  C   UNL     1      -2.154  14.448  22.361  0.00  0.00    +0.000 C 
ATOM     29  O   UNL     1      -2.241  15.770  20.434  0.00  0.00    +0.000 OA
ENDBRANCH  22  26
ENDBRANCH   1  22
TORSDOF 3
ENDMDL
MODEL 7
REMARK VINA RESULT:      -7.6      2.777      3.725
REMARK  Name = 
REMARK  5 active torsions:
REMARK  status: ('A' for Active; 'I' for Inactive)
REMARK    1  A    between atoms: C_1  and  C_2
REMARK    2  A    between atoms: N_4  and  C_5
REMARK    3  A    between atoms: C_5  and  C_6
REMARK    4  A    between atoms: C_15  and  N_16
REMARK    5  A    between atoms: C_27  and  C_28
REMARK                            x       y       z     vdW  Elec       q    Type
REMARK                         _______ _______ _______ _____ _____    ______ ____
ROOT
ATOM      1  C   UNL     1      -0.465  10.586  19.813  0.00  0.00    +0.000 C 
ATOM      2  O   UNL     1      -0.630   9.954  21.101  0.00  0.00    +0.000 OA
ATOM      3  C   UNL     1       0.128   8.807  21.117  0.00  0.00    +0.000 C 
ATOM      4  O   UNL     1      -0.013   7.949  21.966  0.00  0.00    +0.000 OA
ATOM      5  N   UNL     1       0.975   8.829  20.038  0.00  0.00    +0.000 N 
ATOM      6  C   UNL     1       1.871   7.855  19.574  0.00  0.00    +0.000 A 
ATOM      7  C   UNL     1       2.193   6.715  20.299  0.00  0.00    +0.000 A 
ATOM      8  C   UNL     1       3.108   5.794  19.781  0.00  0.00    +0.000 A 
ATOM      9  F   UNL     1       3.356   4.704  20.527  0.00  0.00    +0.000 F 
ATOM     10  C   UNL     1       3.733   5.957  18.527  0.00  0.00    +0.000 A 
ATOM     11  C   UNL     1       3.389   7.118  17.816  0.00  0.00    +0.000 A 
ATOM     12  C   UNL     1       2.465   8.047  18.314  0.00  0.00    +0.000 A 
ATOM     13  O   UNL     1       2.199   9.135  17.506  0.00  0.00    +0.000 OA
ATOM     14  C   UNL     1       0.962   9.794  17.829  0.00  0.00    +0.000 C 
ATOM     15  C   UNL     1       0.873  10.070  19.323  0.00  0.00    +0.000 C 
ENDROOT
BRANCH  10  16
ATOM     16  N   UNL     1       4.660   5.060  18.010  0.00  0.00    +0.000 N 
ATOM     17  C   UNL     1       4.398   4.309  16.768  0.00  0.00    +0.000 C 
ATOM     18  C   UNL     1       5.245   4.806  15.595  0.00  0.00    +0.000 C 
ATOM     19  S   UNL     1       7.034   4.639  15.933  0.00  0.00    +0.000 S 
ATOM     20  C   UNL     1       7.053   5.551  17.513  0.00  0.00    +0.000 C 
ATOM     21  C   UNL     1       6.038   5.006  18.526  0.00  0.00    +0.000 C 
ENDBRANCH  10  16
BRANCH   1  22
ATOM     22  C   UNL     1      -0.654  12.111  19.901  0.00  0.00    +0.000 C 
BRANCH  22  26
ATOM     23  C   UNL     1      -4.433  12.711  20.173  0.00  0.00    +0.000 C 
ATOM     24  C   UNL     1      -3.049  12.386  19.652  0.00  0.00    +0.000 C 
ATOM     25  O   UNL     1      -2.932  11.940  18.504  0.00  0.00    +0.000 OA
ATOM     26  N   UNL     1      -1.927  12.592  20.470  0.00  0.00    +0.000 N 
ATOM     27  C   UNL     1      -2.009  13.124  21.762  0.00  0.00    +0.000 C 
ATOM     28  C   UNL     1      -0.761  13.279  22.603  0.00  0.00    +0.000 C 
ATOM     29  O   UNL     1      -3.069  13.477  22.286  0.00  0.00    +0.000 OA
ENDBRANCH  22  26
ENDBRANCH   1  22
TORSDOF 3
ENDMDL
MODEL 8
REMARK VINA RESULT:      -7.6      4.055      8.738
REMARK  Name = 
REMARK  5 active torsions:
REMARK  status: ('A' for Active; 'I' for Inactive)
REMARK    1  A    between atoms: C_1  and  C_2
REMARK    2  A    between atoms: N_4  and  C_5
REMARK    3  A    between atoms: C_5  and  C_6
REMARK    4  A    between atoms: C_15  and  N_16
REMARK    5  A    between atoms: C_27  and  C_28
REMARK                            x       y       z     vdW  Elec       q    Type
REMARK                         _______ _______ _______ _____ _____    ______ ____
ROOT
ATOM      1  C   UNL     1       2.322   6.737  19.317  0.00  0.00    +0.000 C 
ATOM      2  O   UNL     1       2.731   7.462  18.138  0.00  0.00    +0.000 OA
ATOM      3  C   UNL     1       2.104   8.685  18.147  0.00  0.00    +0.000 C 
ATOM      4  O   UNL     1       2.059   9.398  17.163  0.00  0.00    +0.000 OA
ATOM      5  N   UNL     1       1.557   8.886  19.389  0.00  0.00    +0.000 N 
ATOM      6  C   UNL     1       0.749   9.930  19.862  0.00  0.00    +0.000 A 
ATOM      7  C   UNL     1       0.521  11.097  19.143  0.00  0.00    +0.000 A 
ATOM      8  C   UNL     1      -0.283  12.104  19.684  0.00  0.00    +0.000 A 
ATOM      9  F   UNL     1      -0.477  13.195  18.924  0.00  0.00    +0.000 F 
ATOM     10  C   UNL     1      -0.898  11.998  20.949  0.00  0.00    +0.000 A 
ATOM     11  C   UNL     1      -0.650  10.808  21.653  0.00  0.00    +0.000 A 
ATOM     12  C   UNL     1       0.144   9.782  21.122  0.00  0.00    +0.000 A 
ATOM     13  O   UNL     1       0.290   8.656  21.908  0.00  0.00    +0.000 OA
ATOM     14  C   UNL     1       0.709   7.496  21.168  0.00  0.00    +0.000 C 
ATOM     15  C   UNL     1       1.909   7.824  20.288  0.00  0.00    +0.000 C 
ENDROOT
BRANCH  10  16
ATOM     16  N   UNL     1      -1.682  12.999  21.507  0.00  0.00    +0.000 N 
ATOM     17  C   UNL     1      -3.135  12.831  21.692  0.00  0.00    +0.000 C 
ATOM     18  C   UNL     1      -3.521  12.654  23.162  0.00  0.00    +0.000 C 
ATOM     19  S   UNL     1      -3.037  14.101  24.167  0.00  0.00    +0.000 S 
ATOM     20  C   UNL     1      -1.275  14.130  23.692  0.00  0.00    +0.000 C 
ATOM     21  C   UNL     1      -1.071  14.163  22.172  0.00  0.00    +0.000 C 
ENDBRANCH  10  16
BRANCH   1  22
ATOM     22  C   UNL     1       3.404   5.742  19.776  0.00  0.00    +0.000 C 
BRANCH  22  26
ATOM     23  C   UNL     1       1.950   2.194  19.884  0.00  0.00    +0.000 C 
ATOM     24  C   UNL     1       2.339   3.615  20.235  0.00  0.00    +0.000 C 
ATOM     25  O   UNL     1       1.875   4.124  21.264  0.00  0.00    +0.000 OA
ATOM     26  N   UNL     1       3.211   4.329  19.399  0.00  0.00    +0.000 N 
ATOM     27  C   UNL     1       3.784   3.783  18.245  0.00  0.00    +0.000 C 
ATOM     28  C   UNL     1       4.683   4.627  17.368  0.00  0.00    +0.000 C 
ATOM     29  O   UNL     1       3.590   2.622  17.873  0.00  0.00    +0.000 OA
ENDBRANCH  22  26
ENDBRANCH   1  22
TORSDOF 3
ENDMDL
MODEL 9
REMARK VINA RESULT:      -7.6      1.189      1.699
REMARK  Name = 
REMARK  5 active torsions:
REMARK  status: ('A' for Active; 'I' for Inactive)
REMARK    1  A    between atoms: C_1  and  C_2
REMARK    2  A    between atoms: N_4  and  C_5
REMARK    3  A    between atoms: C_5  and  C_6
REMARK    4  A    between atoms: C_15  and  N_16
REMARK    5  A    between atoms: C_27  and  C_28
REMARK                            x       y       z     vdW  Elec       q    Type
REMARK                         _______ _______ _______ _____ _____    ______ ____
ROOT
ATOM      1  C   UNL     1       0.035  11.387  19.607  0.00  0.00    +0.000 C 
ATOM      2  O   UNL     1      -0.194  10.983  20.974  0.00  0.00    +0.000 OA
ATOM      3  C   UNL     1       0.269   9.697  21.125  0.00  0.00    +0.000 C 
ATOM      4  O   UNL     1      -0.019   9.014  22.089  0.00  0.00    +0.000 OA
ATOM      5  N   UNL     1       1.026   9.374  20.028  0.00  0.00    +0.000 N 
ATOM      6  C   UNL     1       1.634   8.160  19.676  0.00  0.00    +0.000 A 
ATOM      7  C   UNL     1       1.721   7.078  20.541  0.00  0.00    +0.000 A 
ATOM      8  C   UNL     1       2.356   5.903  20.128  0.00  0.00    +0.000 A 
ATOM      9  F   UNL     1       2.384   4.889  21.009  0.00  0.00    +0.000 F 
ATOM     10  C   UNL     1       2.922   5.748  18.845  0.00  0.00    +0.000 A 
ATOM     11  C   UNL     1       2.819   6.858  17.991  0.00  0.00    +0.000 A 
ATOM     12  C   UNL     1       2.176   8.040  18.384  0.00  0.00    +0.000 A 
ATOM     13  O   UNL     1       2.126   9.049  17.442  0.00  0.00    +0.000 OA
ATOM     14  C   UNL     1       1.104  10.025  17.708  0.00  0.00    +0.000 C 
ATOM     15  C   UNL     1       1.178  10.502  19.152  0.00  0.00    +0.000 C 
ENDROOT
BRANCH  10  16
ATOM     16  N   UNL     1       3.573   4.594  18.429  0.00  0.00    +0.000 N 
ATOM     17  C   UNL     1       4.654   3.986  19.227  0.00  0.00    +0.000 C 
ATOM     18  C   UNL     1       4.223   2.680  19.897  0.00  0.00    +0.000 C 
ATOM     19  S   UNL     1       3.718   1.424  18.669  0.00  0.00    +0.000 S 
ATOM     20  C   UNL     1       2.482   2.444  17.796  0.00  0.00    +0.000 C 
ATOM     21  C   UNL     1       3.051   3.784  17.314  0.00  0.00    +0.000 C 
ENDBRANCH  10  16
BRANCH   1  22
ATOM     22  C   UNL     1       0.220  12.910  19.488  0.00  0.00    +0.000 C 
BRANCH  22  26
ATOM     23  C   UNL     1       3.662  14.356  20.373  0.00  0.00    +0.000 C 
ATOM     24  C   UNL     1       2.526  13.630  19.682  0.00  0.00    +0.000 C 
ATOM     25  O   UNL     1       2.721  13.146  18.560  0.00  0.00    +0.000 OA
ATOM     26  N   UNL     1       1.279  13.518  20.317  0.00  0.00    +0.000 N 
ATOM     27  C   UNL     1       1.023  14.022  21.597  0.00  0.00    +0.000 C 
ATOM     28  C   UNL     1      -0.359  13.900  22.201  0.00  0.00    +0.000 C 
ATOM     29  O   UNL     1       1.874  14.589  22.287  0.00  0.00    +0.000 OA
ENDBRANCH  22  26
ENDBRANCH   1  22
TORSDOF 3
ENDMDL
