MODEL 1
REMARK VINA RESULT:      -8.4      0.000      0.000
REMARK  Name = 
REMARK  3 active torsions:
REMARK  status: ('A' for Active; 'I' for Inactive)
REMARK    1  A    between atoms: C_2  and  C_3
REMARK    2  A    between atoms: C_4  and  C_5
REMARK    3  A    between atoms: N_11  and  C_12
REMARK                            x       y       z     vdW  Elec       q    Type
REMARK                         _______ _______ _______ _____ _____    ______ ____
ROOT
ATOM      1  O   UNL     1       6.187   4.370  19.372  0.00  0.00    +0.000 OA
ATOM      2  C   UNL     1       5.834   4.893  18.319  0.00  0.00    +0.000 C 
ATOM      3  N   UNL     1       4.799   5.832  18.239  0.00  0.00    +0.000 N 
ATOM      4  H   UNL     1       4.639   6.204  17.317  0.00  0.00    +0.000 HD
ENDROOT
BRANCH   3   5
ATOM      5  C   UNL     1       3.586   5.805  19.086  0.00  0.00    +0.000 C 
ATOM      6  C   UNL     1       2.751   7.086  19.231  0.00  0.00    +0.000 C 
ATOM      7  C   UNL     1       1.904   7.010  20.510  0.00  0.00    +0.000 C 
ATOM      8  C   UNL     1       1.004   5.789  20.513  0.00  0.00    +0.000 C 
ATOM      9  C   UNL     1       1.747   4.505  20.179  0.00  0.00    +0.000 A 
ATOM     10  C   UNL     1       1.114   3.318  20.551  0.00  0.00    +0.000 A 
ATOM     11  C   UNL     1       1.022   2.308  19.616  0.00  0.00    +0.000 A 
ATOM     12  C   UNL     1       1.591   2.518  18.350  0.00  0.00    +0.000 A 
ATOM     13  C   UNL     1       2.444   3.620  18.099  0.00  0.00    +0.000 A 
ATOM     14  C   UNL     1       2.648   4.585  19.078  0.00  0.00    +0.000 A 
ENDBRANCH   3   5
BRANCH   2  15
ATOM     15  C   UNL     1       6.496   4.511  17.013  0.00  0.00    +0.000 C 
ATOM     16  C   UNL     1       5.868   4.753  15.839  0.00  0.00    +0.000 C 
BRANCH  16  17
ATOM     17  C   UNL     1       6.303   4.490  14.428  0.00  0.00    +0.000 A 
ATOM     18  C   UNL     1       5.684   3.581  13.557  0.00  0.00    +0.000 A 
ATOM     19  C   UNL     1       6.113   3.448  12.233  0.00  0.00    +0.000 A 
ATOM     20  C   UNL     1       7.172   4.207  11.731  0.00  0.00    +0.000 A 
ATOM     21  C   UNL     1       7.814   5.092  12.577  0.00  0.00    +0.000 A 
ATOM     22  C   UNL     1       7.388   5.225  13.913  0.00  0.00    +0.000 A 
ENDBRANCH  16  17
ENDBRANCH   2  15
TORSDOF 3
ENDMDL
MODEL 2
REMARK VINA RESULT:      -8.3      5.156      6.919
REMARK  Name = 
REMARK  3 active torsions:
REMARK  status: ('A' for Active; 'I' for Inactive)
REMARK    1  A    between atoms: C_2  and  C_3
REMARK    2  A    between atoms: C_4  and  C_5
REMARK    3  A    between atoms: N_11  and  C_12
REMARK                            x       y       z     vdW  Elec       q    Type
REMARK                         _______ _______ _______ _____ _____    ______ ____
ROOT
ATOM      1  O   UNL     1       8.134   6.825  18.774  0.00  0.00    +0.000 OA
ATOM      2  C   UNL     1       7.720   7.688  18.004  0.00  0.00    +0.000 C 
ATOM      3  N   UNL     1       6.566   7.531  17.229  0.00  0.00    +0.000 N 
ATOM      4  H   UNL     1       6.324   8.332  16.667  0.00  0.00    +0.000 HD
ENDROOT
BRANCH   3   5
ATOM      5  C   UNL     1       6.124   6.244  16.646  0.00  0.00    +0.000 C 
ATOM      6  C   UNL     1       7.125   5.417  15.825  0.00  0.00    +0.000 C 
ATOM      7  C   UNL     1       6.365   4.454  14.901  0.00  0.00    +0.000 C 
ATOM      8  C   UNL     1       5.439   3.542  15.682  0.00  0.00    +0.000 C 
ATOM      9  C   UNL     1       4.554   4.295  16.663  0.00  0.00    +0.000 A 
ATOM     10  C   UNL     1       3.421   3.614  17.111  0.00  0.00    +0.000 A 
ATOM     11  C   UNL     1       3.166   3.595  18.466  0.00  0.00    +0.000 A 
ATOM     12  C   UNL     1       4.044   4.282  19.319  0.00  0.00    +0.000 A 
ATOM     13  C   UNL     1       5.022   5.169  18.810  0.00  0.00    +0.000 A 
ATOM     14  C   UNL     1       5.208   5.295  17.439  0.00  0.00    +0.000 A 
ENDBRANCH   3   5
BRANCH   2  15
ATOM     15  C   UNL     1       8.479   8.984  17.823  0.00  0.00    +0.000 C 
ATOM     16  C   UNL     1       8.976   9.634  18.901  0.00  0.00    +0.000 C 
BRANCH  16  17
ATOM     17  C   UNL     1       9.765  10.906  18.994  0.00  0.00    +0.000 A 
ATOM     18  C   UNL     1      10.288  11.435  20.183  0.00  0.00    +0.000 A 
ATOM     19  C   UNL     1      11.072  12.593  20.170  0.00  0.00    +0.000 A 
ATOM     20  C   UNL     1      11.358  13.266  18.981  0.00  0.00    +0.000 A 
ATOM     21  C   UNL     1      10.834  12.776  17.799  0.00  0.00    +0.000 A 
ATOM     22  C   UNL     1      10.039  11.614  17.809  0.00  0.00    +0.000 A 
ENDBRANCH  16  17
ENDBRANCH   2  15
TORSDOF 3
ENDMDL
MODEL 3
REMARK VINA RESULT:      -8.3      5.143      6.954
REMARK  Name = 
REMARK  3 active torsions:
REMARK  status: ('A' for Active; 'I' for Inactive)
REMARK    1  A    between atoms: C_2  and  C_3
REMARK    2  A    between atoms: C_4  and  C_5
REMARK    3  A    between atoms: N_11  and  C_12
REMARK                            x       y       z     vdW  Elec       q    Type
REMARK                         _______ _______ _______ _____ _____    ______ ____
ROOT
ATOM      1  O   UNL     1       8.129   6.806  18.743  0.00  0.00    +0.000 OA
ATOM      2  C   UNL     1       7.678   7.671  17.996  0.00  0.00    +0.000 C 
ATOM      3  N   UNL     1       6.518   7.496  17.235  0.00  0.00    +0.000 N 
ATOM      4  H   UNL     1       6.245   8.300  16.693  0.00  0.00    +0.000 HD
ENDROOT
BRANCH   3   5
ATOM      5  C   UNL     1       6.105   6.209  16.632  0.00  0.00    +0.000 C 
ATOM      6  C   UNL     1       7.117   5.428  15.779  0.00  0.00    +0.000 C 
ATOM      7  C   UNL     1       6.372   4.462  14.846  0.00  0.00    +0.000 C 
ATOM      8  C   UNL     1       5.485   3.508  15.622  0.00  0.00    +0.000 C 
ATOM      9  C   UNL     1       4.593   4.213  16.631  0.00  0.00    +0.000 A 
ATOM     10  C   UNL     1       3.487   3.491  17.081  0.00  0.00    +0.000 A 
ATOM     11  C   UNL     1       3.254   3.436  18.439  0.00  0.00    +0.000 A 
ATOM     12  C   UNL     1       4.124   4.132  19.294  0.00  0.00    +0.000 A 
ATOM     13  C   UNL     1       5.069   5.058  18.789  0.00  0.00    +0.000 A 
ATOM     14  C   UNL     1       5.230   5.217  17.418  0.00  0.00    +0.000 A 
ENDBRANCH   3   5
BRANCH   2  15
ATOM     15  C   UNL     1       8.396   8.992  17.832  0.00  0.00    +0.000 C 
ATOM     16  C   UNL     1       9.000   9.572  18.894  0.00  0.00    +0.000 C 
BRANCH  16  17
ATOM     17  C   UNL     1       9.779  10.850  18.996  0.00  0.00    +0.000 A 
ATOM     18  C   UNL     1      10.284  11.567  17.902  0.00  0.00    +0.000 A 
ATOM     19  C   UNL     1      10.941  12.788  18.084  0.00  0.00    +0.000 A 
ATOM     20  C   UNL     1      11.124  13.334  19.356  0.00  0.00    +0.000 A 
ATOM     21  C   UNL     1      10.656  12.633  20.452  0.00  0.00    +0.000 A 
ATOM     22  C   UNL     1       9.999  11.401  20.273  0.00  0.00    +0.000 A 
ENDBRANCH  16  17
ENDBRANCH   2  15
TORSDOF 3
ENDMDL
MODEL 4
REMARK VINA RESULT:      -8.3      0.400      1.111
REMARK  Name = 
REMARK  3 active torsions:
REMARK  status: ('A' for Active; 'I' for Inactive)
REMARK    1  A    between atoms: C_2  and  C_3
REMARK    2  A    between atoms: C_4  and  C_5
REMARK    3  A    between atoms: N_11  and  C_12
REMARK                            x       y       z     vdW  Elec       q    Type
REMARK                         _______ _______ _______ _____ _____    ______ ____
ROOT
ATOM      1  O   UNL     1       6.303   4.752  19.323  0.00  0.00    +0.000 OA
ATOM      2  C   UNL     1       5.835   5.113  18.246  0.00  0.00    +0.000 C 
ATOM      3  N   UNL     1       4.728   5.962  18.139  0.00  0.00    +0.000 N 
ATOM      4  H   UNL     1       4.472   6.203  17.195  0.00  0.00    +0.000 HD
ENDROOT
BRANCH   3   5
ATOM      5  C   UNL     1       3.585   5.960  19.079  0.00  0.00    +0.000 C 
ATOM      6  C   UNL     1       2.633   7.166  19.096  0.00  0.00    +0.000 C 
ATOM      7  C   UNL     1       1.889   7.220  20.438  0.00  0.00    +0.000 C 
ATOM      8  C   UNL     1       1.124   5.938  20.705  0.00  0.00    +0.000 C 
ATOM      9  C   UNL     1       1.970   4.690  20.510  0.00  0.00    +0.000 A 
ATOM     10  C   UNL     1       1.492   3.526  21.112  0.00  0.00    +0.000 A 
ATOM     11  C   UNL     1       1.441   2.374  20.354  0.00  0.00    +0.000 A 
ATOM     12  C   UNL     1       1.897   2.429  19.027  0.00  0.00    +0.000 A 
ATOM     13  C   UNL     1       2.611   3.549  18.539  0.00  0.00    +0.000 A 
ATOM     14  C   UNL     1       2.781   4.674  19.337  0.00  0.00    +0.000 A 
ENDBRANCH   3   5
BRANCH   2  15
ATOM     15  C   UNL     1       6.427   4.615  16.946  0.00  0.00    +0.000 C 
ATOM     16  C   UNL     1       5.893   5.002  15.765  0.00  0.00    +0.000 C 
BRANCH  16  17
ATOM     17  C   UNL     1       6.292   4.671  14.358  0.00  0.00    +0.000 A 
ATOM     18  C   UNL     1       7.412   5.201  13.700  0.00  0.00    +0.000 A 
ATOM     19  C   UNL     1       7.750   4.785  12.409  0.00  0.00    +0.000 A 
ATOM     20  C   UNL     1       6.987   3.835  11.726  0.00  0.00    +0.000 A 
ATOM     21  C   UNL     1       5.865   3.316  12.346  0.00  0.00    +0.000 A 
ATOM     22  C   UNL     1       5.518   3.737  13.644  0.00  0.00    +0.000 A 
ENDBRANCH  16  17
ENDBRANCH   2  15
TORSDOF 3
ENDMDL
MODEL 5
REMARK VINA RESULT:      -8.2      3.611      8.294
REMARK  Name = 
REMARK  3 active torsions:
REMARK  status: ('A' for Active; 'I' for Inactive)
REMARK    1  A    between atoms: C_2  and  C_3
REMARK    2  A    between atoms: C_4  and  C_5
REMARK    3  A    between atoms: N_11  and  C_12
REMARK                            x       y       z     vdW  Elec       q    Type
REMARK                         _______ _______ _______ _____ _____    ______ ____
ROOT
ATOM      1  O   UNL     1       2.346   9.065  17.130  0.00  0.00    +0.000 OA
ATOM      2  C   UNL     1       1.922   8.819  18.257  0.00  0.00    +0.000 C 
ATOM      3  N   UNL     1       2.354   7.726  19.015  0.00  0.00    +0.000 N 
ATOM      4  H   UNL     1       1.948   7.665  19.935  0.00  0.00    +0.000 HD
ENDROOT
BRANCH   3   5
ATOM      5  C   UNL     1       2.723   6.412  18.443  0.00  0.00    +0.000 C 
ATOM      6  C   UNL     1       4.181   6.165  18.025  0.00  0.00    +0.000 C 
ATOM      7  C   UNL     1       4.240   5.017  17.006  0.00  0.00    +0.000 C 
ATOM      8  C   UNL     1       3.626   3.746  17.560  0.00  0.00    +0.000 C 
ATOM      9  C   UNL     1       2.252   3.968  18.171  0.00  0.00    +0.000 A 
ATOM     10  C   UNL     1       1.460   2.830  18.326  0.00  0.00    +0.000 A 
ATOM     11  C   UNL     1       0.847   2.624  19.544  0.00  0.00    +0.000 A 
ATOM     12  C   UNL     1       1.031   3.582  20.553  0.00  0.00    +0.000 A 
ATOM     13  C   UNL     1       1.619   4.840  20.277  0.00  0.00    +0.000 A 
ATOM     14  C   UNL     1       2.131   5.111  19.014  0.00  0.00    +0.000 A 
ENDBRANCH   3   5
BRANCH   2  15
ATOM     15  C   UNL     1       0.857   9.692  18.883  0.00  0.00    +0.000 C 
ATOM     16  C   UNL     1       0.672   9.680  20.223  0.00  0.00    +0.000 C 
BRANCH  16  17
ATOM     17  C   UNL     1      -0.288  10.447  21.082  0.00  0.00    +0.000 A 
ATOM     18  C   UNL     1      -0.478  10.232  22.456  0.00  0.00    +0.000 A 
ATOM     19  C   UNL     1      -1.346  11.041  23.196  0.00  0.00    +0.000 A 
ATOM     20  C   UNL     1      -2.058  12.083  22.599  0.00  0.00    +0.000 A 
ATOM     21  C   UNL     1      -1.905  12.298  21.242  0.00  0.00    +0.000 A 
ATOM     22  C   UNL     1      -1.036  11.483  20.492  0.00  0.00    +0.000 A 
ENDBRANCH  16  17
ENDBRANCH   2  15
TORSDOF 3
ENDMDL
MODEL 6
REMARK VINA RESULT:      -8.1      3.579      8.284
REMARK  Name = 
REMARK  3 active torsions:
REMARK  status: ('A' for Active; 'I' for Inactive)
REMARK    1  A    between atoms: C_2  and  C_3
REMARK    2  A    between atoms: C_4  and  C_5
REMARK    3  A    between atoms: N_11  and  C_12
REMARK                            x       y       z     vdW  Elec       q    Type
REMARK                         _______ _______ _______ _____ _____    ______ ____
ROOT
ATOM      1  O   UNL     1       2.426   9.077  17.108  0.00  0.00    +0.000 OA
ATOM      2  C   UNL     1       1.990   8.836  18.231  0.00  0.00    +0.000 C 
ATOM      3  N   UNL     1       2.399   7.735  18.991  0.00  0.00    +0.000 N 
ATOM      4  H   UNL     1       1.984   7.679  19.907  0.00  0.00    +0.000 HD
ENDROOT
BRANCH   3   5
ATOM      5  C   UNL     1       2.753   6.416  18.420  0.00  0.00    +0.000 C 
ATOM      6  C   UNL     1       4.209   6.153  18.005  0.00  0.00    +0.000 C 
ATOM      7  C   UNL     1       4.256   5.004  16.986  0.00  0.00    +0.000 C 
ATOM      8  C   UNL     1       3.627   3.740  17.540  0.00  0.00    +0.000 C 
ATOM      9  C   UNL     1       2.254   3.979  18.148  0.00  0.00    +0.000 A 
ATOM     10  C   UNL     1       1.448   2.850  18.302  0.00  0.00    +0.000 A 
ATOM     11  C   UNL     1       0.831   2.651  19.520  0.00  0.00    +0.000 A 
ATOM     12  C   UNL     1       1.024   3.608  20.529  0.00  0.00    +0.000 A 
ATOM     13  C   UNL     1       1.628   4.859  20.253  0.00  0.00    +0.000 A 
ATOM     14  C   UNL     1       2.145   5.123  18.990  0.00  0.00    +0.000 A 
ENDBRANCH   3   5
BRANCH   2  15
ATOM     15  C   UNL     1       0.932   9.723  18.849  0.00  0.00    +0.000 C 
ATOM     16  C   UNL     1       0.785   9.767  20.193  0.00  0.00    +0.000 C 
BRANCH  16  17
ATOM     17  C   UNL     1      -0.160  10.560  21.046  0.00  0.00    +0.000 A 
ATOM     18  C   UNL     1      -0.928  11.643  20.592  0.00  0.00    +0.000 A 
ATOM     19  C   UNL     1      -1.837  12.284  21.440  0.00  0.00    +0.000 A 
ATOM     20  C   UNL     1      -2.009  11.878  22.765  0.00  0.00    +0.000 A 
ATOM     21  C   UNL     1      -1.245  10.829  23.241  0.00  0.00    +0.000 A 
ATOM     22  C   UNL     1      -0.325  10.184  22.392  0.00  0.00    +0.000 A 
ENDBRANCH  16  17
ENDBRANCH   2  15
TORSDOF 3
ENDMDL
MODEL 7
REMARK VINA RESULT:      -8.1      4.168      7.901
REMARK  Name = 
REMARK  3 active torsions:
REMARK  status: ('A' for Active; 'I' for Inactive)
REMARK    1  A    between atoms: C_2  and  C_3
REMARK    2  A    between atoms: C_4  and  C_5
REMARK    3  A    between atoms: N_11  and  C_12
REMARK                            x       y       z     vdW  Elec       q    Type
REMARK                         _______ _______ _______ _____ _____    ______ ____
ROOT
ATOM      1  O   UNL     1       2.591   9.049  17.115  0.00  0.00    +0.000 OA
ATOM      2  C   UNL     1       1.990   8.778  18.151  0.00  0.00    +0.000 C 
ATOM      3  N   UNL     1       2.285   7.659  18.937  0.00  0.00    +0.000 N 
ATOM      4  H   UNL     1       1.735   7.578  19.778  0.00  0.00    +0.000 HD
ENDROOT
BRANCH   3   5
ATOM      5  C   UNL     1       2.733   6.357  18.396  0.00  0.00    +0.000 C 
ATOM      6  C   UNL     1       4.219   6.164  18.055  0.00  0.00    +0.000 C 
ATOM      7  C   UNL     1       4.374   5.013  17.050  0.00  0.00    +0.000 C 
ATOM      8  C   UNL     1       3.780   3.723  17.580  0.00  0.00    +0.000 C 
ATOM      9  C   UNL     1       2.368   3.896  18.117  0.00  0.00    +0.000 A 
ATOM     10  C   UNL     1       1.613   2.729  18.240  0.00  0.00    +0.000 A 
ATOM     11  C   UNL     1       0.945   2.507  19.427  0.00  0.00    +0.000 A 
ATOM     12  C   UNL     1       1.040   3.477  20.437  0.00  0.00    +0.000 A 
ATOM     13  C   UNL     1       1.594   4.755  20.181  0.00  0.00    +0.000 A 
ATOM     14  C   UNL     1       2.161   5.038  18.944  0.00  0.00    +0.000 A 
ENDBRANCH   3   5
BRANCH   2  15
ATOM     15  C   UNL     1       0.843   9.645  18.621  0.00  0.00    +0.000 C 
ATOM     16  C   UNL     1      -0.342   9.614  17.970  0.00  0.00    +0.000 C 
BRANCH  16  17
ATOM     17  C   UNL     1      -1.622  10.350  18.235  0.00  0.00    +0.000 A 
ATOM     18  C   UNL     1      -1.742  11.463  19.082  0.00  0.00    +0.000 A 
ATOM     19  C   UNL     1      -2.962  12.132  19.220  0.00  0.00    +0.000 A 
ATOM     20  C   UNL     1      -4.102  11.718  18.528  0.00  0.00    +0.000 A 
ATOM     21  C   UNL     1      -4.013  10.610  17.706  0.00  0.00    +0.000 A 
ATOM     22  C   UNL     1      -2.788   9.930  17.570  0.00  0.00    +0.000 A 
ENDBRANCH  16  17
ENDBRANCH   2  15
TORSDOF 3
ENDMDL
MODEL 8
REMARK VINA RESULT:      -8.0      4.204      7.846
REMARK  Name = 
REMARK  3 active torsions:
REMARK  status: ('A' for Active; 'I' for Inactive)
REMARK    1  A    between atoms: C_2  and  C_3
REMARK    2  A    between atoms: C_4  and  C_5
REMARK    3  A    between atoms: N_11  and  C_12
REMARK                            x       y       z     vdW  Elec       q    Type
REMARK                         _______ _______ _______ _____ _____    ______ ____
ROOT
ATOM      1  O   UNL     1       2.669   9.138  17.058  0.00  0.00    +0.000 OA
ATOM      2  C   UNL     1       1.979   8.874  18.039  0.00  0.00    +0.000 C 
ATOM      3  N   UNL     1       2.188   7.747  18.841  0.00  0.00    +0.000 N 
ATOM      4  H   UNL     1       1.569   7.672  19.632  0.00  0.00    +0.000 HD
ENDROOT
BRANCH   3   5
ATOM      5  C   UNL     1       2.656   6.439  18.331  0.00  0.00    +0.000 C 
ATOM      6  C   UNL     1       4.141   6.266  17.976  0.00  0.00    +0.000 C 
ATOM      7  C   UNL     1       4.307   5.090  17.002  0.00  0.00    +0.000 C 
ATOM      8  C   UNL     1       3.747   3.804  17.577  0.00  0.00    +0.000 C 
ATOM      9  C   UNL     1       2.339   3.964  18.128  0.00  0.00    +0.000 A 
ATOM     10  C   UNL     1       1.609   2.786  18.294  0.00  0.00    +0.000 A 
ATOM     11  C   UNL     1       0.962   2.584  19.495  0.00  0.00    +0.000 A 
ATOM     12  C   UNL     1       1.049   3.585  20.475  0.00  0.00    +0.000 A 
ATOM     13  C   UNL     1       1.573   4.866  20.176  0.00  0.00    +0.000 A 
ATOM     14  C   UNL     1       2.118   5.125  18.925  0.00  0.00    +0.000 A 
ENDBRANCH   3   5
BRANCH   2  15
ATOM     15  C   UNL     1       0.813   9.760  18.417  0.00  0.00    +0.000 C 
ATOM     16  C   UNL     1      -0.394   9.580  17.832  0.00  0.00    +0.000 C 
BRANCH  16  17
ATOM     17  C   UNL     1      -1.694  10.299  18.035  0.00  0.00    +0.000 A 
ATOM     18  C   UNL     1      -2.914   9.924  17.453  0.00  0.00    +0.000 A 
ATOM     19  C   UNL     1      -4.094  10.612  17.751  0.00  0.00    +0.000 A 
ATOM     20  C   UNL     1      -4.103  11.696  18.630  0.00  0.00    +0.000 A 
ATOM     21  C   UNL     1      -2.908  12.100  19.198  0.00  0.00    +0.000 A 
ATOM     22  C   UNL     1      -1.717  11.413  18.896  0.00  0.00    +0.000 A 
ENDBRANCH  16  17
ENDBRANCH   2  15
TORSDOF 3
ENDMDL
MODEL 9
REMARK VINA RESULT:      -7.8      4.827      6.533
REMARK  Name = 
REMARK  3 active torsions:
REMARK  status: ('A' for Active; 'I' for Inactive)
REMARK    1  A    between atoms: C_2  and  C_3
REMARK    2  A    between atoms: C_4  and  C_5
REMARK    3  A    between atoms: N_11  and  C_12
REMARK                            x       y       z     vdW  Elec       q    Type
REMARK                         _______ _______ _______ _____ _____    ______ ____
ROOT
ATOM      1  O   UNL     1       7.982   7.013  16.337  0.00  0.00    +0.000 OA
ATOM      2  C   UNL     1       7.437   7.456  17.345  0.00  0.00    +0.000 C 
ATOM      3  N   UNL     1       6.540   6.713  18.120  0.00  0.00    +0.000 N 
ATOM      4  H   UNL     1       6.195   7.190  18.937  0.00  0.00    +0.000 HD
ENDROOT
BRANCH   3   5
ATOM      5  C   UNL     1       5.591   5.720  17.569  0.00  0.00    +0.000 C 
ATOM      6  C   UNL     1       6.145   4.483  16.847  0.00  0.00    +0.000 C 
ATOM      7  C   UNL     1       5.067   3.898  15.921  0.00  0.00    +0.000 C 
ATOM      8  C   UNL     1       3.806   3.544  16.685  0.00  0.00    +0.000 C 
ATOM      9  C   UNL     1       3.316   4.675  17.577  0.00  0.00    +0.000 A 
ATOM     10  C   UNL     1       1.984   4.599  17.986  0.00  0.00    +0.000 A 
ATOM     11  C   UNL     1       1.701   4.784  19.323  0.00  0.00    +0.000 A 
ATOM     12  C   UNL     1       2.764   5.065  20.196  0.00  0.00    +0.000 A 
ATOM     13  C   UNL     1       4.052   5.391  19.708  0.00  0.00    +0.000 A 
ATOM     14  C   UNL     1       4.321   5.330  18.346  0.00  0.00    +0.000 A 
ENDBRANCH   3   5
BRANCH   2  15
ATOM     15  C   UNL     1       7.689   8.880  17.790  0.00  0.00    +0.000 C 
ATOM     16  C   UNL     1       8.778   9.174  18.536  0.00  0.00    +0.000 C 
BRANCH  16  17
ATOM     17  C   UNL     1       9.260  10.484  19.086  0.00  0.00    +0.000 A 
ATOM     18  C   UNL     1       9.561  10.722  20.435  0.00  0.00    +0.000 A 
ATOM     19  C   UNL     1      10.071  11.956  20.850  0.00  0.00    +0.000 A 
ATOM     20  C   UNL     1      10.292  12.995  19.945  0.00  0.00    +0.000 A 
ATOM     21  C   UNL     1       9.980  12.792  18.613  0.00  0.00    +0.000 A 
ATOM     22  C   UNL     1       9.462  11.553  18.192  0.00  0.00    +0.000 A 
ENDBRANCH  16  17
ENDBRANCH   2  15
TORSDOF 3
ENDMDL
