MODEL 1
REMARK VINA RESULT:      -8.3      0.000      0.000
REMARK  Name = 
REMARK  6 active torsions:
REMARK  status: ('A' for Active; 'I' for Inactive)
REMARK    1  A    between atoms: C_1  and  C_2
REMARK    2  A    between atoms: C_2  and  C_3
REMARK    3  A    between atoms: C_2  and  S_4
REMARK    4  A    between atoms: S_4  and  N_7
REMARK    5  A    between atoms: C_10  and  C_11
REMARK    6  A    between atoms: C_14  and  N_15
REMARK                            x       y       z     vdW  Elec       q    Type
REMARK                         _______ _______ _______ _____ _____    ______ ____
ROOT
ATOM      1  C   UNL     1       1.341   8.500  20.023  0.00  0.00    +0.000 A 
ATOM      2  C   UNL     1       1.031   8.522  21.384  0.00  0.00    +0.000 A 
ATOM      3  C   UNL     1       0.274   9.558  21.949  0.00  0.00    +0.000 A 
ATOM      4  C   UNL     1      -0.195  10.635  21.189  0.00  0.00    +0.000 A 
ATOM      5  C   UNL     1       0.135  10.639  19.832  0.00  0.00    +0.000 A 
ATOM      6  C   UNL     1       0.894   9.585  19.258  0.00  0.00    +0.000 A 
ENDROOT
BRANCH   4   7
ATOM      7  N   UNL     1      -0.988  11.692  21.732  0.00  0.00    +0.000 N 
ATOM      8  C   UNL     1      -0.497  12.927  22.086  0.00  0.00    +0.000 C 
ATOM      9  O   UNL     1       0.661  13.290  21.897  0.00  0.00    +0.000 OA
ATOM     10  N   UNL     1      -1.337  13.800  22.724  0.00  0.00    +0.000 N 
ATOM     11  C   UNL     1      -0.699  15.001  23.256  0.00  0.00    +0.000 C 
ATOM     12  C   UNL     1      -1.782  15.683  24.006  0.00  0.00    +0.000 A 
ATOM     13  C   UNL     1      -1.662  16.773  24.851  0.00  0.00    +0.000 A 
ATOM     14  C   UNL     1      -2.827  17.327  25.367  0.00  0.00    +0.000 A 
ATOM     15  C   UNL     1      -4.079  16.809  24.995  0.00  0.00    +0.000 A 
ATOM     16  C   UNL     1      -4.181  15.677  24.171  0.00  0.00    +0.000 A 
ATOM     17  C   UNL     1      -3.014  15.087  23.716  0.00  0.00    +0.000 A 
ATOM     18  C   UNL     1      -2.787  13.811  22.946  0.00  0.00    +0.000 C 
ATOM     19  H   UNL     1      -1.967  11.508  21.890  0.00  0.00    +0.000 HD
ENDBRANCH   4   7
BRANCH   1  23
ATOM     20  N   UNL     1       3.607   5.150  18.294  0.00  0.00    +0.000 NA
ATOM     21  C   UNL     1       3.024   5.002  19.657  0.00  0.00    +0.000 C 
ATOM     22  C   UNL     1       2.247   6.200  20.114  0.00  0.00    +0.000 C 
ATOM     23  C   UNL     1       2.119   7.366  19.454  0.00  0.00    +0.000 C 
ATOM     24  C   UNL     1       2.785   7.505  18.111  0.00  0.00    +0.000 C 
ATOM     25  C   UNL     1       3.988   6.556  17.966  0.00  0.00    +0.000 C 
BRANCH  20  26
ATOM     26  S   UNL     1       4.837   3.982  18.037  0.00  0.00    +0.000 S 
ATOM     27  O   UNL     1       4.211   2.822  17.433  0.00  0.00    +0.000 OA
ATOM     28  O   UNL     1       5.576   3.858  19.277  0.00  0.00    +0.000 OA
BRANCH  26  30
ATOM     29  C   UNL     1       7.355   4.696  17.311  0.00  0.00    +0.000 C 
ATOM     30  C   UNL     1       5.914   4.727  16.794  0.00  0.00    +0.000 C 
ATOM     31  C   UNL     1       5.824   4.008  15.454  0.00  0.00    +0.000 C 
ENDBRANCH  26  30
ENDBRANCH  20  26
ENDBRANCH   1  23
TORSDOF 4
ENDMDL
MODEL 2
REMARK VINA RESULT:      -8.1      0.537      1.021
REMARK  Name = 
REMARK  6 active torsions:
REMARK  status: ('A' for Active; 'I' for Inactive)
REMARK    1  A    between atoms: C_1  and  C_2
REMARK    2  A    between atoms: C_2  and  C_3
REMARK    3  A    between atoms: C_2  and  S_4
REMARK    4  A    between atoms: S_4  and  N_7
REMARK    5  A    between atoms: C_10  and  C_11
REMARK    6  A    between atoms: C_14  and  N_15
REMARK                            x       y       z     vdW  Elec       q    Type
REMARK                         _______ _______ _______ _____ _____    ______ ____
ROOT
ATOM      1  C   UNL     1       1.362   8.628  19.861  0.00  0.00    +0.000 A 
ATOM      2  C   UNL     1       0.837   9.637  19.053  0.00  0.00    +0.000 A 
ATOM      3  C   UNL     1       0.050  10.668  19.582  0.00  0.00    +0.000 A 
ATOM      4  C   UNL     1      -0.270  10.736  20.943  0.00  0.00    +0.000 A 
ATOM      5  C   UNL     1       0.224   9.714  21.757  0.00  0.00    +0.000 A 
ATOM      6  C   UNL     1       1.030   8.674  21.222  0.00  0.00    +0.000 A 
ENDROOT
BRANCH   4   7
ATOM      7  N   UNL     1      -1.051  11.787  21.515  0.00  0.00    +0.000 N 
ATOM      8  C   UNL     1      -0.533  12.976  21.971  0.00  0.00    +0.000 C 
ATOM      9  O   UNL     1       0.646  13.306  21.861  0.00  0.00    +0.000 OA
ATOM     10  N   UNL     1      -1.372  13.840  22.624  0.00  0.00    +0.000 N 
ATOM     11  C   UNL     1      -0.718  14.979  23.262  0.00  0.00    +0.000 C 
ATOM     12  C   UNL     1      -1.811  15.655  24.003  0.00  0.00    +0.000 A 
ATOM     13  C   UNL     1      -1.694  16.683  24.922  0.00  0.00    +0.000 A 
ATOM     14  C   UNL     1      -2.863  17.249  25.417  0.00  0.00    +0.000 A 
ATOM     15  C   UNL     1      -4.113  16.806  24.953  0.00  0.00    +0.000 A 
ATOM     16  C   UNL     1      -4.214  15.732  24.053  0.00  0.00    +0.000 A 
ATOM     17  C   UNL     1      -3.048  15.127  23.617  0.00  0.00    +0.000 A 
ATOM     18  C   UNL     1      -2.830  13.894  22.777  0.00  0.00    +0.000 C 
ATOM     19  H   UNL     1      -2.042  11.631  21.614  0.00  0.00    +0.000 HD
ENDBRANCH   4   7
BRANCH   1  23
ATOM     20  N   UNL     1       3.861   5.485  18.064  0.00  0.00    +0.000 NA
ATOM     21  C   UNL     1       3.431   5.345  19.483  0.00  0.00    +0.000 C 
ATOM     22  C   UNL     1       2.555   6.463  19.962  0.00  0.00    +0.000 C 
ATOM     23  C   UNL     1       2.221   7.567  19.268  0.00  0.00    +0.000 C 
ATOM     24  C   UNL     1       2.735   7.710  17.860  0.00  0.00    +0.000 C 
ATOM     25  C   UNL     1       4.029   6.906  17.638  0.00  0.00    +0.000 C 
BRANCH  20  26
ATOM     26  S   UNL     1       5.198   4.463  17.737  0.00  0.00    +0.000 S 
ATOM     27  O   UNL     1       4.770   3.495  16.745  0.00  0.00    +0.000 OA
ATOM     28  O   UNL     1       5.726   4.025  19.014  0.00  0.00    +0.000 OA
BRANCH  26  30
ATOM     29  C   UNL     1       7.503   5.880  17.971  0.00  0.00    +0.000 C 
ATOM     30  C   UNL     1       6.412   5.544  16.951  0.00  0.00    +0.000 C 
ATOM     31  C   UNL     1       7.031   4.905  15.715  0.00  0.00    +0.000 C 
ENDBRANCH  26  30
ENDBRANCH  20  26
ENDBRANCH   1  23
TORSDOF 4
ENDMDL
MODEL 3
REMARK VINA RESULT:      -8.0      1.715      2.442
REMARK  Name = 
REMARK  6 active torsions:
REMARK  status: ('A' for Active; 'I' for Inactive)
REMARK    1  A    between atoms: C_1  and  C_2
REMARK    2  A    between atoms: C_2  and  C_3
REMARK    3  A    between atoms: C_2  and  S_4
REMARK    4  A    between atoms: S_4  and  N_7
REMARK    5  A    between atoms: C_10  and  C_11
REMARK    6  A    between atoms: C_14  and  N_15
REMARK                            x       y       z     vdW  Elec       q    Type
REMARK                         _______ _______ _______ _____ _____    ______ ____
ROOT
ATOM      1  C   UNL     1       2.416   7.929  18.573  0.00  0.00    +0.000 A 
ATOM      2  C   UNL     1       2.013   7.856  19.907  0.00  0.00    +0.000 A 
ATOM      3  C   UNL     1       1.051   8.729  20.433  0.00  0.00    +0.000 A 
ATOM      4  C   UNL     1       0.456   9.733  19.661  0.00  0.00    +0.000 A 
ATOM      5  C   UNL     1       0.875   9.835  18.332  0.00  0.00    +0.000 A 
ATOM      6  C   UNL     1       1.842   8.944  17.796  0.00  0.00    +0.000 A 
ENDROOT
BRANCH   4   7
ATOM      7  N   UNL     1      -0.544  10.622  20.163  0.00  0.00    +0.000 N 
ATOM      8  C   UNL     1      -0.309  11.608  21.091  0.00  0.00    +0.000 C 
ATOM      9  O   UNL     1       0.802  11.893  21.532  0.00  0.00    +0.000 OA
ATOM     10  N   UNL     1      -1.382  12.297  21.590  0.00  0.00    +0.000 N 
ATOM     11  C   UNL     1      -1.087  13.177  22.718  0.00  0.00    +0.000 C 
ATOM     12  C   UNL     1      -2.418  13.675  23.145  0.00  0.00    +0.000 A 
ATOM     13  C   UNL     1      -2.718  14.398  24.286  0.00  0.00    +0.000 A 
ATOM     14  C   UNL     1      -4.018  14.863  24.437  0.00  0.00    +0.000 A 
ATOM     15  C   UNL     1      -4.972  14.633  23.431  0.00  0.00    +0.000 A 
ATOM     16  C   UNL     1      -4.661  13.860  22.301  0.00  0.00    +0.000 A 
ATOM     17  C   UNL     1      -3.383  13.341  22.189  0.00  0.00    +0.000 A 
ATOM     18  C   UNL     1      -2.790  12.382  21.188  0.00  0.00    +0.000 C 
ATOM     19  H   UNL     1      -1.487  10.496  19.831  0.00  0.00    +0.000 HD
ENDBRANCH   4   7
BRANCH   1  23
ATOM     20  N   UNL     1       5.384   5.057  17.059  0.00  0.00    +0.000 NA
ATOM     21  C   UNL     1       5.531   6.499  16.714  0.00  0.00    +0.000 C 
ATOM     22  C   UNL     1       4.477   7.375  17.322  0.00  0.00    +0.000 C 
ATOM     23  C   UNL     1       3.417   6.963  18.043  0.00  0.00    +0.000 C 
ATOM     24  C   UNL     1       3.261   5.489  18.308  0.00  0.00    +0.000 C 
ATOM     25  C   UNL     1       3.963   4.637  17.237  0.00  0.00    +0.000 C 
BRANCH  20  26
ATOM     26  S   UNL     1       6.304   4.087  15.984  0.00  0.00    +0.000 S 
ATOM     27  O   UNL     1       5.677   2.780  15.939  0.00  0.00    +0.000 OA
ATOM     28  O   UNL     1       7.695   4.224  16.366  0.00  0.00    +0.000 OA
BRANCH  26  30
ATOM     29  C   UNL     1       7.444   5.185  13.778  0.00  0.00    +0.000 C 
ATOM     30  C   UNL     1       6.070   4.857  14.368  0.00  0.00    +0.000 C 
ATOM     31  C   UNL     1       5.292   3.960  13.414  0.00  0.00    +0.000 C 
ENDBRANCH  26  30
ENDBRANCH  20  26
ENDBRANCH   1  23
TORSDOF 4
ENDMDL
MODEL 4
REMARK VINA RESULT:      -7.9      1.716      2.332
REMARK  Name = 
REMARK  6 active torsions:
REMARK  status: ('A' for Active; 'I' for Inactive)
REMARK    1  A    between atoms: C_1  and  C_2
REMARK    2  A    between atoms: C_2  and  C_3
REMARK    3  A    between atoms: C_2  and  S_4
REMARK    4  A    between atoms: S_4  and  N_7
REMARK    5  A    between atoms: C_10  and  C_11
REMARK    6  A    between atoms: C_14  and  N_15
REMARK                            x       y       z     vdW  Elec       q    Type
REMARK                         _______ _______ _______ _____ _____    ______ ____
ROOT
ATOM      1  C   UNL     1       2.327   7.847  18.682  0.00  0.00    +0.000 A 
ATOM      2  C   UNL     1       1.712   8.967  18.121  0.00  0.00    +0.000 A 
ATOM      3  C   UNL     1       0.885   9.809  18.878  0.00  0.00    +0.000 A 
ATOM      4  C   UNL     1       0.614   9.565  20.228  0.00  0.00    +0.000 A 
ATOM      5  C   UNL     1       1.199   8.429  20.793  0.00  0.00    +0.000 A 
ATOM      6  C   UNL     1       2.044   7.582  20.029  0.00  0.00    +0.000 A 
ENDROOT
BRANCH   4   7
ATOM      7  N   UNL     1      -0.205  10.418  21.031  0.00  0.00    +0.000 N 
ATOM      8  C   UNL     1       0.033  11.757  21.232  0.00  0.00    +0.000 C 
ATOM      9  O   UNL     1       0.927  12.392  20.677  0.00  0.00    +0.000 OA
ATOM     10  N   UNL     1      -0.749  12.426  22.136  0.00  0.00    +0.000 N 
ATOM     11  C   UNL     1      -0.311  13.782  22.454  0.00  0.00    +0.000 C 
ATOM     12  C   UNL     1      -1.227  14.212  23.539  0.00  0.00    +0.000 A 
ATOM     13  C   UNL     1      -1.126  15.348  24.323  0.00  0.00    +0.000 A 
ATOM     14  C   UNL     1      -2.160  15.618  25.212  0.00  0.00    +0.000 A 
ATOM     15  C   UNL     1      -3.283  14.775  25.266  0.00  0.00    +0.000 A 
ATOM     16  C   UNL     1      -3.348  13.603  24.494  0.00  0.00    +0.000 A 
ATOM     17  C   UNL     1      -2.283  13.303  23.662  0.00  0.00    +0.000 A 
ATOM     18  C   UNL     1      -1.996  12.080  22.828  0.00  0.00    +0.000 C 
ATOM     19  H   UNL     1      -0.993  10.000  21.501  0.00  0.00    +0.000 HD
ENDBRANCH   4   7
BRANCH   1  23
ATOM     20  N   UNL     1       4.946   5.341  16.190  0.00  0.00    +0.000 NA
ATOM     21  C   UNL     1       4.292   4.740  17.385  0.00  0.00    +0.000 C 
ATOM     22  C   UNL     1       3.398   5.688  18.126  0.00  0.00    +0.000 C 
ATOM     23  C   UNL     1       3.224   6.995  17.855  0.00  0.00    +0.000 C 
ATOM     24  C   UNL     1       3.960   7.587  16.682  0.00  0.00    +0.000 C 
ATOM     25  C   UNL     1       5.238   6.797  16.349  0.00  0.00    +0.000 C 
BRANCH  20  26
ATOM     26  S   UNL     1       6.274   4.382  15.685  0.00  0.00    +0.000 S 
ATOM     27  O   UNL     1       5.875   2.993  15.806  0.00  0.00    +0.000 OA
ATOM     28  O   UNL     1       7.447   4.875  16.378  0.00  0.00    +0.000 OA
BRANCH  26  30
ATOM     29  C   UNL     1       7.885   5.208  13.660  0.00  0.00    +0.000 C 
ATOM     30  C   UNL     1       6.450   4.744  13.924  0.00  0.00    +0.000 C 
ATOM     31  C   UNL     1       6.123   3.536  13.056  0.00  0.00    +0.000 C 
ENDBRANCH  26  30
ENDBRANCH  20  26
ENDBRANCH   1  23
TORSDOF 4
ENDMDL
MODEL 5
REMARK VINA RESULT:      -7.9      0.764      1.286
REMARK  Name = 
REMARK  6 active torsions:
REMARK  status: ('A' for Active; 'I' for Inactive)
REMARK    1  A    between atoms: C_1  and  C_2
REMARK    2  A    between atoms: C_2  and  C_3
REMARK    3  A    between atoms: C_2  and  S_4
REMARK    4  A    between atoms: S_4  and  N_7
REMARK    5  A    between atoms: C_10  and  C_11
REMARK    6  A    between atoms: C_14  and  N_15
REMARK                            x       y       z     vdW  Elec       q    Type
REMARK                         _______ _______ _______ _____ _____    ______ ____
ROOT
ATOM      1  C   UNL     1       1.214   8.657  19.924  0.00  0.00    +0.000 A 
ATOM      2  C   UNL     1       0.733   8.691  21.234  0.00  0.00    +0.000 A 
ATOM      3  C   UNL     1      -0.156   9.687  21.664  0.00  0.00    +0.000 A 
ATOM      4  C   UNL     1      -0.595  10.709  20.816  0.00  0.00    +0.000 A 
ATOM      5  C   UNL     1      -0.095  10.702  19.512  0.00  0.00    +0.000 A 
ATOM      6  C   UNL     1       0.797   9.689  19.073  0.00  0.00    +0.000 A 
ENDROOT
BRANCH   4   7
ATOM      7  N   UNL     1      -1.518  11.723  21.220  0.00  0.00    +0.000 N 
ATOM      8  C   UNL     1      -1.184  12.816  21.983  0.00  0.00    +0.000 C 
ATOM      9  O   UNL     1      -0.038  13.092  22.333  0.00  0.00    +0.000 OA
ATOM     10  N   UNL     1      -2.191  13.636  22.416  0.00  0.00    +0.000 N 
ATOM     11  C   UNL     1      -1.793  14.651  23.388  0.00  0.00    +0.000 C 
ATOM     12  C   UNL     1      -3.071  15.288  23.789  0.00  0.00    +0.000 A 
ATOM     13  C   UNL     1      -3.275  16.187  24.822  0.00  0.00    +0.000 A 
ATOM     14  C   UNL     1      -4.539  16.750  24.953  0.00  0.00    +0.000 A 
ATOM     15  C   UNL     1      -5.551  16.436  24.031  0.00  0.00    +0.000 A 
ATOM     16  C   UNL     1      -5.339  15.489  23.015  0.00  0.00    +0.000 A 
ATOM     17  C   UNL     1      -4.099  14.880  22.932  0.00  0.00    +0.000 A 
ATOM     18  C   UNL     1      -3.610  13.751  22.061  0.00  0.00    +0.000 C 
ATOM     19  H   UNL     1      -2.482  11.610  20.948  0.00  0.00    +0.000 HD
ENDBRANCH   4   7
BRANCH   1  23
ATOM     20  N   UNL     1       3.952   5.437  18.706  0.00  0.00    +0.000 NA
ATOM     21  C   UNL     1       3.807   6.634  17.831  0.00  0.00    +0.000 C 
ATOM     22  C   UNL     1       2.873   7.672  18.377  0.00  0.00    +0.000 C 
ATOM     23  C   UNL     1       2.131   7.566  19.495  0.00  0.00    +0.000 C 
ATOM     24  C   UNL     1       2.248   6.309  20.316  0.00  0.00    +0.000 C 
ATOM     25  C   UNL     1       2.710   5.111  19.467  0.00  0.00    +0.000 C 
BRANCH  20  26
ATOM     26  S   UNL     1       4.634   4.131  17.829  0.00  0.00    +0.000 S 
ATOM     27  O   UNL     1       3.562   3.510  17.076  0.00  0.00    +0.000 OA
ATOM     28  O   UNL     1       5.425   3.354  18.762  0.00  0.00    +0.000 OA
BRANCH  26  30
ATOM     29  C   UNL     1       7.187   4.754  17.140  0.00  0.00    +0.000 C 
ATOM     30  C   UNL     1       5.747   4.915  16.643  0.00  0.00    +0.000 C 
ATOM     31  C   UNL     1       5.607   4.321  15.248  0.00  0.00    +0.000 C 
ENDBRANCH  26  30
ENDBRANCH  20  26
ENDBRANCH   1  23
TORSDOF 4
ENDMDL
MODEL 6
REMARK VINA RESULT:      -7.9      2.297      2.934
REMARK  Name = 
REMARK  6 active torsions:
REMARK  status: ('A' for Active; 'I' for Inactive)
REMARK    1  A    between atoms: C_1  and  C_2
REMARK    2  A    between atoms: C_2  and  C_3
REMARK    3  A    between atoms: C_2  and  S_4
REMARK    4  A    between atoms: S_4  and  N_7
REMARK    5  A    between atoms: C_10  and  C_11
REMARK    6  A    between atoms: C_14  and  N_15
REMARK                            x       y       z     vdW  Elec       q    Type
REMARK                         _______ _______ _______ _____ _____    ______ ____
ROOT
ATOM      1  C   UNL     1       2.428   7.936  18.586  0.00  0.00    +0.000 A 
ATOM      2  C   UNL     1       1.857   8.901  17.757  0.00  0.00    +0.000 A 
ATOM      3  C   UNL     1       0.884   9.794  18.228  0.00  0.00    +0.000 A 
ATOM      4  C   UNL     1       0.416   9.755  19.546  0.00  0.00    +0.000 A 
ATOM      5  C   UNL     1       0.958   8.772  20.378  0.00  0.00    +0.000 A 
ATOM      6  C   UNL     1       1.951   7.874  19.903  0.00  0.00    +0.000 A 
ENDROOT
BRANCH   4   7
ATOM      7  N   UNL     1      -0.557  10.666  20.062  0.00  0.00    +0.000 N 
ATOM      8  C   UNL     1      -0.696  10.981  21.393  0.00  0.00    +0.000 C 
ATOM      9  O   UNL     1       0.054  10.581  22.280  0.00  0.00    +0.000 OA
ATOM     10  N   UNL     1      -1.758  11.760  21.767  0.00  0.00    +0.000 N 
ATOM     11  C   UNL     1      -1.964  11.880  23.208  0.00  0.00    +0.000 C 
ATOM     12  C   UNL     1      -3.234  12.637  23.328  0.00  0.00    +0.000 A 
ATOM     13  C   UNL     1      -3.973  12.863  24.477  0.00  0.00    +0.000 A 
ATOM     14  C   UNL     1      -5.080  13.698  24.385  0.00  0.00    +0.000 A 
ATOM     15  C   UNL     1      -5.396  14.318  23.165  0.00  0.00    +0.000 A 
ATOM     16  C   UNL     1      -4.662  14.043  21.999  0.00  0.00    +0.000 A 
ATOM     17  C   UNL     1      -3.602  13.156  22.083  0.00  0.00    +0.000 A 
ATOM     18  C   UNL     1      -2.725  12.563  21.010  0.00  0.00    +0.000 C 
ATOM     19  H   UNL     1      -1.199  11.082  19.406  0.00  0.00    +0.000 HD
ENDBRANCH   4   7
BRANCH   1  23
ATOM     20  N   UNL     1       5.564   5.246  17.078  0.00  0.00    +0.000 NA
ATOM     21  C   UNL     1       5.388   6.581  16.441  0.00  0.00    +0.000 C 
ATOM     22  C   UNL     1       4.311   7.413  17.071  0.00  0.00    +0.000 C 
ATOM     23  C   UNL     1       3.481   7.027  18.058  0.00  0.00    +0.000 C 
ATOM     24  C   UNL     1       3.640   5.642  18.626  0.00  0.00    +0.000 C 
ATOM     25  C   UNL     1       4.293   4.680  17.618  0.00  0.00    +0.000 C 
BRANCH  20  26
ATOM     26  S   UNL     1       6.447   4.200  16.045  0.00  0.00    +0.000 S 
ATOM     27  O   UNL     1       5.789   2.908  16.073  0.00  0.00    +0.000 OA
ATOM     28  O   UNL     1       7.845   4.323  16.404  0.00  0.00    +0.000 OA
BRANCH  26  30
ATOM     29  C   UNL     1       7.587   5.137  13.764  0.00  0.00    +0.000 C 
ATOM     30  C   UNL     1       6.212   4.892  14.393  0.00  0.00    +0.000 C 
ATOM     31  C   UNL     1       5.385   3.975  13.501  0.00  0.00    +0.000 C 
ENDBRANCH  26  30
ENDBRANCH  20  26
ENDBRANCH   1  23
TORSDOF 4
ENDMDL
MODEL 7
REMARK VINA RESULT:      -7.8      1.045      1.838
REMARK  Name = 
REMARK  6 active torsions:
REMARK  status: ('A' for Active; 'I' for Inactive)
REMARK    1  A    between atoms: C_1  and  C_2
REMARK    2  A    between atoms: C_2  and  C_3
REMARK    3  A    between atoms: C_2  and  S_4
REMARK    4  A    between atoms: S_4  and  N_7
REMARK    5  A    between atoms: C_10  and  C_11
REMARK    6  A    between atoms: C_14  and  N_15
REMARK                            x       y       z     vdW  Elec       q    Type
REMARK                         _______ _______ _______ _____ _____    ______ ____
ROOT
ATOM      1  C   UNL     1       1.231   8.905  19.624  0.00  0.00    +0.000 A 
ATOM      2  C   UNL     1       0.852   9.962  18.796  0.00  0.00    +0.000 A 
ATOM      3  C   UNL     1      -0.023  10.965  19.238  0.00  0.00    +0.000 A 
ATOM      4  C   UNL     1      -0.579  10.953  20.522  0.00  0.00    +0.000 A 
ATOM      5  C   UNL     1      -0.231   9.883  21.349  0.00  0.00    +0.000 A 
ATOM      6  C   UNL     1       0.662   8.872  20.905  0.00  0.00    +0.000 A 
ENDROOT
BRANCH   4   7
ATOM      7  N   UNL     1      -1.454  11.973  21.008  0.00  0.00    +0.000 N 
ATOM      8  C   UNL     1      -1.071  12.982  21.859  0.00  0.00    +0.000 C 
ATOM      9  O   UNL     1       0.085  13.173  22.231  0.00  0.00    +0.000 OA
ATOM     10  N   UNL     1      -2.039  13.812  22.359  0.00  0.00    +0.000 N 
ATOM     11  C   UNL     1      -1.597  14.722  23.412  0.00  0.00    +0.000 C 
ATOM     12  C   UNL     1      -2.845  15.384  23.864  0.00  0.00    +0.000 A 
ATOM     13  C   UNL     1      -3.009  16.203  24.968  0.00  0.00    +0.000 A 
ATOM     14  C   UNL     1      -4.245  16.814  25.146  0.00  0.00    +0.000 A 
ATOM     15  C   UNL     1      -5.267  16.627  24.200  0.00  0.00    +0.000 A 
ATOM     16  C   UNL     1      -5.097  15.758  23.109  0.00  0.00    +0.000 A 
ATOM     17  C   UNL     1      -3.887  15.099  22.976  0.00  0.00    +0.000 A 
ATOM     18  C   UNL     1      -3.450  14.024  22.014  0.00  0.00    +0.000 C 
ATOM     19  H   UNL     1      -2.421  11.930  20.727  0.00  0.00    +0.000 HD
ENDBRANCH   4   7
BRANCH   1  23
ATOM     20  N   UNL     1       4.084   5.868  18.214  0.00  0.00    +0.000 NA
ATOM     21  C   UNL     1       3.875   7.098  17.401  0.00  0.00    +0.000 C 
ATOM     22  C   UNL     1       2.907   8.068  18.009  0.00  0.00    +0.000 C 
ATOM     23  C   UNL     1       2.186   7.876  19.130  0.00  0.00    +0.000 C 
ATOM     24  C   UNL     1       2.368   6.587  19.887  0.00  0.00    +0.000 C 
ATOM     25  C   UNL     1       2.868   5.453  18.975  0.00  0.00    +0.000 C 
BRANCH  20  26
ATOM     26  S   UNL     1       4.807   4.636  17.265  0.00  0.00    +0.000 S 
ATOM     27  O   UNL     1       4.938   5.151  15.916  0.00  0.00    +0.000 OA
ATOM     28  O   UNL     1       4.073   3.413  17.519  0.00  0.00    +0.000 OA
BRANCH  26  30
ATOM     29  C   UNL     1       7.486   4.719  16.825  0.00  0.00    +0.000 C 
ATOM     30  C   UNL     1       6.472   4.462  17.944  0.00  0.00    +0.000 C 
ATOM     31  C   UNL     1       6.719   5.418  19.103  0.00  0.00    +0.000 C 
ENDBRANCH  26  30
ENDBRANCH  20  26
ENDBRANCH   1  23
TORSDOF 4
ENDMDL
MODEL 8
REMARK VINA RESULT:      -7.8      1.123      1.627
REMARK  Name = 
REMARK  6 active torsions:
REMARK  status: ('A' for Active; 'I' for Inactive)
REMARK    1  A    between atoms: C_1  and  C_2
REMARK    2  A    between atoms: C_2  and  C_3
REMARK    3  A    between atoms: C_2  and  S_4
REMARK    4  A    between atoms: S_4  and  N_7
REMARK    5  A    between atoms: C_10  and  C_11
REMARK    6  A    between atoms: C_14  and  N_15
REMARK                            x       y       z     vdW  Elec       q    Type
REMARK                         _______ _______ _______ _____ _____    ______ ____
ROOT
ATOM      1  C   UNL     1       0.899   8.540  20.842  0.00  0.00    +0.000 A 
ATOM      2  C   UNL     1       0.469   9.528  19.955  0.00  0.00    +0.000 A 
ATOM      3  C   UNL     1      -0.229  10.660  20.399  0.00  0.00    +0.000 A 
ATOM      4  C   UNL     1      -0.551  10.854  21.746  0.00  0.00    +0.000 A 
ATOM      5  C   UNL     1      -0.153   9.856  22.639  0.00  0.00    +0.000 A 
ATOM      6  C   UNL     1       0.563   8.714  22.191  0.00  0.00    +0.000 A 
ENDROOT
BRANCH   4   7
ATOM      7  N   UNL     1      -1.241  12.009  22.231  0.00  0.00    +0.000 N 
ATOM      8  C   UNL     1      -0.641  13.219  22.488  0.00  0.00    +0.000 C 
ATOM      9  O   UNL     1       0.538  13.471  22.251  0.00  0.00    +0.000 OA
ATOM     10  N   UNL     1      -1.390  14.200  23.082  0.00  0.00    +0.000 N 
ATOM     11  C   UNL     1      -0.642  15.377  23.516  0.00  0.00    +0.000 C 
ATOM     12  C   UNL     1      -1.646  16.196  24.238  0.00  0.00    +0.000 A 
ATOM     13  C   UNL     1      -1.415  17.326  25.004  0.00  0.00    +0.000 A 
ATOM     14  C   UNL     1      -2.517  18.008  25.504  0.00  0.00    +0.000 A 
ATOM     15  C   UNL     1      -3.817  17.573  25.194  0.00  0.00    +0.000 A 
ATOM     16  C   UNL     1      -4.032  16.400  24.453  0.00  0.00    +0.000 A 
ATOM     17  C   UNL     1      -2.929  15.686  24.016  0.00  0.00    +0.000 A 
ATOM     18  C   UNL     1      -2.828  14.347  23.332  0.00  0.00    +0.000 C 
ATOM     19  H   UNL     1      -2.226  11.917  22.421  0.00  0.00    +0.000 HD
ENDBRANCH   4   7
BRANCH   1  23
ATOM     20  N   UNL     1       3.134   5.078  19.302  0.00  0.00    +0.000 NA
ATOM     21  C   UNL     1       2.446   4.969  20.619  0.00  0.00    +0.000 C 
ATOM     22  C   UNL     1       1.692   6.203  21.011  0.00  0.00    +0.000 C 
ATOM     23  C   UNL     1       1.666   7.369  20.337  0.00  0.00    +0.000 C 
ATOM     24  C   UNL     1       2.435   7.466  19.046  0.00  0.00    +0.000 C 
ATOM     25  C   UNL     1       3.600   6.463  18.996  0.00  0.00    +0.000 C 
BRANCH  20  26
ATOM     26  S   UNL     1       4.326   3.855  19.143  0.00  0.00    +0.000 S 
ATOM     27  O   UNL     1       3.962   2.779  20.045  0.00  0.00    +0.000 OA
ATOM     28  O   UNL     1       5.619   4.500  19.248  0.00  0.00    +0.000 OA
BRANCH  26  30
ATOM     29  C   UNL     1       2.628   3.229  17.118  0.00  0.00    +0.000 C 
ATOM     30  C   UNL     1       4.121   3.242  17.457  0.00  0.00    +0.000 C 
ATOM     31  C   UNL     1       4.880   4.090  16.444  0.00  0.00    +0.000 C 
ENDBRANCH  26  30
ENDBRANCH  20  26
ENDBRANCH   1  23
TORSDOF 4
ENDMDL
MODEL 9
REMARK VINA RESULT:      -7.8      1.876      2.627
REMARK  Name = 
REMARK  6 active torsions:
REMARK  status: ('A' for Active; 'I' for Inactive)
REMARK    1  A    between atoms: C_1  and  C_2
REMARK    2  A    between atoms: C_2  and  C_3
REMARK    3  A    between atoms: C_2  and  S_4
REMARK    4  A    between atoms: S_4  and  N_7
REMARK    5  A    between atoms: C_10  and  C_11
REMARK    6  A    between atoms: C_14  and  N_15
REMARK                            x       y       z     vdW  Elec       q    Type
REMARK                         _______ _______ _______ _____ _____    ______ ____
ROOT
ATOM      1  C   UNL     1       0.727   9.263  20.904  0.00  0.00    +0.000 A 
ATOM      2  C   UNL     1       0.647  10.507  20.276  0.00  0.00    +0.000 A 
ATOM      3  C   UNL     1       0.082  11.619  20.916  0.00  0.00    +0.000 A 
ATOM      4  C   UNL     1      -0.449  11.542  22.208  0.00  0.00    +0.000 A 
ATOM      5  C   UNL     1      -0.402  10.294  22.835  0.00  0.00    +0.000 A 
ATOM      6  C   UNL     1       0.179   9.170  22.190  0.00  0.00    +0.000 A 
ENDROOT
BRANCH   4   7
ATOM      7  N   UNL     1      -1.009  12.663  22.896  0.00  0.00    +0.000 N 
ATOM      8  C   UNL     1      -2.351  12.834  23.134  0.00  0.00    +0.000 C 
ATOM      9  O   UNL     1      -3.215  12.003  22.860  0.00  0.00    +0.000 OA
ATOM     10  N   UNL     1      -2.767  14.020  23.679  0.00  0.00    +0.000 N 
ATOM     11  C   UNL     1      -4.213  14.217  23.711  0.00  0.00    +0.000 C 
ATOM     12  C   UNL     1      -4.377  15.607  24.202  0.00  0.00    +0.000 A 
ATOM     13  C   UNL     1      -5.543  16.353  24.243  0.00  0.00    +0.000 A 
ATOM     14  C   UNL     1      -5.495  17.602  24.849  0.00  0.00    +0.000 A 
ATOM     15  C   UNL     1      -4.301  18.057  25.434  0.00  0.00    +0.000 A 
ATOM     16  C   UNL     1      -3.118  17.307  25.345  0.00  0.00    +0.000 A 
ATOM     17  C   UNL     1      -3.156  16.094  24.679  0.00  0.00    +0.000 A 
ATOM     18  C   UNL     1      -2.052  15.139  24.303  0.00  0.00    +0.000 C 
ATOM     19  H   UNL     1      -0.376  13.386  23.200  0.00  0.00    +0.000 HD
ENDBRANCH   4   7
BRANCH   1  23
ATOM     20  N   UNL     1       2.562   5.866  18.795  0.00  0.00    +0.000 NA
ATOM     21  C   UNL     1       2.257   5.738  20.248  0.00  0.00    +0.000 C 
ATOM     22  C   UNL     1       1.601   6.950  20.837  0.00  0.00    +0.000 C 
ATOM     23  C   UNL     1       1.362   8.114  20.203  0.00  0.00    +0.000 C 
ATOM     24  C   UNL     1       1.753   8.233  18.754  0.00  0.00    +0.000 C 
ATOM     25  C   UNL     1       2.890   7.264  18.385  0.00  0.00    +0.000 C 
BRANCH  20  26
ATOM     26  S   UNL     1       3.700   4.678  18.313  0.00  0.00    +0.000 S 
ATOM     27  O   UNL     1       4.339   4.179  19.515  0.00  0.00    +0.000 OA
ATOM     28  O   UNL     1       4.491   5.251  17.243  0.00  0.00    +0.000 OA
BRANCH  26  30
ATOM     29  C   UNL     1       3.420   2.012  17.879  0.00  0.00    +0.000 C 
ATOM     30  C   UNL     1       2.696   3.339  17.636  0.00  0.00    +0.000 C 
ATOM     31  C   UNL     1       1.305   3.297  18.256  0.00  0.00    +0.000 C 
ENDBRANCH  26  30
ENDBRANCH  20  26
ENDBRANCH   1  23
TORSDOF 4
ENDMDL
