MODEL 1
REMARK VINA RESULT:      -7.7      0.000      0.000
REMARK  Name = 
REMARK  11 active torsions:
REMARK  status: ('A' for Active; 'I' for Inactive)
REMARK    1  A    between atoms: C_1  and  C_2
REMARK    2  A    between atoms: C_2  and  C_3
REMARK    3  A    between atoms: C_3  and  S_4
REMARK    4  A    between atoms: S_4  and  C_5
REMARK    5  A    between atoms: C_5  and  C_6
REMARK    6  A    between atoms: C_6  and  C_7
REMARK    7  A    between atoms: C_7  and  N_8
REMARK    8  A    between atoms: C_9  and  C_11
REMARK    9  A    between atoms: C_11  and  N_12
REMARK   10  A    between atoms: C_19  and  C_20
REMARK   11  A    between atoms: N_22  and  C_23
REMARK                            x       y       z     vdW  Elec       q    Type
REMARK                         _______ _______ _______ _____ _____    ______ ____
ROOT
ATOM      1  N   UNL     1      -0.061  10.542  19.515  0.00  0.00    +0.000 N 
ATOM      2  C   UNL     1      -0.527  11.009  20.787  0.00  0.00    +0.000 C 
ATOM      3  O   UNL     1      -1.254  11.995  20.795  0.00  0.00    +0.000 OA
ATOM      4  C   UNL     1      -0.102  10.301  22.055  0.00  0.00    +0.000 C 
ATOM      5  C   UNL     1       0.745   9.041  21.917  0.00  0.00    +0.000 C 
ATOM      6  N   UNL     1       1.170   8.744  20.576  0.00  0.00    +0.000 N 
ATOM      7  N   UNL     1       1.951   7.690  20.298  0.00  0.00    +0.000 NA
ATOM      8  C   UNL     1       2.142   7.791  18.972  0.00  0.00    +0.000 A 
ATOM      9  C   UNL     1       1.417   8.873  18.417  0.00  0.00    +0.000 A 
ATOM     10  C   UNL     1       0.791   9.457  19.485  0.00  0.00    +0.000 A 
ENDROOT
BRANCH   8  11
ATOM     11  C   UNL     1       2.947   6.847  18.190  0.00  0.00    +0.000 A 
ATOM     12  C   UNL     1       4.098   7.148  17.493  0.00  0.00    +0.000 A 
ATOM     13  N   UNL     1       4.565   5.992  16.929  0.00  0.00    +0.000 N 
ATOM     14  C   UNL     1       5.716   5.902  16.057  0.00  0.00    +0.000 C 
ATOM     15  C   UNL     1       3.770   4.925  17.294  0.00  0.00    +0.000 A 
ATOM     16  C   UNL     1       3.894   3.553  17.018  0.00  0.00    +0.000 A 
ATOM     17  C   UNL     1       2.909   2.689  17.499  0.00  0.00    +0.000 A 
ATOM     18  C   UNL     1       1.811   3.179  18.194  0.00  0.00    +0.000 A 
ATOM     19  C   UNL     1       1.690   4.548  18.455  0.00  0.00    +0.000 A 
ATOM     20  C   UNL     1       2.703   5.444  18.039  0.00  0.00    +0.000 A 
ENDBRANCH   8  11
BRANCH   1  21
ATOM     21  C   UNL     1      -0.486  11.254  18.296  0.00  0.00    +0.000 C 
BRANCH  21  23
ATOM     22  N   UNL     1      -2.929  11.307  18.163  0.00  0.00    +0.000 N 
ATOM     23  C   UNL     1      -1.780  10.664  17.751  0.00  0.00    +0.000 C 
ATOM     24  O   UNL     1      -1.779   9.701  16.986  0.00  0.00    +0.000 OA
ATOM     25  H   UNL     1      -2.853  12.164  18.704  0.00  0.00    +0.000 HD
BRANCH  22  26
ATOM     26  C   UNL     1      -4.254  10.842  17.794  0.00  0.00    +0.000 C 
BRANCH  26  27
ATOM     27  C   UNL     1      -5.024  11.865  16.958  0.00  0.00    +0.000 C 
BRANCH  27  28
ATOM     28  C   UNL     1      -6.292  12.360  17.656  0.00  0.00    +0.000 C 
BRANCH  28  29
ATOM     29  S   UNL     1      -5.886  12.828  19.367  0.00  0.00    +0.000 S 
BRANCH  29  30
ATOM     30  C   UNL     1      -7.554  12.786  20.101  0.00  0.00    +0.000 C 
BRANCH  30  32
ATOM     31  C   UNL     1      -7.533  10.294  20.503  0.00  0.00    +0.000 C 
ATOM     32  C   UNL     1      -7.612  11.669  21.143  0.00  0.00    +0.000 C 
ENDBRANCH  30  32
ENDBRANCH  29  30
ENDBRANCH  28  29
ENDBRANCH  27  28
ENDBRANCH  26  27
ENDBRANCH  22  26
ENDBRANCH  21  23
ENDBRANCH   1  21
TORSDOF 9
ENDMDL
MODEL 2
REMARK VINA RESULT:      -7.5      0.994      1.545
REMARK  Name = 
REMARK  11 active torsions:
REMARK  status: ('A' for Active; 'I' for Inactive)
REMARK    1  A    between atoms: C_1  and  C_2
REMARK    2  A    between atoms: C_2  and  C_3
REMARK    3  A    between atoms: C_3  and  S_4
REMARK    4  A    between atoms: S_4  and  C_5
REMARK    5  A    between atoms: C_5  and  C_6
REMARK    6  A    between atoms: C_6  and  C_7
REMARK    7  A    between atoms: C_7  and  N_8
REMARK    8  A    between atoms: C_9  and  C_11
REMARK    9  A    between atoms: C_11  and  N_12
REMARK   10  A    between atoms: C_19  and  C_20
REMARK   11  A    between atoms: N_22  and  C_23
REMARK                            x       y       z     vdW  Elec       q    Type
REMARK                         _______ _______ _______ _____ _____    ______ ____
ROOT
ATOM      1  N   UNL     1      -0.057  10.571  19.659  0.00  0.00    +0.000 N 
ATOM      2  C   UNL     1      -0.508  11.020  20.942  0.00  0.00    +0.000 C 
ATOM      3  O   UNL     1      -1.228  12.011  20.974  0.00  0.00    +0.000 OA
ATOM      4  C   UNL     1      -0.076  10.289  22.195  0.00  0.00    +0.000 C 
ATOM      5  C   UNL     1       0.761   9.026  22.028  0.00  0.00    +0.000 C 
ATOM      6  N   UNL     1       1.172   8.748  20.679  0.00  0.00    +0.000 N 
ATOM      7  N   UNL     1       1.943   7.694  20.376  0.00  0.00    +0.000 NA
ATOM      8  C   UNL     1       2.123   7.814  19.051  0.00  0.00    +0.000 A 
ATOM      9  C   UNL     1       1.400   8.911  18.521  0.00  0.00    +0.000 A 
ATOM     10  C   UNL     1       0.787   9.482  19.604  0.00  0.00    +0.000 A 
ENDROOT
BRANCH   8  11
ATOM     11  C   UNL     1       2.914   6.879  18.246  0.00  0.00    +0.000 A 
ATOM     12  C   UNL     1       4.051   7.187  17.530  0.00  0.00    +0.000 A 
ATOM     13  N   UNL     1       4.509   6.036  16.948  0.00  0.00    +0.000 N 
ATOM     14  C   UNL     1       5.643   5.954  16.053  0.00  0.00    +0.000 C 
ATOM     15  C   UNL     1       3.722   4.965  17.319  0.00  0.00    +0.000 A 
ATOM     16  C   UNL     1       3.843   3.596  17.030  0.00  0.00    +0.000 A 
ATOM     17  C   UNL     1       2.868   2.726  17.522  0.00  0.00    +0.000 A 
ATOM     18  C   UNL     1       1.783   3.209  18.242  0.00  0.00    +0.000 A 
ATOM     19  C   UNL     1       1.665   4.576  18.516  0.00  0.00    +0.000 A 
ATOM     20  C   UNL     1       2.669   5.477  18.088  0.00  0.00    +0.000 A 
ENDBRANCH   8  11
BRANCH   1  21
ATOM     21  C   UNL     1      -0.489  11.305  18.455  0.00  0.00    +0.000 C 
BRANCH  21  23
ATOM     22  N   UNL     1      -2.923  11.166  18.246  0.00  0.00    +0.000 N 
ATOM     23  C   UNL     1      -1.713  10.647  17.833  0.00  0.00    +0.000 C 
ATOM     24  O   UNL     1      -1.611   9.738  17.011  0.00  0.00    +0.000 OA
ATOM     25  H   UNL     1      -2.934  11.991  18.841  0.00  0.00    +0.000 HD
BRANCH  22  26
ATOM     26  C   UNL     1      -4.194  10.619  17.807  0.00  0.00    +0.000 C 
BRANCH  26  27
ATOM     27  C   UNL     1      -5.294  11.678  17.729  0.00  0.00    +0.000 C 
BRANCH  27  28
ATOM     28  C   UNL     1      -5.426  12.484  19.021  0.00  0.00    +0.000 C 
BRANCH  28  29
ATOM     29  S   UNL     1      -7.187  12.617  19.463  0.00  0.00    +0.000 S 
BRANCH  29  30
ATOM     30  C   UNL     1      -7.798  13.542  18.016  0.00  0.00    +0.000 C 
BRANCH  30  32
ATOM     31  C   UNL     1      -7.057  15.393  16.469  0.00  0.00    +0.000 C 
ATOM     32  C   UNL     1      -7.003  14.839  17.882  0.00  0.00    +0.000 C 
ENDBRANCH  30  32
ENDBRANCH  29  30
ENDBRANCH  28  29
ENDBRANCH  27  28
ENDBRANCH  26  27
ENDBRANCH  22  26
ENDBRANCH  21  23
ENDBRANCH   1  21
TORSDOF 9
ENDMDL
MODEL 3
REMARK VINA RESULT:      -7.4      0.989      1.134
REMARK  Name = 
REMARK  11 active torsions:
REMARK  status: ('A' for Active; 'I' for Inactive)
REMARK    1  A    between atoms: C_1  and  C_2
REMARK    2  A    between atoms: C_2  and  C_3
REMARK    3  A    between atoms: C_3  and  S_4
REMARK    4  A    between atoms: S_4  and  C_5
REMARK    5  A    between atoms: C_5  and  C_6
REMARK    6  A    between atoms: C_6  and  C_7
REMARK    7  A    between atoms: C_7  and  N_8
REMARK    8  A    between atoms: C_9  and  C_11
REMARK    9  A    between atoms: C_11  and  N_12
REMARK   10  A    between atoms: C_19  and  C_20
REMARK   11  A    between atoms: N_22  and  C_23
REMARK                            x       y       z     vdW  Elec       q    Type
REMARK                         _______ _______ _______ _____ _____    ______ ____
ROOT
ATOM      1  N   UNL     1      -0.073  10.640  19.648  0.00  0.00    +0.000 N 
ATOM      2  C   UNL     1      -0.526  11.089  20.931  0.00  0.00    +0.000 C 
ATOM      3  O   UNL     1      -1.238  12.085  20.963  0.00  0.00    +0.000 OA
ATOM      4  C   UNL     1      -0.105  10.351  22.184  0.00  0.00    +0.000 C 
ATOM      5  C   UNL     1       0.723   9.081  22.016  0.00  0.00    +0.000 C 
ATOM      6  N   UNL     1       1.137   8.804  20.668  0.00  0.00    +0.000 N 
ATOM      7  N   UNL     1       1.901   7.745  20.366  0.00  0.00    +0.000 NA
ATOM      8  C   UNL     1       2.087   7.868  19.041  0.00  0.00    +0.000 A 
ATOM      9  C   UNL     1       1.375   8.971  18.511  0.00  0.00    +0.000 A 
ATOM     10  C   UNL     1       0.763   9.544  19.593  0.00  0.00    +0.000 A 
ENDROOT
BRANCH   8  11
ATOM     11  C   UNL     1       2.875   6.928  18.237  0.00  0.00    +0.000 A 
ATOM     12  C   UNL     1       4.002   7.235  17.505  0.00  0.00    +0.000 A 
ATOM     13  N   UNL     1       4.460   6.081  16.930  0.00  0.00    +0.000 N 
ATOM     14  C   UNL     1       5.584   5.996  16.023  0.00  0.00    +0.000 C 
ATOM     15  C   UNL     1       3.682   5.010  17.320  0.00  0.00    +0.000 A 
ATOM     16  C   UNL     1       3.807   3.638  17.043  0.00  0.00    +0.000 A 
ATOM     17  C   UNL     1       2.842   2.769  17.554  0.00  0.00    +0.000 A 
ATOM     18  C   UNL     1       1.763   3.253  18.281  0.00  0.00    +0.000 A 
ATOM     19  C   UNL     1       1.641   4.622  18.543  0.00  0.00    +0.000 A 
ATOM     20  C   UNL     1       2.635   5.524  18.095  0.00  0.00    +0.000 A 
ENDBRANCH   8  11
BRANCH   1  21
ATOM     21  C   UNL     1      -0.494  11.381  18.445  0.00  0.00    +0.000 C 
BRANCH  21  23
ATOM     22  N   UNL     1      -2.909  11.726  18.248  0.00  0.00    +0.000 N 
ATOM     23  C   UNL     1      -1.850  10.890  17.958  0.00  0.00    +0.000 C 
ATOM     24  O   UNL     1      -1.971   9.837  17.334  0.00  0.00    +0.000 OA
ATOM     25  H   UNL     1      -2.725  12.635  18.666  0.00  0.00    +0.000 HD
BRANCH  22  26
ATOM     26  C   UNL     1      -4.281  11.387  17.917  0.00  0.00    +0.000 C 
BRANCH  26  27
ATOM     27  C   UNL     1      -5.288  12.383  18.493  0.00  0.00    +0.000 C 
BRANCH  27  28
ATOM     28  C   UNL     1      -5.474  12.224  20.002  0.00  0.00    +0.000 C 
BRANCH  28  29
ATOM     29  S   UNL     1      -4.785  13.682  20.845  0.00  0.00    +0.000 S 
BRANCH  29  30
ATOM     30  C   UNL     1      -6.152  14.048  21.994  0.00  0.00    +0.000 C 
BRANCH  30  32
ATOM     31  C   UNL     1      -7.692  12.425  23.162  0.00  0.00    +0.000 C 
ATOM     32  C   UNL     1      -6.262  12.915  23.013  0.00  0.00    +0.000 C 
ENDBRANCH  30  32
ENDBRANCH  29  30
ENDBRANCH  28  29
ENDBRANCH  27  28
ENDBRANCH  26  27
ENDBRANCH  22  26
ENDBRANCH  21  23
ENDBRANCH   1  21
TORSDOF 9
ENDMDL
MODEL 4
REMARK VINA RESULT:      -7.2      1.468      1.679
REMARK  Name = 
REMARK  11 active torsions:
REMARK  status: ('A' for Active; 'I' for Inactive)
REMARK    1  A    between atoms: C_1  and  C_2
REMARK    2  A    between atoms: C_2  and  C_3
REMARK    3  A    between atoms: C_3  and  S_4
REMARK    4  A    between atoms: S_4  and  C_5
REMARK    5  A    between atoms: C_5  and  C_6
REMARK    6  A    between atoms: C_6  and  C_7
REMARK    7  A    between atoms: C_7  and  N_8
REMARK    8  A    between atoms: C_9  and  C_11
REMARK    9  A    between atoms: C_11  and  N_12
REMARK   10  A    between atoms: C_19  and  C_20
REMARK   11  A    between atoms: N_22  and  C_23
REMARK                            x       y       z     vdW  Elec       q    Type
REMARK                         _______ _______ _______ _____ _____    ______ ____
ROOT
ATOM      1  N   UNL     1      -0.331  11.012  19.895  0.00  0.00    +0.000 N 
ATOM      2  C   UNL     1      -0.948  11.630  21.031  0.00  0.00    +0.000 C 
ATOM      3  O   UNL     1      -1.554  12.678  20.846  0.00  0.00    +0.000 OA
ATOM      4  C   UNL     1      -0.817  10.998  22.400  0.00  0.00    +0.000 C 
ATOM      5  C   UNL     1      -0.101   9.655  22.498  0.00  0.00    +0.000 C 
ATOM      6  N   UNL     1       0.505   9.204  21.275  0.00  0.00    +0.000 N 
ATOM      7  N   UNL     1       1.201   8.060  21.210  0.00  0.00    +0.000 NA
ATOM      8  C   UNL     1       1.619   8.026  19.934  0.00  0.00    +0.000 A 
ATOM      9  C   UNL     1       1.117   9.121  19.188  0.00  0.00    +0.000 A 
ATOM     10  C   UNL     1       0.390   9.853  20.089  0.00  0.00    +0.000 A 
ENDROOT
BRANCH   8  11
ATOM     11  C   UNL     1       2.434   6.946  19.371  0.00  0.00    +0.000 A 
ATOM     12  C   UNL     1       3.306   7.059  18.309  0.00  0.00    +0.000 A 
ATOM     13  N   UNL     1       3.898   5.840  18.117  0.00  0.00    +0.000 N 
ATOM     14  C   UNL     1       4.824   5.527  17.049  0.00  0.00    +0.000 C 
ATOM     15  C   UNL     1       3.469   4.943  19.073  0.00  0.00    +0.000 A 
ATOM     16  C   UNL     1       3.847   3.611  19.315  0.00  0.00    +0.000 A 
ATOM     17  C   UNL     1       3.216   2.922  20.352  0.00  0.00    +0.000 A 
ATOM     18  C   UNL     1       2.210   3.523  21.096  0.00  0.00    +0.000 A 
ATOM     19  C   UNL     1       1.832   4.846  20.841  0.00  0.00    +0.000 A 
ATOM     20  C   UNL     1       2.496   5.595  19.841  0.00  0.00    +0.000 A 
ENDBRANCH   8  11
BRANCH   1  21
ATOM     21  C   UNL     1      -0.469  11.653  18.574  0.00  0.00    +0.000 C 
BRANCH  21  23
ATOM     22  N   UNL     1      -2.784  11.966  17.843  0.00  0.00    +0.000 N 
ATOM     23  C   UNL     1      -1.694  11.120  17.843  0.00  0.00    +0.000 C 
ATOM     24  O   UNL     1      -1.686  10.026  17.281  0.00  0.00    +0.000 OA
ATOM     25  H   UNL     1      -2.687  12.903  18.228  0.00  0.00    +0.000 HD
BRANCH  22  26
ATOM     26  C   UNL     1      -4.056  11.595  17.250  0.00  0.00    +0.000 C 
BRANCH  26  27
ATOM     27  C   UNL     1      -4.962  10.844  18.227  0.00  0.00    +0.000 C 
BRANCH  27  28
ATOM     28  C   UNL     1      -6.421  11.293  18.138  0.00  0.00    +0.000 C 
BRANCH  28  29
ATOM     29  S   UNL     1      -7.166  11.230  19.798  0.00  0.00    +0.000 S 
BRANCH  29  30
ATOM     30  C   UNL     1      -6.691  12.879  20.411  0.00  0.00    +0.000 C 
BRANCH  30  32
ATOM     31  C   UNL     1      -5.792  14.085  22.438  0.00  0.00    +0.000 C 
ATOM     32  C   UNL     1      -6.075  12.735  21.802  0.00  0.00    +0.000 C 
ENDBRANCH  30  32
ENDBRANCH  29  30
ENDBRANCH  28  29
ENDBRANCH  27  28
ENDBRANCH  26  27
ENDBRANCH  22  26
ENDBRANCH  21  23
ENDBRANCH   1  21
TORSDOF 9
ENDMDL
MODEL 5
REMARK VINA RESULT:      -7.1      1.262      2.301
REMARK  Name = 
REMARK  11 active torsions:
REMARK  status: ('A' for Active; 'I' for Inactive)
REMARK    1  A    between atoms: C_1  and  C_2
REMARK    2  A    between atoms: C_2  and  C_3
REMARK    3  A    between atoms: C_3  and  S_4
REMARK    4  A    between atoms: S_4  and  C_5
REMARK    5  A    between atoms: C_5  and  C_6
REMARK    6  A    between atoms: C_6  and  C_7
REMARK    7  A    between atoms: C_7  and  N_8
REMARK    8  A    between atoms: C_9  and  C_11
REMARK    9  A    between atoms: C_11  and  N_12
REMARK   10  A    between atoms: C_19  and  C_20
REMARK   11  A    between atoms: N_22  and  C_23
REMARK                            x       y       z     vdW  Elec       q    Type
REMARK                         _______ _______ _______ _____ _____    ______ ____
ROOT
ATOM      1  N   UNL     1       0.688  10.502  19.995  0.00  0.00    +0.000 N 
ATOM      2  C   UNL     1       0.133  11.111  21.167  0.00  0.00    +0.000 C 
ATOM      3  O   UNL     1      -0.225  12.279  21.082  0.00  0.00    +0.000 OA
ATOM      4  C   UNL     1       0.025  10.319  22.452  0.00  0.00    +0.000 C 
ATOM      5  C   UNL     1       0.434   8.850  22.418  0.00  0.00    +0.000 C 
ATOM      6  N   UNL     1       1.021   8.415  21.180  0.00  0.00    +0.000 N 
ATOM      7  N   UNL     1       1.465   7.162  21.009  0.00  0.00    +0.000 NA
ATOM      8  C   UNL     1       1.960   7.179  19.760  0.00  0.00    +0.000 A 
ATOM      9  C   UNL     1       1.756   8.432  19.132  0.00  0.00    +0.000 A 
ATOM     10  C   UNL     1       1.134   9.200  20.079  0.00  0.00    +0.000 A 
ENDROOT
BRANCH   8  11
ATOM     11  C   UNL     1       2.570   6.016  19.108  0.00  0.00    +0.000 A 
ATOM     12  C   UNL     1       2.290   4.694  19.382  0.00  0.00    +0.000 A 
ATOM     13  N   UNL     1       3.039   3.920  18.537  0.00  0.00    +0.000 N 
ATOM     14  C   UNL     1       3.083   2.474  18.560  0.00  0.00    +0.000 C 
ATOM     15  C   UNL     1       3.763   4.715  17.674  0.00  0.00    +0.000 A 
ATOM     16  C   UNL     1       4.608   4.374  16.604  0.00  0.00    +0.000 A 
ATOM     17  C   UNL     1       5.245   5.403  15.909  0.00  0.00    +0.000 A 
ATOM     18  C   UNL     1       5.082   6.727  16.293  0.00  0.00    +0.000 A 
ATOM     19  C   UNL     1       4.248   7.057  17.366  0.00  0.00    +0.000 A 
ATOM     20  C   UNL     1       3.536   6.045  18.052  0.00  0.00    +0.000 A 
ENDBRANCH   8  11
BRANCH   1  21
ATOM     21  C   UNL     1       0.786  11.299  18.758  0.00  0.00    +0.000 C 
BRANCH  21  23
ATOM     22  N   UNL     1      -0.957  10.152  17.479  0.00  0.00    +0.000 N 
ATOM     23  C   UNL     1      -0.557  11.348  18.041  0.00  0.00    +0.000 C 
ATOM     24  O   UNL     1      -1.229  12.376  17.995  0.00  0.00    +0.000 OA
ATOM     25  H   UNL     1      -0.408   9.313  17.650  0.00  0.00    +0.000 HD
BRANCH  22  26
ATOM     26  C   UNL     1      -2.178  10.029  16.703  0.00  0.00    +0.000 C 
BRANCH  26  27
ATOM     27  C   UNL     1      -3.423   9.909  17.582  0.00  0.00    +0.000 C 
BRANCH  27  28
ATOM     28  C   UNL     1      -4.445  11.012  17.307  0.00  0.00    +0.000 C 
BRANCH  28  29
ATOM     29  S   UNL     1      -4.766  11.925  18.849  0.00  0.00    +0.000 S 
BRANCH  29  30
ATOM     30  C   UNL     1      -6.230  12.885  18.339  0.00  0.00    +0.000 C 
BRANCH  30  32
ATOM     31  C   UNL     1      -7.107  11.193  19.994  0.00  0.00    +0.000 C 
ATOM     32  C   UNL     1      -7.453  12.366  19.094  0.00  0.00    +0.000 C 
ENDBRANCH  30  32
ENDBRANCH  29  30
ENDBRANCH  28  29
ENDBRANCH  27  28
ENDBRANCH  26  27
ENDBRANCH  22  26
ENDBRANCH  21  23
ENDBRANCH   1  21
TORSDOF 9
ENDMDL
MODEL 6
REMARK VINA RESULT:      -7.1      4.903      9.681
REMARK  Name = 
REMARK  11 active torsions:
REMARK  status: ('A' for Active; 'I' for Inactive)
REMARK    1  A    between atoms: C_1  and  C_2
REMARK    2  A    between atoms: C_2  and  C_3
REMARK    3  A    between atoms: C_3  and  S_4
REMARK    4  A    between atoms: S_4  and  C_5
REMARK    5  A    between atoms: C_5  and  C_6
REMARK    6  A    between atoms: C_6  and  C_7
REMARK    7  A    between atoms: C_7  and  N_8
REMARK    8  A    between atoms: C_9  and  C_11
REMARK    9  A    between atoms: C_11  and  N_12
REMARK   10  A    between atoms: C_19  and  C_20
REMARK   11  A    between atoms: N_22  and  C_23
REMARK                            x       y       z     vdW  Elec       q    Type
REMARK                         _______ _______ _______ _____ _____    ______ ____
ROOT
ATOM      1  N   UNL     1       3.018   3.854  18.302  0.00  0.00    +0.000 N 
ATOM      2  C   UNL     1       3.173   2.600  18.979  0.00  0.00    +0.000 C 
ATOM      3  O   UNL     1       3.527   1.637  18.311  0.00  0.00    +0.000 OA
ATOM      4  C   UNL     1       2.881   2.499  20.461  0.00  0.00    +0.000 C 
ATOM      5  C   UNL     1       2.518   3.780  21.203  0.00  0.00    +0.000 C 
ATOM      6  N   UNL     1       2.352   4.937  20.366  0.00  0.00    +0.000 N 
ATOM      7  N   UNL     1       1.997   6.129  20.867  0.00  0.00    +0.000 NA
ATOM      8  C   UNL     1       1.918   6.909  19.777  0.00  0.00    +0.000 A 
ATOM      9  C   UNL     1       2.295   6.212  18.603  0.00  0.00    +0.000 A 
ATOM     10  C   UNL     1       2.582   4.943  19.028  0.00  0.00    +0.000 A 
ENDROOT
BRANCH   8  11
ATOM     11  C   UNL     1       1.554   8.329  19.814  0.00  0.00    +0.000 A 
ATOM     12  C   UNL     1       1.772   9.248  18.810  0.00  0.00    +0.000 A 
ATOM     13  N   UNL     1       1.257  10.449  19.217  0.00  0.00    +0.000 N 
ATOM     14  C   UNL     1       1.352  11.686  18.472  0.00  0.00    +0.000 C 
ATOM     15  C   UNL     1       0.654  10.318  20.451  0.00  0.00    +0.000 A 
ATOM     16  C   UNL     1      -0.059  11.249  21.225  0.00  0.00    +0.000 A 
ATOM     17  C   UNL     1      -0.542  10.843  22.470  0.00  0.00    +0.000 A 
ATOM     18  C   UNL     1      -0.288   9.564  22.949  0.00  0.00    +0.000 A 
ATOM     19  C   UNL     1       0.432   8.648  22.175  0.00  0.00    +0.000 A 
ATOM     20  C   UNL     1       0.881   9.005  20.882  0.00  0.00    +0.000 A 
ENDBRANCH   8  11
BRANCH   1  21
ATOM     21  C   UNL     1       3.304   3.923  16.857  0.00  0.00    +0.000 C 
BRANCH  21  23
ATOM     22  N   UNL     1       5.743   3.835  16.678  0.00  0.00    +0.000 N 
ATOM     23  C   UNL     1       4.624   4.639  16.603  0.00  0.00    +0.000 C 
ATOM     24  O   UNL     1       4.667   5.838  16.332  0.00  0.00    +0.000 OA
ATOM     25  H   UNL     1       5.629   2.832  16.795  0.00  0.00    +0.000 HD
BRANCH  22  26
ATOM     26  C   UNL     1       7.088   4.361  16.527  0.00  0.00    +0.000 C 
BRANCH  26  27
ATOM     27  C   UNL     1       7.811   4.517  17.866  0.00  0.00    +0.000 C 
BRANCH  27  28
ATOM     28  C   UNL     1       7.144   5.549  18.777  0.00  0.00    +0.000 C 
BRANCH  28  29
ATOM     29  S   UNL     1       8.224   7.008  18.914  0.00  0.00    +0.000 S 
BRANCH  29  30
ATOM     30  C   UNL     1       7.525   8.033  17.578  0.00  0.00    +0.000 C 
BRANCH  30  32
ATOM     31  C   UNL     1       8.958   9.626  18.913  0.00  0.00    +0.000 C 
ATOM     32  C   UNL     1       8.145   9.429  17.645  0.00  0.00    +0.000 C 
ENDBRANCH  30  32
ENDBRANCH  29  30
ENDBRANCH  28  29
ENDBRANCH  27  28
ENDBRANCH  26  27
ENDBRANCH  22  26
ENDBRANCH  21  23
ENDBRANCH   1  21
TORSDOF 9
ENDMDL
MODEL 7
REMARK VINA RESULT:      -7.1      3.428      4.719
REMARK  Name = 
REMARK  11 active torsions:
REMARK  status: ('A' for Active; 'I' for Inactive)
REMARK    1  A    between atoms: C_1  and  C_2
REMARK    2  A    between atoms: C_2  and  C_3
REMARK    3  A    between atoms: C_3  and  S_4
REMARK    4  A    between atoms: S_4  and  C_5
REMARK    5  A    between atoms: C_5  and  C_6
REMARK    6  A    between atoms: C_6  and  C_7
REMARK    7  A    between atoms: C_7  and  N_8
REMARK    8  A    between atoms: C_9  and  C_11
REMARK    9  A    between atoms: C_11  and  N_12
REMARK   10  A    between atoms: C_19  and  C_20
REMARK   11  A    between atoms: N_22  and  C_23
REMARK                            x       y       z     vdW  Elec       q    Type
REMARK                         _______ _______ _______ _____ _____    ______ ____
ROOT
ATOM      1  N   UNL     1      -0.025  10.525  19.734  0.00  0.00    +0.000 N 
ATOM      2  C   UNL     1      -0.447  10.973  21.028  0.00  0.00    +0.000 C 
ATOM      3  O   UNL     1      -1.169  11.960  21.077  0.00  0.00    +0.000 OA
ATOM      4  C   UNL     1       0.016  10.242  22.270  0.00  0.00    +0.000 C 
ATOM      5  C   UNL     1       0.854   8.981  22.082  0.00  0.00    +0.000 C 
ATOM      6  N   UNL     1       1.234   8.706  20.724  0.00  0.00    +0.000 N 
ATOM      7  N   UNL     1       2.001   7.654  20.402  0.00  0.00    +0.000 NA
ATOM      8  C   UNL     1       2.148   7.776  19.073  0.00  0.00    +0.000 A 
ATOM      9  C   UNL     1       1.410   8.870  18.561  0.00  0.00    +0.000 A 
ATOM     10  C   UNL     1       0.821   9.439  19.658  0.00  0.00    +0.000 A 
ENDROOT
BRANCH   8  11
ATOM     11  C   UNL     1       2.923   6.843  18.249  0.00  0.00    +0.000 A 
ATOM     12  C   UNL     1       4.046   7.154  17.511  0.00  0.00    +0.000 A 
ATOM     13  N   UNL     1       4.492   6.005  16.917  0.00  0.00    +0.000 N 
ATOM     14  C   UNL     1       5.608   5.927  15.999  0.00  0.00    +0.000 C 
ATOM     15  C   UNL     1       3.712   4.933  17.299  0.00  0.00    +0.000 A 
ATOM     16  C   UNL     1       3.827   3.565  17.003  0.00  0.00    +0.000 A 
ATOM     17  C   UNL     1       2.863   2.693  17.511  0.00  0.00    +0.000 A 
ATOM     18  C   UNL     1       1.793   3.174  18.255  0.00  0.00    +0.000 A 
ATOM     19  C   UNL     1       1.680   4.539  18.536  0.00  0.00    +0.000 A 
ATOM     20  C   UNL     1       2.675   5.442  18.091  0.00  0.00    +0.000 A 
ENDBRANCH   8  11
BRANCH   1  21
ATOM     21  C   UNL     1      -0.487  11.259  18.542  0.00  0.00    +0.000 C 
BRANCH  21  23
ATOM     22  N   UNL     1       1.638  12.432  18.231  0.00  0.00    +0.000 N 
ATOM     23  C   UNL     1       0.274  12.569  18.387  0.00  0.00    +0.000 C 
ATOM     24  O   UNL     1      -0.303  13.655  18.382  0.00  0.00    +0.000 OA
ATOM     25  H   UNL     1       2.037  11.502  18.132  0.00  0.00    +0.000 HD
BRANCH  22  26
ATOM     26  C   UNL     1       2.528  13.575  18.135  0.00  0.00    +0.000 C 
BRANCH  26  27
ATOM     27  C   UNL     1       2.900  14.147  19.504  0.00  0.00    +0.000 C 
BRANCH  27  28
ATOM     28  C   UNL     1       2.540  15.626  19.642  0.00  0.00    +0.000 C 
BRANCH  28  29
ATOM     29  S   UNL     1       3.241  16.544  18.235  0.00  0.00    +0.000 S 
BRANCH  29  30
ATOM     30  C   UNL     1       1.747  17.417  17.662  0.00  0.00    +0.000 C 
BRANCH  30  32
ATOM     31  C   UNL     1      -0.753  17.539  17.986  0.00  0.00    +0.000 C 
ATOM     32  C   UNL     1       0.556  16.975  18.511  0.00  0.00    +0.000 C 
ENDBRANCH  30  32
ENDBRANCH  29  30
ENDBRANCH  28  29
ENDBRANCH  27  28
ENDBRANCH  26  27
ENDBRANCH  22  26
ENDBRANCH  21  23
ENDBRANCH   1  21
TORSDOF 9
ENDMDL
MODEL 8
REMARK VINA RESULT:      -7.1      1.613      2.095
REMARK  Name = 
REMARK  11 active torsions:
REMARK  status: ('A' for Active; 'I' for Inactive)
REMARK    1  A    between atoms: C_1  and  C_2
REMARK    2  A    between atoms: C_2  and  C_3
REMARK    3  A    between atoms: C_3  and  S_4
REMARK    4  A    between atoms: S_4  and  C_5
REMARK    5  A    between atoms: C_5  and  C_6
REMARK    6  A    between atoms: C_6  and  C_7
REMARK    7  A    between atoms: C_7  and  N_8
REMARK    8  A    between atoms: C_9  and  C_11
REMARK    9  A    between atoms: C_11  and  N_12
REMARK   10  A    between atoms: C_19  and  C_20
REMARK   11  A    between atoms: N_22  and  C_23
REMARK                            x       y       z     vdW  Elec       q    Type
REMARK                         _______ _______ _______ _____ _____    ______ ____
ROOT
ATOM      1  N   UNL     1       0.609  11.184  20.595  0.00  0.00    +0.000 N 
ATOM      2  C   UNL     1      -0.123  11.693  21.717  0.00  0.00    +0.000 C 
ATOM      3  O   UNL     1      -0.362  12.894  21.738  0.00  0.00    +0.000 OA
ATOM      4  C   UNL     1      -0.552  10.759  22.827  0.00  0.00    +0.000 C 
ATOM      5  C   UNL     1      -0.262   9.271  22.657  0.00  0.00    +0.000 C 
ATOM      6  N   UNL     1       0.527   8.938  21.503  0.00  0.00    +0.000 N 
ATOM      7  N   UNL     1       0.896   7.677  21.237  0.00  0.00    +0.000 NA
ATOM      8  C   UNL     1       1.633   7.801  20.121  0.00  0.00    +0.000 A 
ATOM      9  C   UNL     1       1.662   9.139  19.656  0.00  0.00    +0.000 A 
ATOM     10  C   UNL     1       0.924   9.841  20.570  0.00  0.00    +0.000 A 
ENDROOT
BRANCH   8  11
ATOM     11  C   UNL     1       2.269   6.673  19.434  0.00  0.00    +0.000 A 
ATOM     12  C   UNL     1       3.223   6.762  18.441  0.00  0.00    +0.000 A 
ATOM     13  N   UNL     1       3.585   5.490  18.089  0.00  0.00    +0.000 N 
ATOM     14  C   UNL     1       4.511   5.157  17.028  0.00  0.00    +0.000 C 
ATOM     15  C   UNL     1       2.925   4.568  18.875  0.00  0.00    +0.000 A 
ATOM     16  C   UNL     1       3.025   3.167  18.924  0.00  0.00    +0.000 A 
ATOM     17  C   UNL     1       2.201   2.475  19.813  0.00  0.00    +0.000 A 
ATOM     18  C   UNL     1       1.275   3.151  20.596  0.00  0.00    +0.000 A 
ATOM     19  C   UNL     1       1.174   4.545  20.533  0.00  0.00    +0.000 A 
ATOM     20  C   UNL     1       2.039   5.283  19.691  0.00  0.00    +0.000 A 
ENDBRANCH   8  11
BRANCH   1  21
ATOM     21  C   UNL     1       1.019  12.118  19.530  0.00  0.00    +0.000 C 
BRANCH  21  23
ATOM     22  N   UNL     1      -0.817  11.320  18.122  0.00  0.00    +0.000 N 
ATOM     23  C   UNL     1      -0.151  12.428  18.606  0.00  0.00    +0.000 C 
ATOM     24  O   UNL     1      -0.477  13.583  18.340  0.00  0.00    +0.000 OA
ATOM     25  H   UNL     1      -0.567  10.398  18.470  0.00  0.00    +0.000 HD
BRANCH  22  26
ATOM     26  C   UNL     1      -1.915  11.424  17.178  0.00  0.00    +0.000 C 
BRANCH  26  27
ATOM     27  C   UNL     1      -2.555  10.070  16.870  0.00  0.00    +0.000 C 
BRANCH  27  28
ATOM     28  C   UNL     1      -4.004   9.981  17.352  0.00  0.00    +0.000 C 
BRANCH  28  29
ATOM     29  S   UNL     1      -4.823  11.582  17.075  0.00  0.00    +0.000 S 
BRANCH  29  30
ATOM     30  C   UNL     1      -5.655  11.784  18.685  0.00  0.00    +0.000 C 
BRANCH  30  32
ATOM     31  C   UNL     1      -7.389  10.734  20.187  0.00  0.00    +0.000 C 
ATOM     32  C   UNL     1      -6.776  10.752  18.798  0.00  0.00    +0.000 C 
ENDBRANCH  30  32
ENDBRANCH  29  30
ENDBRANCH  28  29
ENDBRANCH  27  28
ENDBRANCH  26  27
ENDBRANCH  22  26
ENDBRANCH  21  23
ENDBRANCH   1  21
TORSDOF 9
ENDMDL
MODEL 9
REMARK VINA RESULT:      -7.1      1.215      2.107
REMARK  Name = 
REMARK  11 active torsions:
REMARK  status: ('A' for Active; 'I' for Inactive)
REMARK    1  A    between atoms: C_1  and  C_2
REMARK    2  A    between atoms: C_2  and  C_3
REMARK    3  A    between atoms: C_3  and  S_4
REMARK    4  A    between atoms: S_4  and  C_5
REMARK    5  A    between atoms: C_5  and  C_6
REMARK    6  A    between atoms: C_6  and  C_7
REMARK    7  A    between atoms: C_7  and  N_8
REMARK    8  A    between atoms: C_9  and  C_11
REMARK    9  A    between atoms: C_11  and  N_12
REMARK   10  A    between atoms: C_19  and  C_20
REMARK   11  A    between atoms: N_22  and  C_23
REMARK                            x       y       z     vdW  Elec       q    Type
REMARK                         _______ _______ _______ _____ _____    ______ ____
ROOT
ATOM      1  N   UNL     1       0.367  10.463  19.850  0.00  0.00    +0.000 N 
ATOM      2  C   UNL     1      -0.157  11.154  20.991  0.00  0.00    +0.000 C 
ATOM      3  O   UNL     1      -0.663  12.254  20.803  0.00  0.00    +0.000 OA
ATOM      4  C   UNL     1      -0.055  10.531  22.367  0.00  0.00    +0.000 C 
ATOM      5  C   UNL     1       0.529   9.126  22.469  0.00  0.00    +0.000 C 
ATOM      6  N   UNL     1       1.057   8.601  21.239  0.00  0.00    +0.000 N 
ATOM      7  N   UNL     1       1.636   7.393  21.176  0.00  0.00    +0.000 NA
ATOM      8  C   UNL     1       2.015   7.301  19.891  0.00  0.00    +0.000 A 
ATOM      9  C   UNL     1       1.604   8.430  19.140  0.00  0.00    +0.000 A 
ATOM     10  C   UNL     1       0.976   9.241  20.045  0.00  0.00    +0.000 A 
ENDROOT
BRANCH   8  11
ATOM     11  C   UNL     1       2.707   6.139  19.326  0.00  0.00    +0.000 A 
ATOM     12  C   UNL     1       2.586   4.835  19.758  0.00  0.00    +0.000 A 
ATOM     13  N   UNL     1       3.362   4.049  18.950  0.00  0.00    +0.000 N 
ATOM     14  C   UNL     1       3.562   2.626  19.123  0.00  0.00    +0.000 C 
ATOM     15  C   UNL     1       3.946   4.809  17.958  0.00  0.00    +0.000 A 
ATOM     16  C   UNL     1       4.757   4.434  16.874  0.00  0.00    +0.000 A 
ATOM     17  C   UNL     1       5.239   5.436  16.030  0.00  0.00    +0.000 A 
ATOM     18  C   UNL     1       4.959   6.773  16.281  0.00  0.00    +0.000 A 
ATOM     19  C   UNL     1       4.159   7.138  17.369  0.00  0.00    +0.000 A 
ATOM     20  C   UNL     1       3.601   6.144  18.207  0.00  0.00    +0.000 A 
ENDBRANCH   8  11
BRANCH   1  21
ATOM     21  C   UNL     1       0.258  11.096  18.523  0.00  0.00    +0.000 C 
BRANCH  21  23
ATOM     22  N   UNL     1      -2.018  11.704  17.860  0.00  0.00    +0.000 N 
ATOM     23  C   UNL     1      -1.055  10.716  17.851  0.00  0.00    +0.000 C 
ATOM     24  O   UNL     1      -1.218   9.616  17.327  0.00  0.00    +0.000 OA
ATOM     25  H   UNL     1      -1.780  12.629  18.210  0.00  0.00    +0.000 HD
BRANCH  22  26
ATOM     26  C   UNL     1      -3.350  11.496  17.323  0.00  0.00    +0.000 C 
BRANCH  26  27
ATOM     27  C   UNL     1      -4.440  11.620  18.389  0.00  0.00    +0.000 C 
BRANCH  27  28
ATOM     28  C   UNL     1      -5.839  11.352  17.833  0.00  0.00    +0.000 C 
BRANCH  28  29
ATOM     29  S   UNL     1      -6.849  10.555  19.121  0.00  0.00    +0.000 S 
BRANCH  29  30
ATOM     30  C   UNL     1      -7.547  12.035  19.924  0.00  0.00    +0.000 C 
BRANCH  30  32
ATOM     31  C   UNL     1      -5.849  12.689  21.673  0.00  0.00    +0.000 C 
ATOM     32  C   UNL     1      -7.184  12.015  21.408  0.00  0.00    +0.000 C 
ENDBRANCH  30  32
ENDBRANCH  29  30
ENDBRANCH  28  29
ENDBRANCH  27  28
ENDBRANCH  26  27
ENDBRANCH  22  26
ENDBRANCH  21  23
ENDBRANCH   1  21
TORSDOF 9
ENDMDL
