MODEL 1
REMARK VINA RESULT:      -5.4      0.000      0.000
REMARK  Name = 
REMARK  3 active torsions:
REMARK  status: ('A' for Active; 'I' for Inactive)
REMARK    1  A    between atoms: C_1  and  C_2
REMARK    2  A    between atoms: C_2  and  C_3
REMARK    3  A    between atoms: C_3  and  O_4
REMARK                            x       y       z     vdW  Elec       q    Type
REMARK                         _______ _______ _______ _____ _____    ______ ____
ROOT
ATOM      1  C   UNL     1       4.412   4.703  18.245  0.00  0.00    +0.000 C 
ATOM      2  C   UNL     1       4.054   6.063  17.693  0.00  0.00    +0.000 C 
ATOM      3 BR   UNL     1       4.982   6.750  16.239  0.00  0.00    +0.000 Br
ATOM      4  C   UNL     1       3.072   6.673  18.358  0.00  0.00    +0.000 C 
ATOM      5 BR   UNL     1       2.294   8.314  18.072  0.00  0.00    +0.000 Br
ATOM      6  C   UNL     1       2.674   5.792  19.473  0.00  0.00    +0.000 C 
ATOM      7  O   UNL     1       1.843   6.096  20.312  0.00  0.00    +0.000 OA
ATOM      8  C   UNL     1       3.462   4.522  19.412  0.00  0.00    +0.000 C 
ATOM      9  C   UNL     1       3.299   3.492  20.264  0.00  0.00    +0.000 C 
ATOM     10 BR   UNL     1       4.355   1.931  20.225  0.00  0.00    +0.000 Br
ATOM     11 BR   UNL     1       2.008   3.404  21.631  0.00  0.00    +0.000 Br
ENDROOT
BRANCH   1  13
ATOM     12  C   UNL     1       2.997   3.077  16.792  0.00  0.00    +0.000 C 
ATOM     13  C   UNL     1       4.380   3.589  17.168  0.00  0.00    +0.000 C 
ENDBRANCH   1  13
BRANCH   1  14
ATOM     14  O   UNL     1       5.736   4.781  18.777  0.00  0.00    +0.000 OA
ATOM     15  H   UNL     1       5.669   5.103  19.693  0.00  0.00    +0.000 HD
ENDBRANCH   1  14
TORSDOF 2
ENDMDL
MODEL 2
REMARK VINA RESULT:      -5.4      1.163      4.727
REMARK  Name = 
REMARK  3 active torsions:
REMARK  status: ('A' for Active; 'I' for Inactive)
REMARK    1  A    between atoms: C_1  and  C_2
REMARK    2  A    between atoms: C_2  and  C_3
REMARK    3  A    between atoms: C_3  and  O_4
REMARK                            x       y       z     vdW  Elec       q    Type
REMARK                         _______ _______ _______ _____ _____    ______ ____
ROOT
ATOM      1  C   UNL     1       2.655   4.870  19.649  0.00  0.00    +0.000 C 
ATOM      2  C   UNL     1       2.954   3.542  20.305  0.00  0.00    +0.000 C 
ATOM      3 BR   UNL     1       1.667   2.717  21.359  0.00  0.00    +0.000 Br
ATOM      4  C   UNL     1       4.184   3.086  20.066  0.00  0.00    +0.000 C 
ATOM      5 BR   UNL     1       5.002   1.541  20.633  0.00  0.00    +0.000 Br
ATOM      6  C   UNL     1       4.878   4.091  19.235  0.00  0.00    +0.000 C 
ATOM      7  O   UNL     1       6.047   4.002  18.903  0.00  0.00    +0.000 OA
ATOM      8  C   UNL     1       3.937   5.208  18.913  0.00  0.00    +0.000 C 
ATOM      9  C   UNL     1       4.254   6.258  18.132  0.00  0.00    +0.000 C 
ATOM     10 BR   UNL     1       3.084   7.699  17.800  0.00  0.00    +0.000 Br
ATOM     11 BR   UNL     1       5.888   6.489  17.228  0.00  0.00    +0.000 Br
ENDROOT
BRANCH   1  13
ATOM     12  C   UNL     1       1.407   3.915  17.578  0.00  0.00    +0.000 C 
ATOM     13  C   UNL     1       1.369   4.840  18.787  0.00  0.00    +0.000 C 
ENDBRANCH   1  13
BRANCH   1  14
ATOM     14  O   UNL     1       2.485   5.841  20.683  0.00  0.00    +0.000 OA
ATOM     15  H   UNL     1       1.875   6.524  20.351  0.00  0.00    +0.000 HD
ENDBRANCH   1  14
TORSDOF 2
ENDMDL
MODEL 3
REMARK VINA RESULT:      -5.2      2.106      3.800
REMARK  Name = 
REMARK  3 active torsions:
REMARK  status: ('A' for Active; 'I' for Inactive)
REMARK    1  A    between atoms: C_1  and  C_2
REMARK    2  A    between atoms: C_2  and  C_3
REMARK    3  A    between atoms: C_3  and  O_4
REMARK                            x       y       z     vdW  Elec       q    Type
REMARK                         _______ _______ _______ _____ _____    ______ ____
ROOT
ATOM      1  C   UNL     1       3.056   3.940  18.329  0.00  0.00    +0.000 C 
ATOM      2  C   UNL     1       2.215   4.583  19.407  0.00  0.00    +0.000 C 
ATOM      3 BR   UNL     1       1.143   3.531  20.499  0.00  0.00    +0.000 Br
ATOM      4  C   UNL     1       2.316   5.912  19.450  0.00  0.00    +0.000 C 
ATOM      5 BR   UNL     1       1.502   7.122  20.568  0.00  0.00    +0.000 Br
ATOM      6  C   UNL     1       3.226   6.325  18.364  0.00  0.00    +0.000 C 
ATOM      7  O   UNL     1       3.471   7.488  18.093  0.00  0.00    +0.000 OA
ATOM      8  C   UNL     1       3.750   5.112  17.662  0.00  0.00    +0.000 C 
ATOM      9  C   UNL     1       4.640   5.151  16.653  0.00  0.00    +0.000 C 
ATOM     10 BR   UNL     1       5.230   3.619  15.724  0.00  0.00    +0.000 Br
ATOM     11 BR   UNL     1       5.464   6.707  15.987  0.00  0.00    +0.000 Br
ENDROOT
BRANCH   1  13
ATOM     12  C   UNL     1       3.615   1.406  18.471  0.00  0.00    +0.000 C 
ATOM     13  C   UNL     1       3.985   2.827  18.873  0.00  0.00    +0.000 C 
ENDBRANCH   1  13
BRANCH   1  14
ATOM     14  O   UNL     1       2.170   3.362  17.368  0.00  0.00    +0.000 OA
ATOM     15  H   UNL     1       2.697   3.127  16.582  0.00  0.00    +0.000 HD
ENDBRANCH   1  14
TORSDOF 2
ENDMDL
MODEL 4
REMARK VINA RESULT:      -5.2      1.828      4.217
REMARK  Name = 
REMARK  3 active torsions:
REMARK  status: ('A' for Active; 'I' for Inactive)
REMARK    1  A    between atoms: C_1  and  C_2
REMARK    2  A    between atoms: C_2  and  C_3
REMARK    3  A    between atoms: C_3  and  O_4
REMARK                            x       y       z     vdW  Elec       q    Type
REMARK                         _______ _______ _______ _____ _____    ______ ____
ROOT
ATOM      1  C   UNL     1       2.818   4.881  19.354  0.00  0.00    +0.000 C 
ATOM      2  C   UNL     1       3.663   4.029  18.435  0.00  0.00    +0.000 C 
ATOM      3 BR   UNL     1       3.924   2.231  18.814  0.00  0.00    +0.000 Br
ATOM      4  C   UNL     1       4.182   4.699  17.405  0.00  0.00    +0.000 C 
ATOM      5 BR   UNL     1       5.258   4.110  16.036  0.00  0.00    +0.000 Br
ATOM      6  C   UNL     1       3.765   6.109  17.535  0.00  0.00    +0.000 C 
ATOM      7  O   UNL     1       4.135   6.995  16.783  0.00  0.00    +0.000 OA
ATOM      8  C   UNL     1       2.869   6.258  18.723  0.00  0.00    +0.000 C 
ATOM      9  C   UNL     1       2.284   7.416  19.085  0.00  0.00    +0.000 C 
ATOM     10 BR   UNL     1       1.222   7.607  20.632  0.00  0.00    +0.000 Br
ATOM     11 BR   UNL     1       2.399   9.037  18.137  0.00  0.00    +0.000 Br
ENDROOT
BRANCH   1  13
ATOM     12  C   UNL     1       1.203   3.552  20.898  0.00  0.00    +0.000 C 
ATOM     13  C   UNL     1       1.403   4.295  19.585  0.00  0.00    +0.000 C 
ENDBRANCH   1  13
BRANCH   1  14
ATOM     14  O   UNL     1       3.486   4.961  20.615  0.00  0.00    +0.000 OA
ATOM     15  H   UNL     1       2.805   5.045  21.307  0.00  0.00    +0.000 HD
ENDBRANCH   1  14
TORSDOF 2
ENDMDL
MODEL 5
REMARK VINA RESULT:      -5.2      1.589      2.083
REMARK  Name = 
REMARK  3 active torsions:
REMARK  status: ('A' for Active; 'I' for Inactive)
REMARK    1  A    between atoms: C_1  and  C_2
REMARK    2  A    between atoms: C_2  and  C_3
REMARK    3  A    between atoms: C_3  and  O_4
REMARK                            x       y       z     vdW  Elec       q    Type
REMARK                         _______ _______ _______ _____ _____    ______ ____
ROOT
ATOM      1  C   UNL     1       4.375   3.635  18.348  0.00  0.00    +0.000 C 
ATOM      2  C   UNL     1       4.919   4.416  17.175  0.00  0.00    +0.000 C 
ATOM      3 BR   UNL     1       6.112   3.615  15.999  0.00  0.00    +0.000 Br
ATOM      4  C   UNL     1       4.482   5.675  17.116  0.00  0.00    +0.000 C 
ATOM      5 BR   UNL     1       4.854   6.997  15.894  0.00  0.00    +0.000 Br
ATOM      6  C   UNL     1       3.606   5.898  18.282  0.00  0.00    +0.000 C 
ATOM      7  O   UNL     1       3.103   6.975  18.554  0.00  0.00    +0.000 OA
ATOM      8  C   UNL     1       3.475   4.627  19.059  0.00  0.00    +0.000 C 
ATOM      9  C   UNL     1       2.704   4.489  20.155  0.00  0.00    +0.000 C 
ATOM     10 BR   UNL     1       2.612   2.903  21.171  0.00  0.00    +0.000 Br
ATOM     11 BR   UNL     1       1.583   5.820  20.871  0.00  0.00    +0.000 Br
ENDROOT
BRANCH   1  13
ATOM     12  C   UNL     1       2.276   2.410  17.424  0.00  0.00    +0.000 C 
ATOM     13  C   UNL     1       3.709   2.301  17.926  0.00  0.00    +0.000 C 
ENDBRANCH   1  13
BRANCH   1  14
ATOM     14  O   UNL     1       5.465   3.340  19.223  0.00  0.00    +0.000 OA
ATOM     15  H   UNL     1       5.699   4.160  19.693  0.00  0.00    +0.000 HD
ENDBRANCH   1  14
TORSDOF 2
ENDMDL
MODEL 6
REMARK VINA RESULT:      -5.1      1.192      4.044
REMARK  Name = 
REMARK  3 active torsions:
REMARK  status: ('A' for Active; 'I' for Inactive)
REMARK    1  A    between atoms: C_1  and  C_2
REMARK    2  A    between atoms: C_2  and  C_3
REMARK    3  A    between atoms: C_3  and  O_4
REMARK                            x       y       z     vdW  Elec       q    Type
REMARK                         _______ _______ _______ _____ _____    ______ ____
ROOT
ATOM      1  C   UNL     1       4.463   4.243  18.291  0.00  0.00    +0.000 C 
ATOM      2  C   UNL     1       3.920   3.416  19.433  0.00  0.00    +0.000 C 
ATOM      3 BR   UNL     1       4.580   1.708  19.739  0.00  0.00    +0.000 Br
ATOM      4  C   UNL     1       2.955   4.022  20.126  0.00  0.00    +0.000 C 
ATOM      5 BR   UNL     1       1.999   3.433  21.582  0.00  0.00    +0.000 Br
ATOM      6  C   UNL     1       2.710   5.335  19.496  0.00  0.00    +0.000 C 
ATOM      7  O   UNL     1       1.834   6.103  19.854  0.00  0.00    +0.000 OA
ATOM      8  C   UNL     1       3.668   5.532  18.365  0.00  0.00    +0.000 C 
ATOM      9  C   UNL     1       3.732   6.651  17.618  0.00  0.00    +0.000 C 
ATOM     10 BR   UNL     1       4.890   6.854  16.144  0.00  0.00    +0.000 Br
ATOM     11 BR   UNL     1       2.707   8.204  17.894  0.00  0.00    +0.000 Br
ENDROOT
BRANCH   1  13
ATOM     12  C   UNL     1       6.537   5.393  19.355  0.00  0.00    +0.000 C 
ATOM     13  C   UNL     1       6.004   4.395  18.337  0.00  0.00    +0.000 C 
ENDBRANCH   1  13
BRANCH   1  14
ATOM     14  O   UNL     1       4.108   3.589  17.070  0.00  0.00    +0.000 OA
ATOM     15  H   UNL     1       3.586   4.217  16.538  0.00  0.00    +0.000 HD
ENDBRANCH   1  14
TORSDOF 2
ENDMDL
MODEL 7
REMARK VINA RESULT:      -5.1      2.056      4.427
REMARK  Name = 
REMARK  3 active torsions:
REMARK  status: ('A' for Active; 'I' for Inactive)
REMARK    1  A    between atoms: C_1  and  C_2
REMARK    2  A    between atoms: C_2  and  C_3
REMARK    3  A    between atoms: C_3  and  O_4
REMARK                            x       y       z     vdW  Elec       q    Type
REMARK                         _______ _______ _______ _____ _____    ______ ____
ROOT
ATOM      1  C   UNL     1       3.787   5.648  18.884  0.00  0.00    +0.000 C 
ATOM      2  C   UNL     1       2.592   4.841  19.335  0.00  0.00    +0.000 C 
ATOM      3 BR   UNL     1       1.619   5.374  20.824  0.00  0.00    +0.000 Br
ATOM      4  C   UNL     1       2.361   3.758  18.592  0.00  0.00    +0.000 C 
ATOM      5 BR   UNL     1       1.045   2.483  18.740  0.00  0.00    +0.000 Br
ATOM      6  C   UNL     1       3.413   3.693  17.559  0.00  0.00    +0.000 C 
ATOM      7  O   UNL     1       3.523   2.777  16.762  0.00  0.00    +0.000 OA
ATOM      8  C   UNL     1       4.305   4.888  17.679  0.00  0.00    +0.000 C 
ATOM      9  C   UNL     1       5.335   5.146  16.850  0.00  0.00    +0.000 C 
ATOM     10 BR   UNL     1       6.500   6.613  17.063  0.00  0.00    +0.000 Br
ATOM     11 BR   UNL     1       5.803   4.121  15.343  0.00  0.00    +0.000 Br
ENDROOT
BRANCH   1  13
ATOM     12  C   UNL     1       2.271   7.412  17.722  0.00  0.00    +0.000 C 
ATOM     13  C   UNL     1       3.450   7.141  18.647  0.00  0.00    +0.000 C 
ENDBRANCH   1  13
BRANCH   1  14
ATOM     14  O   UNL     1       4.782   5.565  19.905  0.00  0.00    +0.000 OA
ATOM     15  H   UNL     1       5.478   6.215  19.695  0.00  0.00    +0.000 HD
ENDBRANCH   1  14
TORSDOF 2
ENDMDL
MODEL 8
REMARK VINA RESULT:      -5.1      1.588      1.712
REMARK  Name = 
REMARK  3 active torsions:
REMARK  status: ('A' for Active; 'I' for Inactive)
REMARK    1  A    between atoms: C_1  and  C_2
REMARK    2  A    between atoms: C_2  and  C_3
REMARK    3  A    between atoms: C_3  and  O_4
REMARK                            x       y       z     vdW  Elec       q    Type
REMARK                         _______ _______ _______ _____ _____    ______ ____
ROOT
ATOM      1  C   UNL     1       4.916   4.483  17.860  0.00  0.00    +0.000 C 
ATOM      2  C   UNL     1       4.810   5.981  17.693  0.00  0.00    +0.000 C 
ATOM      3 BR   UNL     1       6.326   6.983  17.315  0.00  0.00    +0.000 Br
ATOM      4  C   UNL     1       3.576   6.457  17.866  0.00  0.00    +0.000 C 
ATOM      5 BR   UNL     1       2.952   8.183  17.766  0.00  0.00    +0.000 Br
ATOM      6  C   UNL     1       2.703   5.318  18.210  0.00  0.00    +0.000 C 
ATOM      7  O   UNL     1       1.524   5.433  18.499  0.00  0.00    +0.000 OA
ATOM      8  C   UNL     1       3.496   4.051  18.174  0.00  0.00    +0.000 C 
ATOM      9  C   UNL     1       2.976   2.829  18.396  0.00  0.00    +0.000 C 
ATOM     10 BR   UNL     1       4.005   1.249  18.427  0.00  0.00    +0.000 Br
ATOM     11 BR   UNL     1       1.157   2.461  18.706  0.00  0.00    +0.000 Br
ENDROOT
BRANCH   1  13
ATOM     12  C   UNL     1       5.145   4.290  15.278  0.00  0.00    +0.000 C 
ATOM     13  C   UNL     1       5.581   3.787  16.647  0.00  0.00    +0.000 C 
ENDBRANCH   1  13
BRANCH   1  14
ATOM     14  O   UNL     1       5.709   4.227  19.021  0.00  0.00    +0.000 OA
ATOM     15  H   UNL     1       6.012   3.302  18.975  0.00  0.00    +0.000 HD
ENDBRANCH   1  14
TORSDOF 2
ENDMDL
MODEL 9
REMARK VINA RESULT:      -5.0      2.053      3.245
REMARK  Name = 
REMARK  3 active torsions:
REMARK  status: ('A' for Active; 'I' for Inactive)
REMARK    1  A    between atoms: C_1  and  C_2
REMARK    2  A    between atoms: C_2  and  C_3
REMARK    3  A    between atoms: C_3  and  O_4
REMARK                            x       y       z     vdW  Elec       q    Type
REMARK                         _______ _______ _______ _____ _____    ______ ____
ROOT
ATOM      1  C   UNL     1       3.289   4.725  17.726  0.00  0.00    +0.000 C 
ATOM      2  C   UNL     1       4.709   5.100  17.373  0.00  0.00    +0.000 C 
ATOM      3 BR   UNL     1       5.052   6.123  15.862  0.00  0.00    +0.000 Br
ATOM      4  C   UNL     1       5.622   4.612  18.215  0.00  0.00    +0.000 C 
ATOM      5 BR   UNL     1       7.451   4.792  18.208  0.00  0.00    +0.000 Br
ATOM      6  C   UNL     1       4.908   3.810  19.229  0.00  0.00    +0.000 C 
ATOM      7  O   UNL     1       5.470   3.171  20.102  0.00  0.00    +0.000 OA
ATOM      8  C   UNL     1       3.435   3.891  18.984  0.00  0.00    +0.000 C 
ATOM      9  C   UNL     1       2.508   3.305  19.765  0.00  0.00    +0.000 C 
ATOM     10 BR   UNL     1       0.659   3.348  19.399  0.00  0.00    +0.000 Br
ATOM     11 BR   UNL     1       2.864   2.353  21.349  0.00  0.00    +0.000 Br
ENDROOT
BRANCH   1  13
ATOM     12  C   UNL     1       2.697   6.950  18.932  0.00  0.00    +0.000 C 
ATOM     13  C   UNL     1       2.351   5.953  17.835  0.00  0.00    +0.000 C 
ENDBRANCH   1  13
BRANCH   1  14
ATOM     14  O   UNL     1       2.793   3.867  16.697  0.00  0.00    +0.000 OA
ATOM     15  H   UNL     1       2.612   2.997  17.097  0.00  0.00    +0.000 HD
ENDBRANCH   1  14
TORSDOF 2
ENDMDL
