MODEL 1
REMARK VINA RESULT:      -7.2      0.000      0.000
REMARK  Name = 
REMARK  2 active torsions:
REMARK  status: ('A' for Active; 'I' for Inactive)
REMARK    1  A    between atoms: O_1  and  N_2
REMARK    2  A    between atoms: C_9  and  C_10
REMARK                            x       y       z     vdW  Elec       q    Type
REMARK                         _______ _______ _______ _____ _____    ______ ____
ROOT
ATOM      1  N   UNL     1       5.334   4.251  15.466  0.00  0.00    +0.000 NA
ATOM      2  C   UNL     1       5.828   4.352  16.668  0.00  0.00    +0.000 C 
ATOM      3  C   UNL     1       7.309   4.467  17.001  0.00  0.00    +0.000 C 
ATOM      4  C   UNL     1       7.550   5.644  17.942  0.00  0.00    +0.000 C 
ATOM      5  C   UNL     1       6.662   5.566  19.183  0.00  0.00    +0.000 C 
ATOM      6  C   UNL     1       5.181   5.504  18.807  0.00  0.00    +0.000 C 
ATOM      7  C   UNL     1       4.916   4.372  17.858  0.00  0.00    +0.000 C 
ATOM      8  C   UNL     1       4.015   3.383  17.983  0.00  0.00    +0.000 C 
ENDROOT
BRANCH   8   9
ATOM      9  C   UNL     1       3.076   3.267  19.102  0.00  0.00    +0.000 A 
ATOM     10  C   UNL     1       1.771   3.753  18.971  0.00  0.00    +0.000 A 
ATOM     11  C   UNL     1       0.870   3.648  20.034  0.00  0.00    +0.000 A 
ATOM     12  C   UNL     1       1.271   3.058  21.231  0.00  0.00    +0.000 A 
ATOM     13  C   UNL     1       2.570   2.576  21.372  0.00  0.00    +0.000 A 
ATOM     14  C   UNL     1       3.473   2.682  20.310  0.00  0.00    +0.000 A 
ENDBRANCH   8   9
BRANCH   1  15
ATOM     15  O   UNL     1       6.333   4.284  14.487  0.00  0.00    +0.000 OA
ATOM     16  H   UNL     1       5.876   4.714  13.739  0.00  0.00    +0.000 HD
ENDBRANCH   1  15
TORSDOF 2
ENDMDL
MODEL 2
REMARK VINA RESULT:      -7.1      0.095      1.250
REMARK  Name = 
REMARK  2 active torsions:
REMARK  status: ('A' for Active; 'I' for Inactive)
REMARK    1  A    between atoms: O_1  and  N_2
REMARK    2  A    between atoms: C_9  and  C_10
REMARK                            x       y       z     vdW  Elec       q    Type
REMARK                         _______ _______ _______ _____ _____    ______ ____
ROOT
ATOM      1  N   UNL     1       5.289   4.140  15.492  0.00  0.00    +0.000 NA
ATOM      2  C   UNL     1       5.780   4.284  16.691  0.00  0.00    +0.000 C 
ATOM      3  C   UNL     1       7.258   4.437  17.021  0.00  0.00    +0.000 C 
ATOM      4  C   UNL     1       7.475   5.644  17.929  0.00  0.00    +0.000 C 
ATOM      5  C   UNL     1       6.588   5.583  19.172  0.00  0.00    +0.000 C 
ATOM      6  C   UNL     1       5.109   5.482  18.797  0.00  0.00    +0.000 C 
ATOM      7  C   UNL     1       4.866   4.318  17.880  0.00  0.00    +0.000 C 
ATOM      8  C   UNL     1       3.985   3.315  18.032  0.00  0.00    +0.000 C 
ENDROOT
BRANCH   8   9
ATOM      9  C   UNL     1       3.047   3.212  19.154  0.00  0.00    +0.000 A 
ATOM     10  C   UNL     1       3.474   2.675  20.373  0.00  0.00    +0.000 A 
ATOM     11  C   UNL     1       2.585   2.572  21.446  0.00  0.00    +0.000 A 
ATOM     12  C   UNL     1       1.268   3.004  21.304  0.00  0.00    +0.000 A 
ATOM     13  C   UNL     1       0.834   3.534  20.091  0.00  0.00    +0.000 A 
ATOM     14  C   UNL     1       1.721   3.636  19.015  0.00  0.00    +0.000 A 
ENDBRANCH   8   9
BRANCH   1  15
ATOM     15  O   UNL     1       6.287   4.165  14.513  0.00  0.00    +0.000 OA
ATOM     16  H   UNL     1       7.015   3.679  14.946  0.00  0.00    +0.000 HD
ENDBRANCH   1  15
TORSDOF 2
ENDMDL
MODEL 3
REMARK VINA RESULT:      -7.1      1.350      1.408
REMARK  Name = 
REMARK  2 active torsions:
REMARK  status: ('A' for Active; 'I' for Inactive)
REMARK    1  A    between atoms: O_1  and  N_2
REMARK    2  A    between atoms: C_9  and  C_10
REMARK                            x       y       z     vdW  Elec       q    Type
REMARK                         _______ _______ _______ _____ _____    ______ ____
ROOT
ATOM      1  N   UNL     1       6.329   5.038  15.235  0.00  0.00    +0.000 NA
ATOM      2  C   UNL     1       6.441   4.815  16.515  0.00  0.00    +0.000 C 
ATOM      3  C   UNL     1       7.752   4.789  17.288  0.00  0.00    +0.000 C 
ATOM      4  C   UNL     1       7.655   5.682  18.522  0.00  0.00    +0.000 C 
ATOM      5  C   UNL     1       6.445   5.325  19.384  0.00  0.00    +0.000 C 
ATOM      6  C   UNL     1       5.144   5.413  18.584  0.00  0.00    +0.000 C 
ATOM      7  C   UNL     1       5.218   4.567  17.347  0.00  0.00    +0.000 C 
ATOM      8  C   UNL     1       4.363   3.611  16.947  0.00  0.00    +0.000 C 
ENDROOT
BRANCH   8   9
ATOM      9  C   UNL     1       3.141   3.250  17.671  0.00  0.00    +0.000 A 
ATOM     10  C   UNL     1       2.008   4.065  17.578  0.00  0.00    +0.000 A 
ATOM     11  C   UNL     1       0.840   3.730  18.267  0.00  0.00    +0.000 A 
ATOM     12  C   UNL     1       0.801   2.579  19.052  0.00  0.00    +0.000 A 
ATOM     13  C   UNL     1       1.926   1.765  19.155  0.00  0.00    +0.000 A 
ATOM     14  C   UNL     1       3.097   2.101  18.468  0.00  0.00    +0.000 A 
ENDBRANCH   8   9
BRANCH   1  15
ATOM     15  O   UNL     1       7.569   5.281  14.637  0.00  0.00    +0.000 OA
ATOM     16  H   UNL     1       7.630   4.557  13.985  0.00  0.00    +0.000 HD
ENDBRANCH   1  15
TORSDOF 2
ENDMDL
MODEL 4
REMARK VINA RESULT:      -7.0      1.474      1.893
REMARK  Name = 
REMARK  2 active torsions:
REMARK  status: ('A' for Active; 'I' for Inactive)
REMARK    1  A    between atoms: O_1  and  N_2
REMARK    2  A    between atoms: C_9  and  C_10
REMARK                            x       y       z     vdW  Elec       q    Type
REMARK                         _______ _______ _______ _____ _____    ______ ____
ROOT
ATOM      1  N   UNL     1       6.296   5.259  15.184  0.00  0.00    +0.000 NA
ATOM      2  C   UNL     1       6.419   4.983  16.453  0.00  0.00    +0.000 C 
ATOM      3  C   UNL     1       7.734   4.941  17.218  0.00  0.00    +0.000 C 
ATOM      4  C   UNL     1       7.634   5.780  18.489  0.00  0.00    +0.000 C 
ATOM      5  C   UNL     1       6.433   5.371  19.341  0.00  0.00    +0.000 C 
ATOM      6  C   UNL     1       5.127   5.478  18.553  0.00  0.00    +0.000 C 
ATOM      7  C   UNL     1       5.204   4.685  17.280  0.00  0.00    +0.000 C 
ATOM      8  C   UNL     1       4.358   3.736  16.845  0.00  0.00    +0.000 C 
ENDROOT
BRANCH   8   9
ATOM      9  C   UNL     1       3.144   3.330  17.560  0.00  0.00    +0.000 A 
ATOM     10  C   UNL     1       3.084   2.076  18.175  0.00  0.00    +0.000 A 
ATOM     11  C   UNL     1       1.930   1.681  18.857  0.00  0.00    +0.000 A 
ATOM     12  C   UNL     1       0.833   2.539  18.925  0.00  0.00    +0.000 A 
ATOM     13  C   UNL     1       0.883   3.787  18.310  0.00  0.00    +0.000 A 
ATOM     14  C   UNL     1       2.037   4.183  17.625  0.00  0.00    +0.000 A 
ENDBRANCH   8   9
BRANCH   1  15
ATOM     15  O   UNL     1       7.530   5.542  14.590  0.00  0.00    +0.000 OA
ATOM     16  H   UNL     1       7.931   6.160  15.230  0.00  0.00    +0.000 HD
ENDBRANCH   1  15
TORSDOF 2
ENDMDL
MODEL 5
REMARK VINA RESULT:      -7.0      3.298      5.962
REMARK  Name = 
REMARK  2 active torsions:
REMARK  status: ('A' for Active; 'I' for Inactive)
REMARK    1  A    between atoms: O_1  and  N_2
REMARK    2  A    between atoms: C_9  and  C_10
REMARK                            x       y       z     vdW  Elec       q    Type
REMARK                         _______ _______ _______ _____ _____    ______ ____
ROOT
ATOM      1  N   UNL     1       2.220   7.204  20.021  0.00  0.00    +0.000 NA
ATOM      2  C   UNL     1       2.266   5.917  19.814  0.00  0.00    +0.000 C 
ATOM      3  C   UNL     1       1.761   4.855  20.779  0.00  0.00    +0.000 C 
ATOM      4  C   UNL     1       0.843   3.874  20.055  0.00  0.00    +0.000 C 
ATOM      5  C   UNL     1       1.514   3.285  18.814  0.00  0.00    +0.000 C 
ATOM      6  C   UNL     1       1.959   4.382  17.846  0.00  0.00    +0.000 C 
ATOM      7  C   UNL     1       2.843   5.380  18.537  0.00  0.00    +0.000 C 
ATOM      8  C   UNL     1       4.070   5.789  18.174  0.00  0.00    +0.000 C 
ENDROOT
BRANCH   8   9
ATOM      9  C   UNL     1       4.761   5.332  16.965  0.00  0.00    +0.000 A 
ATOM     10  C   UNL     1       5.141   3.992  16.842  0.00  0.00    +0.000 A 
ATOM     11  C   UNL     1       5.801   3.549  15.693  0.00  0.00    +0.000 A 
ATOM     12  C   UNL     1       6.085   4.445  14.664  0.00  0.00    +0.000 A 
ATOM     13  C   UNL     1       5.714   5.783  14.780  0.00  0.00    +0.000 A 
ATOM     14  C   UNL     1       5.055   6.228  15.931  0.00  0.00    +0.000 A 
ENDBRANCH   8   9
BRANCH   1  15
ATOM     15  O   UNL     1       1.621   7.513  21.246  0.00  0.00    +0.000 OA
ATOM     16  H   UNL     1       2.355   7.929  21.737  0.00  0.00    +0.000 HD
ENDBRANCH   1  15
TORSDOF 2
ENDMDL
MODEL 6
REMARK VINA RESULT:      -7.0      3.299      5.880
REMARK  Name = 
REMARK  2 active torsions:
REMARK  status: ('A' for Active; 'I' for Inactive)
REMARK    1  A    between atoms: O_1  and  N_2
REMARK    2  A    between atoms: C_9  and  C_10
REMARK                            x       y       z     vdW  Elec       q    Type
REMARK                         _______ _______ _______ _____ _____    ______ ____
ROOT
ATOM      1  N   UNL     1       2.218   7.203  20.012  0.00  0.00    +0.000 NA
ATOM      2  C   UNL     1       2.261   5.916  19.804  0.00  0.00    +0.000 C 
ATOM      3  C   UNL     1       1.748   4.855  20.766  0.00  0.00    +0.000 C 
ATOM      4  C   UNL     1       0.831   3.878  20.037  0.00  0.00    +0.000 C 
ATOM      5  C   UNL     1       1.506   3.287  18.799  0.00  0.00    +0.000 C 
ATOM      6  C   UNL     1       1.959   4.383  17.834  0.00  0.00    +0.000 C 
ATOM      7  C   UNL     1       2.842   5.378  18.530  0.00  0.00    +0.000 C 
ATOM      8  C   UNL     1       4.072   5.784  18.172  0.00  0.00    +0.000 C 
ENDROOT
BRANCH   8   9
ATOM      9  C   UNL     1       4.767   5.326  16.966  0.00  0.00    +0.000 A 
ATOM     10  C   UNL     1       5.047   6.230  15.936  0.00  0.00    +0.000 A 
ATOM     11  C   UNL     1       5.707   5.800  14.782  0.00  0.00    +0.000 A 
ATOM     12  C   UNL     1       6.089   4.466  14.654  0.00  0.00    +0.000 A 
ATOM     13  C   UNL     1       5.810   3.558  15.673  0.00  0.00    +0.000 A 
ATOM     14  C   UNL     1       5.146   3.986  16.827  0.00  0.00    +0.000 A 
ENDBRANCH   8   9
BRANCH   1  15
ATOM     15  O   UNL     1       1.614   7.514  21.233  0.00  0.00    +0.000 OA
ATOM     16  H   UNL     1       0.748   7.071  21.155  0.00  0.00    +0.000 HD
ENDBRANCH   1  15
TORSDOF 2
ENDMDL
MODEL 7
REMARK VINA RESULT:      -6.9      2.183      2.639
REMARK  Name = 
REMARK  2 active torsions:
REMARK  status: ('A' for Active; 'I' for Inactive)
REMARK    1  A    between atoms: O_1  and  N_2
REMARK    2  A    between atoms: C_9  and  C_10
REMARK                            x       y       z     vdW  Elec       q    Type
REMARK                         _______ _______ _______ _____ _____    ______ ____
ROOT
ATOM      1  N   UNL     1       7.266   5.494  19.685  0.00  0.00    +0.000 NA
ATOM      2  C   UNL     1       6.555   5.540  18.593  0.00  0.00    +0.000 C 
ATOM      3  C   UNL     1       6.898   6.360  17.358  0.00  0.00    +0.000 C 
ATOM      4  C   UNL     1       6.833   5.486  16.108  0.00  0.00    +0.000 C 
ATOM      5  C   UNL     1       5.491   4.764  15.993  0.00  0.00    +0.000 C 
ATOM      6  C   UNL     1       5.208   3.912  17.231  0.00  0.00    +0.000 C 
ATOM      7  C   UNL     1       5.292   4.739  18.481  0.00  0.00    +0.000 C 
ATOM      8  C   UNL     1       4.369   4.870  19.449  0.00  0.00    +0.000 C 
ENDROOT
BRANCH   8   9
ATOM      9  C   UNL     1       3.086   4.163  19.459  0.00  0.00    +0.000 A 
ATOM     10  C   UNL     1       2.229   4.258  18.357  0.00  0.00    +0.000 A 
ATOM     11  C   UNL     1       1.002   3.589  18.359  0.00  0.00    +0.000 A 
ATOM     12  C   UNL     1       0.628   2.823  19.462  0.00  0.00    +0.000 A 
ATOM     13  C   UNL     1       1.474   2.727  20.565  0.00  0.00    +0.000 A 
ATOM     14  C   UNL     1       2.700   3.399  20.565  0.00  0.00    +0.000 A 
ENDBRANCH   8   9
BRANCH   1  15
ATOM     15  O   UNL     1       8.420   6.277  19.590  0.00  0.00    +0.000 OA
ATOM     16  H   UNL     1       9.121   5.645  19.837  0.00  0.00    +0.000 HD
ENDBRANCH   1  15
TORSDOF 2
ENDMDL
MODEL 8
REMARK VINA RESULT:      -6.8      2.161      2.848
REMARK  Name = 
REMARK  2 active torsions:
REMARK  status: ('A' for Active; 'I' for Inactive)
REMARK    1  A    between atoms: O_1  and  N_2
REMARK    2  A    between atoms: C_9  and  C_10
REMARK                            x       y       z     vdW  Elec       q    Type
REMARK                         _______ _______ _______ _____ _____    ______ ____
ROOT
ATOM      1  N   UNL     1       7.272   5.483  19.679  0.00  0.00    +0.000 NA
ATOM      2  C   UNL     1       6.552   5.501  18.592  0.00  0.00    +0.000 C 
ATOM      3  C   UNL     1       6.884   6.290  17.334  0.00  0.00    +0.000 C 
ATOM      4  C   UNL     1       6.812   5.385  16.107  0.00  0.00    +0.000 C 
ATOM      5  C   UNL     1       5.470   4.657  16.021  0.00  0.00    +0.000 C 
ATOM      6  C   UNL     1       5.199   3.835  17.282  0.00  0.00    +0.000 C 
ATOM      7  C   UNL     1       5.291   4.693  18.511  0.00  0.00    +0.000 C 
ATOM      8  C   UNL     1       4.375   4.846  19.482  0.00  0.00    +0.000 C 
ENDROOT
BRANCH   8   9
ATOM      9  C   UNL     1       3.094   4.136  19.519  0.00  0.00    +0.000 A 
ATOM     10  C   UNL     1       2.760   3.357  20.631  0.00  0.00    +0.000 A 
ATOM     11  C   UNL     1       1.540   2.675  20.673  0.00  0.00    +0.000 A 
ATOM     12  C   UNL     1       0.652   2.771  19.603  0.00  0.00    +0.000 A 
ATOM     13  C   UNL     1       0.980   3.541  18.490  0.00  0.00    +0.000 A 
ATOM     14  C   UNL     1       2.200   4.221  18.445  0.00  0.00    +0.000 A 
ENDBRANCH   8   9
BRANCH   1  15
ATOM     15  O   UNL     1       8.423   6.267  19.556  0.00  0.00    +0.000 OA
ATOM     16  H   UNL     1       8.492   6.674  20.440  0.00  0.00    +0.000 HD
ENDBRANCH   1  15
TORSDOF 2
ENDMDL
MODEL 9
REMARK VINA RESULT:      -6.7      3.201      6.156
REMARK  Name = 
REMARK  2 active torsions:
REMARK  status: ('A' for Active; 'I' for Inactive)
REMARK    1  A    between atoms: O_1  and  N_2
REMARK    2  A    between atoms: C_9  and  C_10
REMARK                            x       y       z     vdW  Elec       q    Type
REMARK                         _______ _______ _______ _____ _____    ______ ____
ROOT
ATOM      1  N   UNL     1       7.759   5.516  18.977  0.00  0.00    +0.000 NA
ATOM      2  C   UNL     1       6.574   5.262  18.496  0.00  0.00    +0.000 C 
ATOM      3  C   UNL     1       5.344   4.928  19.328  0.00  0.00    +0.000 C 
ATOM      4  C   UNL     1       4.169   5.808  18.911  0.00  0.00    +0.000 C 
ATOM      5  C   UNL     1       3.913   5.733  17.406  0.00  0.00    +0.000 C 
ATOM      6  C   UNL     1       5.156   6.125  16.608  0.00  0.00    +0.000 C 
ATOM      7  C   UNL     1       6.339   5.295  17.015  0.00  0.00    +0.000 C 
ATOM      8  C   UNL     1       7.147   4.565  16.228  0.00  0.00    +0.000 C 
ENDROOT
BRANCH   8   9
ATOM      9  C   UNL     1       7.021   4.490  14.770  0.00  0.00    +0.000 A 
ATOM     10  C   UNL     1       6.083   3.626  14.195  0.00  0.00    +0.000 A 
ATOM     11  C   UNL     1       5.958   3.547  12.805  0.00  0.00    +0.000 A 
ATOM     12  C   UNL     1       6.770   4.331  11.987  0.00  0.00    +0.000 A 
ATOM     13  C   UNL     1       7.710   5.189  12.552  0.00  0.00    +0.000 A 
ATOM     14  C   UNL     1       7.838   5.267  13.942  0.00  0.00    +0.000 A 
ENDBRANCH   8   9
BRANCH   1  15
ATOM     15  O   UNL     1       7.776   5.471  20.374  0.00  0.00    +0.000 OA
ATOM     16  H   UNL     1       8.063   4.554  20.549  0.00  0.00    +0.000 HD
ENDBRANCH   1  15
TORSDOF 2
ENDMDL
