MODEL 1
REMARK VINA RESULT:      -7.7      0.000      0.000
REMARK  Name = 
REMARK  12 active torsions:
REMARK  status: ('A' for Active; 'I' for Inactive)
REMARK    1  A    between atoms: C_1  and  C_2
REMARK    2  A    between atoms: C_2  and  N_3
REMARK    3  A    between atoms: N_3  and  C_4
REMARK    4  A    between atoms: N_3  and  S_6
REMARK    5  A    between atoms: C_4  and  C_5
REMARK    6  A    between atoms: S_6  and  C_9
REMARK    7  A    between atoms: C_11  and  C_12
REMARK    8  A    between atoms: C_13  and  C_14
REMARK    9  A    between atoms: C_15  and  N_16
REMARK   10  A    between atoms: C_17  and  C_19
REMARK   11  A    between atoms: C_21  and  C_22
REMARK   12  A    between atoms: C_29  and  C_30
REMARK                            x       y       z     vdW  Elec       q    Type
REMARK                         _______ _______ _______ _____ _____    ______ ____
ROOT
ATOM      1  N   UNL     1       2.387   8.516  19.299  0.00  0.00    +0.000 N 
ATOM      2  C   UNL     1       1.417   9.298  18.699  0.00  0.00    +0.000 C 
ATOM      3  O   UNL     1       0.756   8.950  17.730  0.00  0.00    +0.000 OA
ATOM      4  H   UNL     1       2.686   8.723  20.240  0.00  0.00    +0.000 HD
ENDROOT
BRANCH   2   5
ATOM      5  C   UNL     1       1.179  10.621  19.318  0.00  0.00    +0.000 A 
ATOM      6  C   UNL     1       1.682  11.802  18.750  0.00  0.00    +0.000 A 
ATOM      7  C   UNL     1       1.350  13.048  19.285  0.00  0.00    +0.000 A 
ATOM      8  N   UNL     1       0.579  13.181  20.383  0.00  0.00    +0.000 NA
ATOM      9  C   UNL     1       0.162  12.028  20.932  0.00  0.00    +0.000 A 
ATOM     10  O   UNL     1      -0.616  11.974  22.047  0.00  0.00    +0.000 OA
ATOM     11  N   UNL     1      -0.877  10.653  22.371  0.00  0.00    +0.000 NA
ATOM     12  C   UNL     1      -0.260   9.918  21.441  0.00  0.00    +0.000 A 
ATOM     13  C   UNL     1      -0.334   8.439  21.526  0.00  0.00    +0.000 C 
ATOM     14  C   UNL     1       0.412  10.739  20.488  0.00  0.00    +0.000 A 
BRANCH   7  15
ATOM     15  C   UNL     1       1.863  14.308  18.619  0.00  0.00    +0.000 C 
ATOM     16  C   UNL     1       2.881  15.182  19.319  0.00  0.00    +0.000 C 
ATOM     17  C   UNL     1       3.294  14.364  18.134  0.00  0.00    +0.000 C 
ENDBRANCH   7  15
ENDBRANCH   2   5
BRANCH   1  24
ATOM     18  C   UNL     1       4.103   5.996  17.236  0.00  0.00    +0.000 A 
ATOM     19  C   UNL     1       3.710   4.809  17.859  0.00  0.00    +0.000 A 
ATOM     20  C   UNL     1       2.825   4.841  18.953  0.00  0.00    +0.000 A 
ATOM     21  C   UNL     1       2.377   3.538  19.558  0.00  0.00    +0.000 C 
ATOM     22  C   UNL     1       2.378   6.085  19.451  0.00  0.00    +0.000 A 
ATOM     23  C   UNL     1       1.428   6.182  20.622  0.00  0.00    +0.000 C 
ATOM     24  C   UNL     1       2.771   7.264  18.786  0.00  0.00    +0.000 A 
ATOM     25  C   UNL     1       3.610   7.222  17.670  0.00  0.00    +0.000 A 
BRANCH  18  26
ATOM     26  S   UNL     1       5.363   5.952  15.985  0.00  0.00    +0.000 S 
ATOM     27  O   UNL     1       5.060   7.017  15.053  0.00  0.00    +0.000 OA
ATOM     28  O   UNL     1       5.496   4.582  15.528  0.00  0.00    +0.000 OA
BRANCH  26  29
ATOM     29  N   UNL     1       6.810   6.360  16.818  0.00  0.00    +0.000 NA
BRANCH  29  31
ATOM     30  C   UNL     1       8.067   8.399  17.596  0.00  0.00    +0.000 C 
ATOM     31  C   UNL     1       6.739   7.659  17.554  0.00  0.00    +0.000 C 
ENDBRANCH  29  31
BRANCH  29  32
ATOM     32  C   UNL     1       7.388   5.216  17.592  0.00  0.00    +0.000 C 
ATOM     33  C   UNL     1       7.227   5.350  19.098  0.00  0.00    +0.000 C 
ENDBRANCH  29  32
ENDBRANCH  26  29
ENDBRANCH  18  26
ENDBRANCH   1  24
TORSDOF 7
ENDMDL
MODEL 2
REMARK VINA RESULT:      -7.7      2.135      2.585
REMARK  Name = 
REMARK  12 active torsions:
REMARK  status: ('A' for Active; 'I' for Inactive)
REMARK    1  A    between atoms: C_1  and  C_2
REMARK    2  A    between atoms: C_2  and  N_3
REMARK    3  A    between atoms: N_3  and  C_4
REMARK    4  A    between atoms: N_3  and  S_6
REMARK    5  A    between atoms: C_4  and  C_5
REMARK    6  A    between atoms: S_6  and  C_9
REMARK    7  A    between atoms: C_11  and  C_12
REMARK    8  A    between atoms: C_13  and  C_14
REMARK    9  A    between atoms: C_15  and  N_16
REMARK   10  A    between atoms: C_17  and  C_19
REMARK   11  A    between atoms: C_21  and  C_22
REMARK   12  A    between atoms: C_29  and  C_30
REMARK                            x       y       z     vdW  Elec       q    Type
REMARK                         _______ _______ _______ _____ _____    ______ ____
ROOT
ATOM      1  N   UNL     1       1.538   7.135  18.741  0.00  0.00    +0.000 N 
ATOM      2  C   UNL     1       1.845   8.475  18.595  0.00  0.00    +0.000 C 
ATOM      3  O   UNL     1       2.929   8.895  18.214  0.00  0.00    +0.000 OA
ATOM      4  H   UNL     1       0.574   6.842  18.775  0.00  0.00    +0.000 HD
ENDROOT
BRANCH   2   5
ATOM      5  C   UNL     1       0.754   9.425  18.905  0.00  0.00    +0.000 A 
ATOM      6  C   UNL     1      -0.039   9.993  17.896  0.00  0.00    +0.000 A 
ATOM      7  C   UNL     1      -1.136  10.796  18.217  0.00  0.00    +0.000 A 
ATOM      8  N   UNL     1      -1.462  11.099  19.489  0.00  0.00    +0.000 NA
ATOM      9  C   UNL     1      -0.648  10.583  20.427  0.00  0.00    +0.000 A 
ATOM     10  O   UNL     1      -0.823  10.793  21.760  0.00  0.00    +0.000 OA
ATOM     11  N   UNL     1       0.169  10.139  22.470  0.00  0.00    +0.000 NA
ATOM     12  C   UNL     1       0.933   9.530  21.557  0.00  0.00    +0.000 A 
ATOM     13  C   UNL     1       2.113   8.752  22.008  0.00  0.00    +0.000 C 
ATOM     14  C   UNL     1       0.455   9.767  20.235  0.00  0.00    +0.000 A 
BRANCH   7  15
ATOM     15  C   UNL     1      -2.004  11.352  17.109  0.00  0.00    +0.000 C 
ATOM     16  C   UNL     1      -2.766  10.419  16.192  0.00  0.00    +0.000 C 
ATOM     17  C   UNL     1      -3.508  11.231  17.210  0.00  0.00    +0.000 C 
ENDBRANCH   7  15
ENDBRANCH   2   5
BRANCH   1  24
ATOM     18  C   UNL     1       4.417   5.299  17.364  0.00  0.00    +0.000 A 
ATOM     19  C   UNL     1       4.513   4.223  18.251  0.00  0.00    +0.000 A 
ATOM     20  C   UNL     1       3.580   4.078  19.295  0.00  0.00    +0.000 A 
ATOM     21  C   UNL     1       3.680   2.874  20.191  0.00  0.00    +0.000 C 
ATOM     22  C   UNL     1       2.577   5.058  19.473  0.00  0.00    +0.000 A 
ATOM     23  C   UNL     1       1.549   4.956  20.576  0.00  0.00    +0.000 C 
ATOM     24  C   UNL     1       2.490   6.118  18.548  0.00  0.00    +0.000 A 
ATOM     25  C   UNL     1       3.389   6.227  17.485  0.00  0.00    +0.000 A 
BRANCH  18  26
ATOM     26  S   UNL     1       5.708   5.571  16.175  0.00  0.00    +0.000 S 
ATOM     27  O   UNL     1       5.247   6.623  15.296  0.00  0.00    +0.000 OA
ATOM     28  O   UNL     1       6.108   4.282  15.643  0.00  0.00    +0.000 OA
BRANCH  26  29
ATOM     29  N   UNL     1       7.024   6.178  17.099  0.00  0.00    +0.000 NA
BRANCH  29  31
ATOM     30  C   UNL     1       7.914   8.489  17.554  0.00  0.00    +0.000 C 
ATOM     31  C   UNL     1       6.761   7.511  17.722  0.00  0.00    +0.000 C 
ENDBRANCH  29  31
BRANCH  29  32
ATOM     32  C   UNL     1       7.628   5.153  18.009  0.00  0.00    +0.000 C 
ATOM     33  C   UNL     1       7.699   5.591  19.464  0.00  0.00    +0.000 C 
ENDBRANCH  29  32
ENDBRANCH  26  29
ENDBRANCH  18  26
ENDBRANCH   1  24
TORSDOF 7
ENDMDL
MODEL 3
REMARK VINA RESULT:      -7.5      2.132      2.810
REMARK  Name = 
REMARK  12 active torsions:
REMARK  status: ('A' for Active; 'I' for Inactive)
REMARK    1  A    between atoms: C_1  and  C_2
REMARK    2  A    between atoms: C_2  and  N_3
REMARK    3  A    between atoms: N_3  and  C_4
REMARK    4  A    between atoms: N_3  and  S_6
REMARK    5  A    between atoms: C_4  and  C_5
REMARK    6  A    between atoms: S_6  and  C_9
REMARK    7  A    between atoms: C_11  and  C_12
REMARK    8  A    between atoms: C_13  and  C_14
REMARK    9  A    between atoms: C_15  and  N_16
REMARK   10  A    between atoms: C_17  and  C_19
REMARK   11  A    between atoms: C_21  and  C_22
REMARK   12  A    between atoms: C_29  and  C_30
REMARK                            x       y       z     vdW  Elec       q    Type
REMARK                         _______ _______ _______ _____ _____    ______ ____
ROOT
ATOM      1  N   UNL     1       1.427   7.264  18.902  0.00  0.00    +0.000 N 
ATOM      2  C   UNL     1       1.701   8.594  18.640  0.00  0.00    +0.000 C 
ATOM      3  O   UNL     1       2.754   8.998  18.165  0.00  0.00    +0.000 OA
ATOM      4  H   UNL     1       0.471   6.962  19.015  0.00  0.00    +0.000 HD
ENDROOT
BRANCH   2   5
ATOM      5  C   UNL     1       0.614   9.550  18.944  0.00  0.00    +0.000 A 
ATOM      6  C   UNL     1      -0.200  10.087  17.934  0.00  0.00    +0.000 A 
ATOM      7  C   UNL     1      -1.292  10.897  18.252  0.00  0.00    +0.000 A 
ATOM      8  N   UNL     1      -1.594  11.236  19.522  0.00  0.00    +0.000 NA
ATOM      9  C   UNL     1      -0.762  10.749  20.458  0.00  0.00    +0.000 A 
ATOM     10  O   UNL     1      -0.911  10.997  21.787  0.00  0.00    +0.000 OA
ATOM     11  N   UNL     1       0.096  10.366  22.497  0.00  0.00    +0.000 NA
ATOM     12  C   UNL     1       0.844   9.732  21.587  0.00  0.00    +0.000 A 
ATOM     13  C   UNL     1       2.034   8.970  22.038  0.00  0.00    +0.000 C 
ATOM     14  C   UNL     1       0.340   9.930  20.268  0.00  0.00    +0.000 A 
BRANCH   7  15
ATOM     15  C   UNL     1      -2.184  11.419  17.146  0.00  0.00    +0.000 C 
ATOM     16  C   UNL     1      -3.116  10.482  16.408  0.00  0.00    +0.000 C 
ATOM     17  C   UNL     1      -3.678  11.490  17.365  0.00  0.00    +0.000 C 
ENDBRANCH   7  15
ENDBRANCH   2   5
BRANCH   1  24
ATOM     18  C   UNL     1       4.389   5.470  17.652  0.00  0.00    +0.000 A 
ATOM     19  C   UNL     1       4.410   4.350  18.486  0.00  0.00    +0.000 A 
ATOM     20  C   UNL     1       3.400   4.162  19.448  0.00  0.00    +0.000 A 
ATOM     21  C   UNL     1       3.423   2.911  20.285  0.00  0.00    +0.000 C 
ATOM     22  C   UNL     1       2.393   5.141  19.601  0.00  0.00    +0.000 A 
ATOM     23  C   UNL     1       1.284   4.994  20.617  0.00  0.00    +0.000 C 
ATOM     24  C   UNL     1       2.384   6.248  18.729  0.00  0.00    +0.000 A 
ATOM     25  C   UNL     1       3.361   6.403  17.743  0.00  0.00    +0.000 A 
BRANCH  18  26
ATOM     26  S   UNL     1       5.767   5.789  16.579  0.00  0.00    +0.000 S 
ATOM     27  O   UNL     1       5.345   6.820  15.656  0.00  0.00    +0.000 OA
ATOM     28  O   UNL     1       6.262   4.516  16.091  0.00  0.00    +0.000 OA
BRANCH  26  29
ATOM     29  N   UNL     1       6.973   6.449  17.611  0.00  0.00    +0.000 NA
BRANCH  29  31
ATOM     30  C   UNL     1       7.825   5.603  19.825  0.00  0.00    +0.000 C 
ATOM     31  C   UNL     1       7.796   5.420  18.315  0.00  0.00    +0.000 C 
ENDBRANCH  29  31
BRANCH  29  32
ATOM     32  C   UNL     1       7.745   7.564  16.978  0.00  0.00    +0.000 C 
ATOM     33  C   UNL     1       7.946   8.766  17.888  0.00  0.00    +0.000 C 
ENDBRANCH  29  32
ENDBRANCH  26  29
ENDBRANCH  18  26
ENDBRANCH   1  24
TORSDOF 7
ENDMDL
MODEL 4
REMARK VINA RESULT:      -7.4      0.420      1.131
REMARK  Name = 
REMARK  12 active torsions:
REMARK  status: ('A' for Active; 'I' for Inactive)
REMARK    1  A    between atoms: C_1  and  C_2
REMARK    2  A    between atoms: C_2  and  N_3
REMARK    3  A    between atoms: N_3  and  C_4
REMARK    4  A    between atoms: N_3  and  S_6
REMARK    5  A    between atoms: C_4  and  C_5
REMARK    6  A    between atoms: S_6  and  C_9
REMARK    7  A    between atoms: C_11  and  C_12
REMARK    8  A    between atoms: C_13  and  C_14
REMARK    9  A    between atoms: C_15  and  N_16
REMARK   10  A    between atoms: C_17  and  C_19
REMARK   11  A    between atoms: C_21  and  C_22
REMARK   12  A    between atoms: C_29  and  C_30
REMARK                            x       y       z     vdW  Elec       q    Type
REMARK                         _______ _______ _______ _____ _____    ______ ____
ROOT
ATOM      1  N   UNL     1       2.206   8.518  19.529  0.00  0.00    +0.000 N 
ATOM      2  C   UNL     1       1.300   9.331  18.872  0.00  0.00    +0.000 C 
ATOM      3  O   UNL     1       0.682   9.001  17.869  0.00  0.00    +0.000 OA
ATOM      4  H   UNL     1       2.460   8.720  20.484  0.00  0.00    +0.000 HD
ENDROOT
BRANCH   2   5
ATOM      5  C   UNL     1       1.076  10.665  19.472  0.00  0.00    +0.000 A 
ATOM      6  C   UNL     1       1.583  11.833  18.882  0.00  0.00    +0.000 A 
ATOM      7  C   UNL     1       1.264  13.090  19.399  0.00  0.00    +0.000 A 
ATOM      8  N   UNL     1       0.501  13.246  20.500  0.00  0.00    +0.000 NA
ATOM      9  C   UNL     1       0.079  12.105  21.070  0.00  0.00    +0.000 A 
ATOM     10  O   UNL     1      -0.692  12.074  22.191  0.00  0.00    +0.000 OA
ATOM     11  N   UNL     1      -0.961  10.761  22.537  0.00  0.00    +0.000 NA
ATOM     12  C   UNL     1      -0.355  10.007  21.615  0.00  0.00    +0.000 A 
ATOM     13  C   UNL     1      -0.439   8.529  21.724  0.00  0.00    +0.000 C 
ATOM     14  C   UNL     1       0.317  10.807  20.645  0.00  0.00    +0.000 A 
BRANCH   7  15
ATOM     15  C   UNL     1       1.782  14.336  18.711  0.00  0.00    +0.000 C 
ATOM     16  C   UNL     1       2.871  15.168  19.353  0.00  0.00    +0.000 C 
ATOM     17  C   UNL     1       3.182  14.343  18.141  0.00  0.00    +0.000 C 
ENDBRANCH   7  15
ENDBRANCH   2   5
BRANCH   1  24
ATOM     18  C   UNL     1       3.999   5.920  17.635  0.00  0.00    +0.000 A 
ATOM     19  C   UNL     1       3.468   4.752  18.190  0.00  0.00    +0.000 A 
ATOM     20  C   UNL     1       2.465   4.827  19.176  0.00  0.00    +0.000 A 
ATOM     21  C   UNL     1       1.874   3.548  19.704  0.00  0.00    +0.000 C 
ATOM     22  C   UNL     1       2.037   6.091  19.639  0.00  0.00    +0.000 A 
ATOM     23  C   UNL     1       0.965   6.234  20.694  0.00  0.00    +0.000 C 
ATOM     24  C   UNL     1       2.573   7.251  19.043  0.00  0.00    +0.000 A 
ATOM     25  C   UNL     1       3.531   7.168  18.030  0.00  0.00    +0.000 A 
BRANCH  18  26
ATOM     26  S   UNL     1       5.391   5.812  16.538  0.00  0.00    +0.000 S 
ATOM     27  O   UNL     1       5.163   6.778  15.485  0.00  0.00    +0.000 OA
ATOM     28  O   UNL     1       5.610   4.413  16.226  0.00  0.00    +0.000 OA
BRANCH  26  29
ATOM     29  N   UNL     1       6.725   6.346  17.481  0.00  0.00    +0.000 NA
BRANCH  29  31
ATOM     30  C   UNL     1       7.854   5.436  19.540  0.00  0.00    +0.000 C 
ATOM     31  C   UNL     1       7.534   5.235  18.066  0.00  0.00    +0.000 C 
ENDBRANCH  29  31
BRANCH  29  32
ATOM     32  C   UNL     1       7.513   7.435  16.823  0.00  0.00    +0.000 C 
ATOM     33  C   UNL     1       7.922   8.553  17.769  0.00  0.00    +0.000 C 
ENDBRANCH  29  32
ENDBRANCH  26  29
ENDBRANCH  18  26
ENDBRANCH   1  24
TORSDOF 7
ENDMDL
MODEL 5
REMARK VINA RESULT:      -7.2      1.508      1.992
REMARK  Name = 
REMARK  12 active torsions:
REMARK  status: ('A' for Active; 'I' for Inactive)
REMARK    1  A    between atoms: C_1  and  C_2
REMARK    2  A    between atoms: C_2  and  N_3
REMARK    3  A    between atoms: N_3  and  C_4
REMARK    4  A    between atoms: N_3  and  S_6
REMARK    5  A    between atoms: C_4  and  C_5
REMARK    6  A    between atoms: S_6  and  C_9
REMARK    7  A    between atoms: C_11  and  C_12
REMARK    8  A    between atoms: C_13  and  C_14
REMARK    9  A    between atoms: C_15  and  N_16
REMARK   10  A    between atoms: C_17  and  C_19
REMARK   11  A    between atoms: C_21  and  C_22
REMARK   12  A    between atoms: C_29  and  C_30
REMARK                            x       y       z     vdW  Elec       q    Type
REMARK                         _______ _______ _______ _____ _____    ______ ____
ROOT
ATOM      1  N   UNL     1       2.265   9.102  19.158  0.00  0.00    +0.000 N 
ATOM      2  C   UNL     1       1.574   9.808  18.190  0.00  0.00    +0.000 C 
ATOM      3  O   UNL     1       1.079   9.301  17.192  0.00  0.00    +0.000 OA
ATOM      4  H   UNL     1       2.394   9.504  20.074  0.00  0.00    +0.000 HD
ENDROOT
BRANCH   2   5
ATOM      5  C   UNL     1       1.425  11.260  18.431  0.00  0.00    +0.000 A 
ATOM      6  C   UNL     1       2.516  12.138  18.338  0.00  0.00    +0.000 A 
ATOM      7  C   UNL     1       2.333  13.518  18.456  0.00  0.00    +0.000 A 
ATOM      8  N   UNL     1       1.128  14.068  18.704  0.00  0.00    +0.000 NA
ATOM      9  C   UNL     1       0.117  13.194  18.842  0.00  0.00    +0.000 A 
ATOM     10  O   UNL     1      -1.164  13.573  19.104  0.00  0.00    +0.000 OA
ATOM     11  N   UNL     1      -1.973  12.453  19.193  0.00  0.00    +0.000 NA
ATOM     12  C   UNL     1      -1.174  11.404  18.975  0.00  0.00    +0.000 A 
ATOM     13  C   UNL     1      -1.750  10.038  19.028  0.00  0.00    +0.000 C 
ATOM     14  C   UNL     1       0.170  11.813  18.735  0.00  0.00    +0.000 A 
BRANCH   7  15
ATOM     15  C   UNL     1       3.519  14.445  18.298  0.00  0.00    +0.000 C 
ATOM     16  C   UNL     1       3.485  15.565  17.280  0.00  0.00    +0.000 C 
ATOM     17  C   UNL     1       3.402  15.886  18.742  0.00  0.00    +0.000 C 
ENDBRANCH   7  15
ENDBRANCH   2   5
BRANCH   1  24
ATOM     18  C   UNL     1       3.835   5.975  18.015  0.00  0.00    +0.000 A 
ATOM     19  C   UNL     1       3.273   5.043  18.891  0.00  0.00    +0.000 A 
ATOM     20  C   UNL     1       2.323   5.450  19.848  0.00  0.00    +0.000 A 
ATOM     21  C   UNL     1       1.695   4.408  20.732  0.00  0.00    +0.000 C 
ATOM     22  C   UNL     1       1.981   6.817  19.950  0.00  0.00    +0.000 A 
ATOM     23  C   UNL     1       0.969   7.314  20.957  0.00  0.00    +0.000 C 
ATOM     24  C   UNL     1       2.545   7.730  19.036  0.00  0.00    +0.000 A 
ATOM     25  C   UNL     1       3.449   7.310  18.057  0.00  0.00    +0.000 A 
BRANCH  18  26
ATOM     26  S   UNL     1       5.165   5.481  16.948  0.00  0.00    +0.000 S 
ATOM     27  O   UNL     1       4.984   6.193  15.702  0.00  0.00    +0.000 OA
ATOM     28  O   UNL     1       5.245   4.033  16.969  0.00  0.00    +0.000 OA
BRANCH  26  29
ATOM     29  N   UNL     1       6.579   6.086  17.715  0.00  0.00    +0.000 NA
BRANCH  29  31
ATOM     30  C   UNL     1       7.979   5.451  19.710  0.00  0.00    +0.000 C 
ATOM     31  C   UNL     1       7.416   5.030  18.361  0.00  0.00    +0.000 C 
ENDBRANCH  29  31
BRANCH  29  32
ATOM     32  C   UNL     1       7.329   7.073  16.875  0.00  0.00    +0.000 C 
ATOM     33  C   UNL     1       7.723   8.339  17.621  0.00  0.00    +0.000 C 
ENDBRANCH  29  32
ENDBRANCH  26  29
ENDBRANCH  18  26
ENDBRANCH   1  24
TORSDOF 7
ENDMDL
MODEL 6
REMARK VINA RESULT:      -7.2      1.411      1.553
REMARK  Name = 
REMARK  12 active torsions:
REMARK  status: ('A' for Active; 'I' for Inactive)
REMARK    1  A    between atoms: C_1  and  C_2
REMARK    2  A    between atoms: C_2  and  N_3
REMARK    3  A    between atoms: N_3  and  C_4
REMARK    4  A    between atoms: N_3  and  S_6
REMARK    5  A    between atoms: C_4  and  C_5
REMARK    6  A    between atoms: S_6  and  C_9
REMARK    7  A    between atoms: C_11  and  C_12
REMARK    8  A    between atoms: C_13  and  C_14
REMARK    9  A    between atoms: C_15  and  N_16
REMARK   10  A    between atoms: C_17  and  C_19
REMARK   11  A    between atoms: C_21  and  C_22
REMARK   12  A    between atoms: C_29  and  C_30
REMARK                            x       y       z     vdW  Elec       q    Type
REMARK                         _______ _______ _______ _____ _____    ______ ____
ROOT
ATOM      1  N   UNL     1       2.226   8.896  19.012  0.00  0.00    +0.000 N 
ATOM      2  C   UNL     1       1.405   9.598  18.149  0.00  0.00    +0.000 C 
ATOM      3  O   UNL     1       0.910   9.126  17.134  0.00  0.00    +0.000 OA
ATOM      4  H   UNL     1       2.364   9.228  19.954  0.00  0.00    +0.000 HD
ENDROOT
BRANCH   2   5
ATOM      5  C   UNL     1       1.111  10.997  18.532  0.00  0.00    +0.000 A 
ATOM      6  C   UNL     1       2.135  11.930  18.757  0.00  0.00    +0.000 A 
ATOM      7  C   UNL     1       1.836  13.272  19.004  0.00  0.00    +0.000 A 
ATOM      8  N   UNL     1       0.569  13.727  19.082  0.00  0.00    +0.000 NA
ATOM      9  C   UNL     1      -0.385  12.795  18.916  0.00  0.00    +0.000 A 
ATOM     10  O   UNL     1      -1.715  13.076  18.972  0.00  0.00    +0.000 OA
ATOM     11  N   UNL     1      -2.446  11.917  18.767  0.00  0.00    +0.000 NA
ATOM     12  C   UNL     1      -1.547  10.945  18.582  0.00  0.00    +0.000 A 
ATOM     13  C   UNL     1      -2.024   9.558  18.357  0.00  0.00    +0.000 C 
ATOM     14  C   UNL     1      -0.215  11.445  18.655  0.00  0.00    +0.000 A 
BRANCH   7  15
ATOM     15  C   UNL     1       2.962  14.267  19.190  0.00  0.00    +0.000 C 
ATOM     16  C   UNL     1       3.648  14.879  17.988  0.00  0.00    +0.000 C 
ATOM     17  C   UNL     1       2.739  15.719  18.832  0.00  0.00    +0.000 C 
ENDBRANCH   7  15
ENDBRANCH   2   5
BRANCH   1  24
ATOM     18  C   UNL     1       4.027   6.077  17.473  0.00  0.00    +0.000 A 
ATOM     19  C   UNL     1       3.661   5.020  18.312  0.00  0.00    +0.000 A 
ATOM     20  C   UNL     1       2.766   5.236  19.377  0.00  0.00    +0.000 A 
ATOM     21  C   UNL     1       2.349   4.061  20.219  0.00  0.00    +0.000 C 
ATOM     22  C   UNL     1       2.282   6.540  19.626  0.00  0.00    +0.000 A 
ATOM     23  C   UNL     1       1.320   6.832  20.755  0.00  0.00    +0.000 C 
ATOM     24  C   UNL     1       2.648   7.580  18.749  0.00  0.00    +0.000 A 
ATOM     25  C   UNL     1       3.497   7.349  17.663  0.00  0.00    +0.000 A 
BRANCH  18  26
ATOM     26  S   UNL     1       5.297   5.830  16.258  0.00  0.00    +0.000 S 
ATOM     27  O   UNL     1       5.079   6.818  15.223  0.00  0.00    +0.000 OA
ATOM     28  O   UNL     1       5.343   4.417  15.935  0.00  0.00    +0.000 OA
BRANCH  26  29
ATOM     29  N   UNL     1       6.757   6.220  17.076  0.00  0.00    +0.000 NA
BRANCH  29  31
ATOM     30  C   UNL     1       8.066   8.319  17.550  0.00  0.00    +0.000 C 
ATOM     31  C   UNL     1       6.751   7.572  17.713  0.00  0.00    +0.000 C 
ENDBRANCH  29  31
BRANCH  29  32
ATOM     32  C   UNL     1       7.264   5.107  17.940  0.00  0.00    +0.000 C 
ATOM     33  C   UNL     1       7.212   5.413  19.428  0.00  0.00    +0.000 C 
ENDBRANCH  29  32
ENDBRANCH  26  29
ENDBRANCH  18  26
ENDBRANCH   1  24
TORSDOF 7
ENDMDL
MODEL 7
REMARK VINA RESULT:      -7.2      2.401      4.157
REMARK  Name = 
REMARK  12 active torsions:
REMARK  status: ('A' for Active; 'I' for Inactive)
REMARK    1  A    between atoms: C_1  and  C_2
REMARK    2  A    between atoms: C_2  and  N_3
REMARK    3  A    between atoms: N_3  and  C_4
REMARK    4  A    between atoms: N_3  and  S_6
REMARK    5  A    between atoms: C_4  and  C_5
REMARK    6  A    between atoms: S_6  and  C_9
REMARK    7  A    between atoms: C_11  and  C_12
REMARK    8  A    between atoms: C_13  and  C_14
REMARK    9  A    between atoms: C_15  and  N_16
REMARK   10  A    between atoms: C_17  and  C_19
REMARK   11  A    between atoms: C_21  and  C_22
REMARK   12  A    between atoms: C_29  and  C_30
REMARK                            x       y       z     vdW  Elec       q    Type
REMARK                         _______ _______ _______ _____ _____    ______ ____
ROOT
ATOM      1  N   UNL     1       3.558   7.358  18.588  0.00  0.00    +0.000 N 
ATOM      2  C   UNL     1       2.299   7.820  18.252  0.00  0.00    +0.000 C 
ATOM      3  O   UNL     1       1.501   7.202  17.561  0.00  0.00    +0.000 OA
ATOM      4  H   UNL     1       4.047   7.760  19.373  0.00  0.00    +0.000 HD
ENDROOT
BRANCH   2   5
ATOM      5  C   UNL     1       1.926   9.140  18.808  0.00  0.00    +0.000 A 
ATOM      6  C   UNL     1       2.205  10.334  18.125  0.00  0.00    +0.000 A 
ATOM      7  C   UNL     1       1.744  11.559  18.611  0.00  0.00    +0.000 A 
ATOM      8  N   UNL     1       1.054  11.665  19.764  0.00  0.00    +0.000 NA
ATOM      9  C   UNL     1       0.853  10.508  20.419  0.00  0.00    +0.000 A 
ATOM     10  O   UNL     1       0.185  10.430  21.602  0.00  0.00    +0.000 OA
ATOM     11  N   UNL     1       0.143   9.114  22.029  0.00  0.00    +0.000 NA
ATOM     12  C   UNL     1       0.781   8.404  21.093  0.00  0.00    +0.000 A 
ATOM     13  C   UNL     1       0.927   6.939  21.275  0.00  0.00    +0.000 C 
ATOM     14  C   UNL     1       1.248   9.237  20.035  0.00  0.00    +0.000 A 
BRANCH   7  15
ATOM     15  C   UNL     1       2.014  12.824  17.825  0.00  0.00    +0.000 C 
ATOM     16  C   UNL     1       1.814  14.180  18.467  0.00  0.00    +0.000 C 
ATOM     17  C   UNL     1       3.201  13.687  18.190  0.00  0.00    +0.000 C 
ENDBRANCH   7  15
ENDBRANCH   2   5
BRANCH   1  24
ATOM     18  C   UNL     1       4.367   3.777  18.312  0.00  0.00    +0.000 A 
ATOM     19  C   UNL     1       4.925   3.713  17.033  0.00  0.00    +0.000 A 
ATOM     20  C   UNL     1       5.079   4.885  16.267  0.00  0.00    +0.000 A 
ATOM     21  C   UNL     1       5.741   4.785  14.919  0.00  0.00    +0.000 C 
ATOM     22  C   UNL     1       4.616   6.117  16.779  0.00  0.00    +0.000 A 
ATOM     23  C   UNL     1       4.753   7.407  16.003  0.00  0.00    +0.000 C 
ATOM     24  C   UNL     1       4.080   6.154  18.082  0.00  0.00    +0.000 A 
ATOM     25  C   UNL     1       3.976   4.996  18.856  0.00  0.00    +0.000 A 
BRANCH  18  26
ATOM     26  S   UNL     1       4.006   2.273  19.185  0.00  0.00    +0.000 S 
ATOM     27  O   UNL     1       5.050   2.106  20.172  0.00  0.00    +0.000 OA
ATOM     28  O   UNL     1       3.740   1.237  18.205  0.00  0.00    +0.000 OA
BRANCH  26  29
ATOM     29  N   UNL     1       2.532   2.595  20.008  0.00  0.00    +0.000 NA
BRANCH  29  31
ATOM     30  C   UNL     1       0.468   2.861  18.589  0.00  0.00    +0.000 C 
ATOM     31  C   UNL     1       1.343   1.921  19.405  0.00  0.00    +0.000 C 
ENDBRANCH  29  31
BRANCH  29  32
ATOM     32  C   UNL     1       2.650   2.478  21.496  0.00  0.00    +0.000 C 
ATOM     33  C   UNL     1       1.314   2.529  22.222  0.00  0.00    +0.000 C 
ENDBRANCH  29  32
ENDBRANCH  26  29
ENDBRANCH  18  26
ENDBRANCH   1  24
TORSDOF 7
ENDMDL
MODEL 8
REMARK VINA RESULT:      -7.2      1.753      3.345
REMARK  Name = 
REMARK  12 active torsions:
REMARK  status: ('A' for Active; 'I' for Inactive)
REMARK    1  A    between atoms: C_1  and  C_2
REMARK    2  A    between atoms: C_2  and  N_3
REMARK    3  A    between atoms: N_3  and  C_4
REMARK    4  A    between atoms: N_3  and  S_6
REMARK    5  A    between atoms: C_4  and  C_5
REMARK    6  A    between atoms: S_6  and  C_9
REMARK    7  A    between atoms: C_11  and  C_12
REMARK    8  A    between atoms: C_13  and  C_14
REMARK    9  A    between atoms: C_15  and  N_16
REMARK   10  A    between atoms: C_17  and  C_19
REMARK   11  A    between atoms: C_21  and  C_22
REMARK   12  A    between atoms: C_29  and  C_30
REMARK                            x       y       z     vdW  Elec       q    Type
REMARK                         _______ _______ _______ _____ _____    ______ ____
ROOT
ATOM      1  N   UNL     1       1.802   8.776  19.591  0.00  0.00    +0.000 N 
ATOM      2  C   UNL     1       0.995   9.571  18.799  0.00  0.00    +0.000 C 
ATOM      3  O   UNL     1       0.673   9.296  17.651  0.00  0.00    +0.000 OA
ATOM      4  H   UNL     1       1.798   8.897  20.592  0.00  0.00    +0.000 HD
ENDROOT
BRANCH   2   5
ATOM      5  C   UNL     1       0.489  10.809  19.430  0.00  0.00    +0.000 A 
ATOM      6  C   UNL     1      -0.634  10.802  20.273  0.00  0.00    +0.000 A 
ATOM      7  C   UNL     1      -1.026  11.959  20.949  0.00  0.00    +0.000 A 
ATOM      8  N   UNL     1      -0.385  13.136  20.799  0.00  0.00    +0.000 NA
ATOM      9  C   UNL     1       0.651  13.118  19.943  0.00  0.00    +0.000 A 
ATOM     10  O   UNL     1       1.404  14.217  19.665  0.00  0.00    +0.000 OA
ATOM     11  N   UNL     1       2.389  13.888  18.750  0.00  0.00    +0.000 NA
ATOM     12  C   UNL     1       2.228  12.587  18.488  0.00  0.00    +0.000 A 
ATOM     13  C   UNL     1       3.131  11.932  17.510  0.00  0.00    +0.000 C 
ATOM     14  C   UNL     1       1.140  12.037  19.227  0.00  0.00    +0.000 A 
BRANCH   7  15
ATOM     15  C   UNL     1      -2.209  11.909  21.892  0.00  0.00    +0.000 C 
ATOM     16  C   UNL     1      -2.015  11.521  23.343  0.00  0.00    +0.000 C 
ATOM     17  C   UNL     1      -2.331  12.943  22.989  0.00  0.00    +0.000 C 
ENDBRANCH   7  15
ENDBRANCH   2   5
BRANCH   1  24
ATOM     18  C   UNL     1       4.000   6.568  17.628  0.00  0.00    +0.000 A 
ATOM     19  C   UNL     1       3.788   5.336  18.253  0.00  0.00    +0.000 A 
ATOM     20  C   UNL     1       2.868   5.225  19.312  0.00  0.00    +0.000 A 
ATOM     21  C   UNL     1       2.622   3.870  19.918  0.00  0.00    +0.000 C 
ATOM     22  C   UNL     1       2.198   6.380  19.775  0.00  0.00    +0.000 A 
ATOM     23  C   UNL     1       1.200   6.323  20.909  0.00  0.00    +0.000 C 
ATOM     24  C   UNL     1       2.413   7.603  19.110  0.00  0.00    +0.000 A 
ATOM     25  C   UNL     1       3.290   7.695  18.026  0.00  0.00    +0.000 A 
BRANCH  18  26
ATOM     26  S   UNL     1       5.297   6.729  16.427  0.00  0.00    +0.000 S 
ATOM     27  O   UNL     1       6.349   7.499  17.054  0.00  0.00    +0.000 OA
ATOM     28  O   UNL     1       4.703   7.164  15.178  0.00  0.00    +0.000 OA
BRANCH  26  29
ATOM     29  N   UNL     1       5.869   5.125  16.194  0.00  0.00    +0.000 NA
BRANCH  29  31
ATOM     30  C   UNL     1       6.473   4.196  13.932  0.00  0.00    +0.000 C 
ATOM     31  C   UNL     1       5.371   4.481  14.941  0.00  0.00    +0.000 C 
ENDBRANCH  29  31
BRANCH  29  32
ATOM     32  C   UNL     1       7.337   4.979  16.449  0.00  0.00    +0.000 C 
ATOM     33  C   UNL     1       7.672   4.539  17.866  0.00  0.00    +0.000 C 
ENDBRANCH  29  32
ENDBRANCH  26  29
ENDBRANCH  18  26
ENDBRANCH   1  24
TORSDOF 7
ENDMDL
MODEL 9
REMARK VINA RESULT:      -7.2      1.874      2.299
REMARK  Name = 
REMARK  12 active torsions:
REMARK  status: ('A' for Active; 'I' for Inactive)
REMARK    1  A    between atoms: C_1  and  C_2
REMARK    2  A    between atoms: C_2  and  N_3
REMARK    3  A    between atoms: N_3  and  C_4
REMARK    4  A    between atoms: N_3  and  S_6
REMARK    5  A    between atoms: C_4  and  C_5
REMARK    6  A    between atoms: S_6  and  C_9
REMARK    7  A    between atoms: C_11  and  C_12
REMARK    8  A    between atoms: C_13  and  C_14
REMARK    9  A    between atoms: C_15  and  N_16
REMARK   10  A    between atoms: C_17  and  C_19
REMARK   11  A    between atoms: C_21  and  C_22
REMARK   12  A    between atoms: C_29  and  C_30
REMARK                            x       y       z     vdW  Elec       q    Type
REMARK                         _______ _______ _______ _____ _____    ______ ____
ROOT
ATOM      1  N   UNL     1       1.905   8.819  19.414  0.00  0.00    +0.000 N 
ATOM      2  C   UNL     1       1.097   9.608  18.616  0.00  0.00    +0.000 C 
ATOM      3  O   UNL     1       0.741   9.305  17.485  0.00  0.00    +0.000 OA
ATOM      4  H   UNL     1       1.928   8.973  20.411  0.00  0.00    +0.000 HD
ENDROOT
BRANCH   2   5
ATOM      5  C   UNL     1       0.636  10.878  19.218  0.00  0.00    +0.000 A 
ATOM      6  C   UNL     1       1.509  11.718  19.927  0.00  0.00    +0.000 A 
ATOM      7  C   UNL     1       1.082  12.965  20.389  0.00  0.00    +0.000 A 
ATOM      8  N   UNL     1      -0.181  13.404  20.220  0.00  0.00    +0.000 NA
ATOM      9  C   UNL     1      -1.004  12.551  19.587  0.00  0.00    +0.000 A 
ATOM     10  O   UNL     1      -2.313  12.826  19.339  0.00  0.00    +0.000 OA
ATOM     11  N   UNL     1      -2.898  11.759  18.678  0.00  0.00    +0.000 NA
ATOM     12  C   UNL     1      -1.931  10.849  18.524  0.00  0.00    +0.000 A 
ATOM     13  C   UNL     1      -2.254   9.562  17.860  0.00  0.00    +0.000 C 
ATOM     14  C   UNL     1      -0.696  11.301  19.074  0.00  0.00    +0.000 A 
BRANCH   7  15
ATOM     15  C   UNL     1       2.061  13.873  21.103  0.00  0.00    +0.000 C 
ATOM     16  C   UNL     1       3.111  14.633  20.321  0.00  0.00    +0.000 C 
ATOM     17  C   UNL     1       1.954  15.370  20.924  0.00  0.00    +0.000 C 
ENDBRANCH   7  15
ENDBRANCH   2   5
BRANCH   1  24
ATOM     18  C   UNL     1       4.036   6.501  17.507  0.00  0.00    +0.000 A 
ATOM     19  C   UNL     1       3.774   5.287  18.148  0.00  0.00    +0.000 A 
ATOM     20  C   UNL     1       2.840   5.228  19.201  0.00  0.00    +0.000 A 
ATOM     21  C   UNL     1       2.539   3.892  19.825  0.00  0.00    +0.000 C 
ATOM     22  C   UNL     1       2.209   6.414  19.640  0.00  0.00    +0.000 A 
ATOM     23  C   UNL     1       1.199   6.412  20.764  0.00  0.00    +0.000 C 
ATOM     24  C   UNL     1       2.475   7.618  18.957  0.00  0.00    +0.000 A 
ATOM     25  C   UNL     1       3.365   7.660  17.881  0.00  0.00    +0.000 A 
BRANCH  18  26
ATOM     26  S   UNL     1       5.350   6.594  16.316  0.00  0.00    +0.000 S 
ATOM     27  O   UNL     1       6.427   7.328  16.944  0.00  0.00    +0.000 OA
ATOM     28  O   UNL     1       4.784   7.040  15.057  0.00  0.00    +0.000 OA
BRANCH  26  29
ATOM     29  N   UNL     1       5.856   4.966  16.105  0.00  0.00    +0.000 NA
BRANCH  29  31
ATOM     30  C   UNL     1       6.420   3.981  13.856  0.00  0.00    +0.000 C 
ATOM     31  C   UNL     1       5.331   4.325  14.862  0.00  0.00    +0.000 C 
ENDBRANCH  29  31
BRANCH  29  32
ATOM     32  C   UNL     1       7.318   4.765  16.361  0.00  0.00    +0.000 C 
ATOM     33  C   UNL     1       7.659   4.553  17.828  0.00  0.00    +0.000 C 
ENDBRANCH  29  32
ENDBRANCH  26  29
ENDBRANCH  18  26
ENDBRANCH   1  24
TORSDOF 7
ENDMDL
