MODEL 1
REMARK VINA RESULT:      -8.0      0.000      0.000
REMARK  Name = 
REMARK  4 active torsions:
REMARK  status: ('A' for Active; 'I' for Inactive)
REMARK    1  A    between atoms: C_6  and  O_7
REMARK    2  A    between atoms: O_7  and  C_8
REMARK    3  A    between atoms: C_8  and  C_9
REMARK    4  A    between atoms: C_14  and  N_15
REMARK                            x       y       z     vdW  Elec       q    Type
REMARK                         _______ _______ _______ _____ _____    ______ ____
ROOT
ATOM      1  C   UNL     1       3.070   4.797  18.041  0.00  0.00    +0.000 A 
ATOM      2  C   UNL     1       1.796   4.344  18.463  0.00  0.00    +0.000 A 
ATOM      3  C   UNL     1       1.454   2.998  18.427  0.00  0.00    +0.000 A 
ATOM      4  C   UNL     1       2.396   2.075  18.007  0.00  0.00    +0.000 A 
ATOM      5  C   UNL     1       3.668   2.507  17.620  0.00  0.00    +0.000 A 
ATOM      6  C   UNL     1       4.047   3.867  17.604  0.00  0.00    +0.000 A 
ENDROOT
BRANCH   6   7
ATOM      7  N   UNL     1       5.283   4.228  17.095  0.00  0.00    +0.000 N 
ATOM      8  C   UNL     1       5.695   3.882  15.723  0.00  0.00    +0.000 C 
ATOM      9  C   UNL     1       6.365   5.122  15.081  0.00  0.00    +0.000 C 
ATOM     10  N   UNL     1       7.492   5.677  15.862  0.00  0.00    +0.000 NA
ATOM     11  C   UNL     1       7.077   5.892  17.267  0.00  0.00    +0.000 C 
ATOM     12  C   UNL     1       6.434   4.640  17.916  0.00  0.00    +0.000 C 
ATOM     13  H   UNL     1       7.760   6.572  15.456  0.00  0.00    +0.000 HD
ENDBRANCH   6   7
BRANCH   1  14
ATOM     14  C   UNL     1       3.255   6.299  18.012  0.00  0.00    +0.000 C 
BRANCH  14  15
ATOM     15  O   UNL     1       2.775   6.870  19.232  0.00  0.00    +0.000 OA
BRANCH  15  21
ATOM     16  F   UNL     1      -0.073   9.905  21.449  0.00  0.00    +0.000 F 
ATOM     17  C   UNL     1       0.569   9.543  20.329  0.00  0.00    +0.000 A 
ATOM     18  C   UNL     1       0.429  10.328  19.190  0.00  0.00    +0.000 A 
ATOM     19  C   UNL     1       1.094   9.956  18.019  0.00  0.00    +0.000 A 
ATOM     20  C   UNL     1       1.891   8.806  17.998  0.00  0.00    +0.000 A 
ATOM     21  C   UNL     1       2.028   8.016  19.145  0.00  0.00    +0.000 A 
ATOM     22  C   UNL     1       1.359   8.398  20.314  0.00  0.00    +0.000 A 
ATOM     23  F   UNL     1       1.481   7.671  21.433  0.00  0.00    +0.000 F 
ENDBRANCH  15  21
ENDBRANCH  14  15
ENDBRANCH   1  14
TORSDOF 4
ENDMDL
MODEL 2
REMARK VINA RESULT:      -7.8      1.352      2.010
REMARK  Name = 
REMARK  4 active torsions:
REMARK  status: ('A' for Active; 'I' for Inactive)
REMARK    1  A    between atoms: C_6  and  O_7
REMARK    2  A    between atoms: O_7  and  C_8
REMARK    3  A    between atoms: C_8  and  C_9
REMARK    4  A    between atoms: C_14  and  N_15
REMARK                            x       y       z     vdW  Elec       q    Type
REMARK                         _______ _______ _______ _____ _____    ______ ____
ROOT
ATOM      1  C   UNL     1       2.589   4.558  18.184  0.00  0.00    +0.000 A 
ATOM      2  C   UNL     1       1.441   3.896  18.684  0.00  0.00    +0.000 A 
ATOM      3  C   UNL     1       1.435   2.527  18.919  0.00  0.00    +0.000 A 
ATOM      4  C   UNL     1       2.592   1.800  18.697  0.00  0.00    +0.000 A 
ATOM      5  C   UNL     1       3.742   2.448  18.236  0.00  0.00    +0.000 A 
ATOM      6  C   UNL     1       3.783   3.830  17.947  0.00  0.00    +0.000 A 
ENDROOT
BRANCH   6   7
ATOM      7  N   UNL     1       4.922   4.377  17.381  0.00  0.00    +0.000 N 
ATOM      8  C   UNL     1       5.933   5.085  18.186  0.00  0.00    +0.000 C 
ATOM      9  C   UNL     1       7.339   4.619  17.734  0.00  0.00    +0.000 C 
ATOM     10  N   UNL     1       7.595   4.774  16.286  0.00  0.00    +0.000 NA
ATOM     11  C   UNL     1       6.492   4.162  15.509  0.00  0.00    +0.000 C 
ATOM     12  C   UNL     1       5.088   4.653  15.944  0.00  0.00    +0.000 C 
ATOM     13  H   UNL     1       8.465   4.297  16.056  0.00  0.00    +0.000 HD
ENDBRANCH   6   7
BRANCH   1  14
ATOM     14  C   UNL     1       2.410   6.024  17.853  0.00  0.00    +0.000 C 
BRANCH  14  15
ATOM     15  O   UNL     1       2.926   6.826  18.918  0.00  0.00    +0.000 OA
BRANCH  15  21
ATOM     16  F   UNL     1       0.555  10.886  18.545  0.00  0.00    +0.000 F 
ATOM     17  C   UNL     1       0.873   9.806  19.273  0.00  0.00    +0.000 A 
ATOM     18  C   UNL     1       0.335   9.671  20.548  0.00  0.00    +0.000 A 
ATOM     19  C   UNL     1       0.663   8.550  21.312  0.00  0.00    +0.000 A 
ATOM     20  C   UNL     1       1.525   7.576  20.797  0.00  0.00    +0.000 A 
ATOM     21  C   UNL     1       2.069   7.714  19.515  0.00  0.00    +0.000 A 
ATOM     22  C   UNL     1       1.732   8.841  18.756  0.00  0.00    +0.000 A 
ATOM     23  F   UNL     1       2.224   8.997  17.519  0.00  0.00    +0.000 F 
ENDBRANCH  15  21
ENDBRANCH  14  15
ENDBRANCH   1  14
TORSDOF 4
ENDMDL
MODEL 3
REMARK VINA RESULT:      -7.8      0.606      1.191
REMARK  Name = 
REMARK  4 active torsions:
REMARK  status: ('A' for Active; 'I' for Inactive)
REMARK    1  A    between atoms: C_6  and  O_7
REMARK    2  A    between atoms: O_7  and  C_8
REMARK    3  A    between atoms: C_8  and  C_9
REMARK    4  A    between atoms: C_14  and  N_15
REMARK                            x       y       z     vdW  Elec       q    Type
REMARK                         _______ _______ _______ _____ _____    ______ ____
ROOT
ATOM      1  C   UNL     1       2.800   4.842  18.189  0.00  0.00    +0.000 A 
ATOM      2  C   UNL     1       1.585   4.279  18.650  0.00  0.00    +0.000 A 
ATOM      3  C   UNL     1       1.362   2.908  18.622  0.00  0.00    +0.000 A 
ATOM      4  C   UNL     1       2.367   2.071  18.170  0.00  0.00    +0.000 A 
ATOM      5  C   UNL     1       3.584   2.614  17.744  0.00  0.00    +0.000 A 
ATOM      6  C   UNL     1       3.841   4.002  17.719  0.00  0.00    +0.000 A 
ENDROOT
BRANCH   6   7
ATOM      7  N   UNL     1       5.024   4.470  17.172  0.00  0.00    +0.000 N 
ATOM      8  C   UNL     1       6.091   5.056  18.002  0.00  0.00    +0.000 C 
ATOM      9  C   UNL     1       7.452   4.488  17.530  0.00  0.00    +0.000 C 
ATOM     10  N   UNL     1       7.723   4.674  16.088  0.00  0.00    +0.000 NA
ATOM     11  C   UNL     1       6.573   4.190  15.291  0.00  0.00    +0.000 C 
ATOM     12  C   UNL     1       5.215   4.784  15.747  0.00  0.00    +0.000 C 
ATOM     13  H   UNL     1       8.549   4.133  15.839  0.00  0.00    +0.000 HD
ENDBRANCH   6   7
BRANCH   1  14
ATOM     14  C   UNL     1       2.852   6.355  18.157  0.00  0.00    +0.000 C 
BRANCH  14  15
ATOM     15  O   UNL     1       2.337   6.882  19.383  0.00  0.00    +0.000 OA
BRANCH  15  21
ATOM     16  F   UNL     1       0.236  10.336  21.812  0.00  0.00    +0.000 F 
ATOM     17  C   UNL     1       0.730   9.888  20.649  0.00  0.00    +0.000 A 
ATOM     18  C   UNL     1       0.666  10.710  19.529  0.00  0.00    +0.000 A 
ATOM     19  C   UNL     1       1.177  10.249  18.314  0.00  0.00    +0.000 A 
ATOM     20  C   UNL     1       1.746   8.973  18.229  0.00  0.00    +0.000 A 
ATOM     21  C   UNL     1       1.808   8.147  19.356  0.00  0.00    +0.000 A 
ATOM     22  C   UNL     1       1.295   8.619  20.570  0.00  0.00    +0.000 A 
ATOM     23  F   UNL     1       1.351   7.858  21.671  0.00  0.00    +0.000 F 
ENDBRANCH  15  21
ENDBRANCH  14  15
ENDBRANCH   1  14
TORSDOF 4
ENDMDL
MODEL 4
REMARK VINA RESULT:      -7.7      1.259      1.648
REMARK  Name = 
REMARK  4 active torsions:
REMARK  status: ('A' for Active; 'I' for Inactive)
REMARK    1  A    between atoms: C_6  and  O_7
REMARK    2  A    between atoms: O_7  and  C_8
REMARK    3  A    between atoms: C_8  and  C_9
REMARK    4  A    between atoms: C_14  and  N_15
REMARK                            x       y       z     vdW  Elec       q    Type
REMARK                         _______ _______ _______ _____ _____    ______ ____
ROOT
ATOM      1  C   UNL     1       2.725   4.603  18.021  0.00  0.00    +0.000 A 
ATOM      2  C   UNL     1       1.495   4.028  18.426  0.00  0.00    +0.000 A 
ATOM      3  C   UNL     1       1.356   2.657  18.602  0.00  0.00    +0.000 A 
ATOM      4  C   UNL     1       2.457   1.839  18.417  0.00  0.00    +0.000 A 
ATOM      5  C   UNL     1       3.685   2.399  18.050  0.00  0.00    +0.000 A 
ATOM      6  C   UNL     1       3.864   3.781  17.823  0.00  0.00    +0.000 A 
ENDROOT
BRANCH   6   7
ATOM      7  N   UNL     1       5.078   4.246  17.347  0.00  0.00    +0.000 N 
ATOM      8  C   UNL     1       5.543   3.959  15.978  0.00  0.00    +0.000 C 
ATOM      9  C   UNL     1       6.127   5.258  15.372  0.00  0.00    +0.000 C 
ATOM     10  N   UNL     1       7.192   5.884  16.186  0.00  0.00    +0.000 NA
ATOM     11  C   UNL     1       6.733   6.040  17.585  0.00  0.00    +0.000 C 
ATOM     12  C   UNL     1       6.176   4.730  18.199  0.00  0.00    +0.000 C 
ATOM     13  H   UNL     1       7.397   6.805  15.801  0.00  0.00    +0.000 HD
ENDBRANCH   6   7
BRANCH   1  14
ATOM     14  C   UNL     1       2.694   6.090  17.743  0.00  0.00    +0.000 C 
BRANCH  14  15
ATOM     15  O   UNL     1       3.093   6.809  18.913  0.00  0.00    +0.000 OA
BRANCH  15  21
ATOM     16  F   UNL     1       0.558  10.755  18.417  0.00  0.00    +0.000 F 
ATOM     17  C   UNL     1       0.901   9.699  19.168  0.00  0.00    +0.000 A 
ATOM     18  C   UNL     1       0.332   9.555  20.429  0.00  0.00    +0.000 A 
ATOM     19  C   UNL     1       0.686   8.459  21.217  0.00  0.00    +0.000 A 
ATOM     20  C   UNL     1       1.605   7.518  20.740  0.00  0.00    +0.000 A 
ATOM     21  C   UNL     1       2.180   7.665  19.473  0.00  0.00    +0.000 A 
ATOM     22  C   UNL     1       1.817   8.767  18.689  0.00  0.00    +0.000 A 
ATOM     23  F   UNL     1       2.338   8.930  17.466  0.00  0.00    +0.000 F 
ENDBRANCH  15  21
ENDBRANCH  14  15
ENDBRANCH   1  14
TORSDOF 4
ENDMDL
MODEL 5
REMARK VINA RESULT:      -7.7      3.164      5.528
REMARK  Name = 
REMARK  4 active torsions:
REMARK  status: ('A' for Active; 'I' for Inactive)
REMARK    1  A    between atoms: C_6  and  O_7
REMARK    2  A    between atoms: O_7  and  C_8
REMARK    3  A    between atoms: C_8  and  C_9
REMARK    4  A    between atoms: C_14  and  N_15
REMARK                            x       y       z     vdW  Elec       q    Type
REMARK                         _______ _______ _______ _____ _____    ______ ____
ROOT
ATOM      1  C   UNL     1       2.729   6.278  18.615  0.00  0.00    +0.000 A 
ATOM      2  C   UNL     1       2.503   7.656  18.846  0.00  0.00    +0.000 A 
ATOM      3  C   UNL     1       1.812   8.101  19.967  0.00  0.00    +0.000 A 
ATOM      4  C   UNL     1       1.372   7.177  20.899  0.00  0.00    +0.000 A 
ATOM      5  C   UNL     1       1.620   5.816  20.697  0.00  0.00    +0.000 A 
ATOM      6  C   UNL     1       2.283   5.315  19.555  0.00  0.00    +0.000 A 
ENDROOT
BRANCH   6   7
ATOM      7  N   UNL     1       2.386   3.947  19.368  0.00  0.00    +0.000 N 
ATOM      8  C   UNL     1       1.525   3.221  18.417  0.00  0.00    +0.000 C 
ATOM      9  C   UNL     1       2.402   2.225  17.619  0.00  0.00    +0.000 C 
ATOM     10  N   UNL     1       3.186   1.295  18.459  0.00  0.00    +0.000 NA
ATOM     11  C   UNL     1       3.939   2.052  19.485  0.00  0.00    +0.000 C 
ATOM     12  C   UNL     1       3.053   3.026  20.303  0.00  0.00    +0.000 C 
ATOM     13  H   UNL     1       3.847   0.797  17.865  0.00  0.00    +0.000 HD
ENDBRANCH   6   7
BRANCH   1  14
ATOM     14  C   UNL     1       3.378   5.933  17.291  0.00  0.00    +0.000 C 
BRANCH  14  15
ATOM     15  O   UNL     1       4.544   5.136  17.517  0.00  0.00    +0.000 OA
BRANCH  15  21
ATOM     16  F   UNL     1       8.290   5.505  20.359  0.00  0.00    +0.000 F 
ATOM     17  C   UNL     1       7.620   5.939  19.282  0.00  0.00    +0.000 A 
ATOM     18  C   UNL     1       8.141   6.998  18.546  0.00  0.00    +0.000 A 
ATOM     19  C   UNL     1       7.448   7.456  17.424  0.00  0.00    +0.000 A 
ATOM     20  C   UNL     1       6.241   6.854  17.049  0.00  0.00    +0.000 A 
ATOM     21  C   UNL     1       5.716   5.791  17.792  0.00  0.00    +0.000 A 
ATOM     22  C   UNL     1       6.420   5.338  18.914  0.00  0.00    +0.000 A 
ATOM     23  F   UNL     1       5.952   4.312  19.638  0.00  0.00    +0.000 F 
ENDBRANCH  15  21
ENDBRANCH  14  15
ENDBRANCH   1  14
TORSDOF 4
ENDMDL
MODEL 6
REMARK VINA RESULT:      -7.6      2.748      5.714
REMARK  Name = 
REMARK  4 active torsions:
REMARK  status: ('A' for Active; 'I' for Inactive)
REMARK    1  A    between atoms: C_6  and  O_7
REMARK    2  A    between atoms: O_7  and  C_8
REMARK    3  A    between atoms: C_8  and  C_9
REMARK    4  A    between atoms: C_14  and  N_15
REMARK                            x       y       z     vdW  Elec       q    Type
REMARK                         _______ _______ _______ _____ _____    ______ ____
ROOT
ATOM      1  C   UNL     1       2.554   7.232  18.681  0.00  0.00    +0.000 A 
ATOM      2  C   UNL     1       2.063   8.497  19.086  0.00  0.00    +0.000 A 
ATOM      3  C   UNL     1       1.322   8.650  20.252  0.00  0.00    +0.000 A 
ATOM      4  C   UNL     1       1.095   7.546  21.056  0.00  0.00    +0.000 A 
ATOM      5  C   UNL     1       1.604   6.298  20.683  0.00  0.00    +0.000 A 
ATOM      6  C   UNL     1       2.329   6.089  19.489  0.00  0.00    +0.000 A 
ENDROOT
BRANCH   6   7
ATOM      7  N   UNL     1       2.698   4.804  19.129  0.00  0.00    +0.000 N 
ATOM      8  C   UNL     1       2.079   4.102  17.991  0.00  0.00    +0.000 C 
ATOM      9  C   UNL     1       3.195   3.405  17.174  0.00  0.00    +0.000 C 
ATOM     10  N   UNL     1       4.053   2.498  17.967  0.00  0.00    +0.000 NA
ATOM     11  C   UNL     1       4.554   3.200  19.171  0.00  0.00    +0.000 C 
ATOM     12  C   UNL     1       3.431   3.872  20.002  0.00  0.00    +0.000 C 
ATOM     13  H   UNL     1       4.847   2.217  17.395  0.00  0.00    +0.000 HD
ENDBRANCH   6   7
BRANCH   1  14
ATOM     14  C   UNL     1       3.230   7.194  17.327  0.00  0.00    +0.000 C 
BRANCH  14  15
ATOM     15  O   UNL     1       4.649   7.250  17.494  0.00  0.00    +0.000 OA
BRANCH  15  21
ATOM     16  F   UNL     1       8.196   4.148  17.706  0.00  0.00    +0.000 F 
ATOM     17  C   UNL     1       7.232   4.742  16.987  0.00  0.00    +0.000 A 
ATOM     18  C   UNL     1       7.076   4.391  15.651  0.00  0.00    +0.000 A 
ATOM     19  C   UNL     1       6.076   5.006  14.895  0.00  0.00    +0.000 A 
ATOM     20  C   UNL     1       5.243   5.966  15.481  0.00  0.00    +0.000 A 
ATOM     21  C   UNL     1       5.403   6.321  16.825  0.00  0.00    +0.000 A 
ATOM     22  C   UNL     1       6.408   5.697  17.574  0.00  0.00    +0.000 A 
ATOM     23  F   UNL     1       6.578   6.003  18.867  0.00  0.00    +0.000 F 
ENDBRANCH  15  21
ENDBRANCH  14  15
ENDBRANCH   1  14
TORSDOF 4
ENDMDL
MODEL 7
REMARK VINA RESULT:      -7.6      2.079      4.038
REMARK  Name = 
REMARK  4 active torsions:
REMARK  status: ('A' for Active; 'I' for Inactive)
REMARK    1  A    between atoms: C_6  and  O_7
REMARK    2  A    between atoms: O_7  and  C_8
REMARK    3  A    between atoms: C_8  and  C_9
REMARK    4  A    between atoms: C_14  and  N_15
REMARK                            x       y       z     vdW  Elec       q    Type
REMARK                         _______ _______ _______ _____ _____    ______ ____
ROOT
ATOM      1  C   UNL     1       3.733   5.803  17.961  0.00  0.00    +0.000 A 
ATOM      2  C   UNL     1       4.503   6.613  17.091  0.00  0.00    +0.000 A 
ATOM      3  C   UNL     1       5.257   6.061  16.062  0.00  0.00    +0.000 A 
ATOM      4  C   UNL     1       5.223   4.693  15.860  0.00  0.00    +0.000 A 
ATOM      5  C   UNL     1       4.439   3.887  16.692  0.00  0.00    +0.000 A 
ATOM      6  C   UNL     1       3.688   4.398  17.773  0.00  0.00    +0.000 A 
ENDROOT
BRANCH   6   7
ATOM      7  N   UNL     1       3.033   3.525  18.625  0.00  0.00    +0.000 N 
ATOM      8  C   UNL     1       3.750   2.751  19.653  0.00  0.00    +0.000 C 
ATOM      9  C   UNL     1       2.940   2.810  20.971  0.00  0.00    +0.000 C 
ATOM     10  N   UNL     1       1.534   2.369  20.843  0.00  0.00    +0.000 NA
ATOM     11  C   UNL     1       0.882   3.077  19.717  0.00  0.00    +0.000 C 
ATOM     12  C   UNL     1       1.681   2.990  18.392  0.00  0.00    +0.000 C 
ATOM     13  H   UNL     1       1.041   2.595  21.705  0.00  0.00    +0.000 HD
ENDBRANCH   6   7
BRANCH   1  14
ATOM     14  C   UNL     1       3.069   6.526  19.113  0.00  0.00    +0.000 C 
BRANCH  14  15
ATOM     15  O   UNL     1       2.532   7.770  18.658  0.00  0.00    +0.000 OA
BRANCH  15  21
ATOM     16  F   UNL     1      -0.493  11.352  19.178  0.00  0.00    +0.000 F 
ATOM     17  C   UNL     1       0.124  10.285  19.706  0.00  0.00    +0.000 A 
ATOM     18  C   UNL     1      -0.142   9.939  21.027  0.00  0.00    +0.000 A 
ATOM     19  C   UNL     1       0.497   8.830  21.584  0.00  0.00    +0.000 A 
ATOM     20  C   UNL     1       1.397   8.079  20.819  0.00  0.00    +0.000 A 
ATOM     21  C   UNL     1       1.666   8.430  19.492  0.00  0.00    +0.000 A 
ATOM     22  C   UNL     1       1.018   9.543  18.941  0.00  0.00    +0.000 A 
ATOM     23  F   UNL     1       1.243   9.897  17.669  0.00  0.00    +0.000 F 
ENDBRANCH  15  21
ENDBRANCH  14  15
ENDBRANCH   1  14
TORSDOF 4
ENDMDL
MODEL 8
REMARK VINA RESULT:      -7.5      1.625      3.659
REMARK  Name = 
REMARK  4 active torsions:
REMARK  status: ('A' for Active; 'I' for Inactive)
REMARK    1  A    between atoms: C_6  and  O_7
REMARK    2  A    between atoms: O_7  and  C_8
REMARK    3  A    between atoms: C_8  and  C_9
REMARK    4  A    between atoms: C_14  and  N_15
REMARK                            x       y       z     vdW  Elec       q    Type
REMARK                         _______ _______ _______ _____ _____    ______ ____
ROOT
ATOM      1  C   UNL     1       4.558   5.486  17.880  0.00  0.00    +0.000 A 
ATOM      2  C   UNL     1       5.413   6.258  17.057  0.00  0.00    +0.000 A 
ATOM      3  C   UNL     1       5.989   5.728  15.908  0.00  0.00    +0.000 A 
ATOM      4  C   UNL     1       5.686   4.429  15.539  0.00  0.00    +0.000 A 
ATOM      5  C   UNL     1       4.815   3.669  16.327  0.00  0.00    +0.000 A 
ATOM      6  C   UNL     1       4.238   4.151  17.522  0.00  0.00    +0.000 A 
ENDROOT
BRANCH   6   7
ATOM      7  N   UNL     1       3.482   3.300  18.310  0.00  0.00    +0.000 N 
ATOM      8  C   UNL     1       4.038   2.641  19.505  0.00  0.00    +0.000 C 
ATOM      9  C   UNL     1       3.002   2.740  20.651  0.00  0.00    +0.000 C 
ATOM     10  N   UNL     1       1.665   2.207  20.311  0.00  0.00    +0.000 NA
ATOM     11  C   UNL     1       1.194   2.798  19.037  0.00  0.00    +0.000 C 
ATOM     12  C   UNL     1       2.222   2.670  17.884  0.00  0.00    +0.000 C 
ATOM     13  H   UNL     1       1.015   2.461  21.052  0.00  0.00    +0.000 HD
ENDBRANCH   6   7
BRANCH   1  14
ATOM     14  C   UNL     1       4.111   6.149  19.165  0.00  0.00    +0.000 C 
BRANCH  14  15
ATOM     15  O   UNL     1       2.690   6.311  19.156  0.00  0.00    +0.000 OA
BRANCH  15  21
ATOM     16  F   UNL     1       0.363   9.868  21.199  0.00  0.00    +0.000 F 
ATOM     17  C   UNL     1       0.997   9.379  20.124  0.00  0.00    +0.000 A 
ATOM     18  C   UNL     1       1.099  10.171  18.985  0.00  0.00    +0.000 A 
ATOM     19  C   UNL     1       1.756   9.668  17.860  0.00  0.00    +0.000 A 
ATOM     20  C   UNL     1       2.303   8.380  17.883  0.00  0.00    +0.000 A 
ATOM     21  C   UNL     1       2.197   7.583  19.029  0.00  0.00    +0.000 A 
ATOM     22  C   UNL     1       1.538   8.098  20.152  0.00  0.00    +0.000 A 
ATOM     23  F   UNL     1       1.432   7.367  21.269  0.00  0.00    +0.000 F 
ENDBRANCH  15  21
ENDBRANCH  14  15
ENDBRANCH   1  14
TORSDOF 4
ENDMDL
MODEL 9
REMARK VINA RESULT:      -7.5      1.711      2.016
REMARK  Name = 
REMARK  4 active torsions:
REMARK  status: ('A' for Active; 'I' for Inactive)
REMARK    1  A    between atoms: C_6  and  O_7
REMARK    2  A    between atoms: O_7  and  C_8
REMARK    3  A    between atoms: C_8  and  C_9
REMARK    4  A    between atoms: C_14  and  N_15
REMARK                            x       y       z     vdW  Elec       q    Type
REMARK                         _______ _______ _______ _____ _____    ______ ____
ROOT
ATOM      1  C   UNL     1       2.606   4.915  19.078  0.00  0.00    +0.000 A 
ATOM      2  C   UNL     1       1.570   4.418  19.905  0.00  0.00    +0.000 A 
ATOM      3  C   UNL     1       1.724   3.249  20.641  0.00  0.00    +0.000 A 
ATOM      4  C   UNL     1       2.934   2.578  20.594  0.00  0.00    +0.000 A 
ATOM      5  C   UNL     1       3.976   3.078  19.806  0.00  0.00    +0.000 A 
ATOM      6  C   UNL     1       3.852   4.240  19.013  0.00  0.00    +0.000 A 
ENDROOT
BRANCH   6   7
ATOM      7  N   UNL     1       4.886   4.605  18.168  0.00  0.00    +0.000 N 
ATOM      8  C   UNL     1       5.022   4.048  16.811  0.00  0.00    +0.000 C 
ATOM      9  C   UNL     1       5.366   5.200  15.836  0.00  0.00    +0.000 C 
ATOM     10  N   UNL     1       6.558   5.987  16.220  0.00  0.00    +0.000 NA
ATOM     11  C   UNL     1       6.444   6.422  17.630  0.00  0.00    +0.000 C 
ATOM     12  C   UNL     1       6.128   5.261  18.608  0.00  0.00    +0.000 C 
ATOM     13  H   UNL     1       6.611   6.811  15.623  0.00  0.00    +0.000 HD
ENDBRANCH   6   7
BRANCH   1  14
ATOM     14  C   UNL     1       2.252   6.122  18.236  0.00  0.00    +0.000 C 
BRANCH  14  15
ATOM     15  O   UNL     1       2.783   7.304  18.839  0.00  0.00    +0.000 OA
BRANCH  15  21
ATOM     16  F   UNL     1       0.084  11.153  18.460  0.00  0.00    +0.000 F 
ATOM     17  C   UNL     1       0.533  10.136  19.209  0.00  0.00    +0.000 A 
ATOM     18  C   UNL     1       0.092  10.021  20.523  0.00  0.00    +0.000 A 
ATOM     19  C   UNL     1       0.555   8.965  21.309  0.00  0.00    +0.000 A 
ATOM     20  C   UNL     1       1.456   8.035  20.777  0.00  0.00    +0.000 A 
ATOM     21  C   UNL     1       1.901   8.153  19.456  0.00  0.00    +0.000 A 
ATOM     22  C   UNL     1       1.428   9.214  18.675  0.00  0.00    +0.000 A 
ATOM     23  F   UNL     1       1.824   9.348  17.402  0.00  0.00    +0.000 F 
ENDBRANCH  15  21
ENDBRANCH  14  15
ENDBRANCH   1  14
TORSDOF 4
ENDMDL
