MODEL 1
REMARK VINA RESULT:      -8.7      0.000      0.000
REMARK  Name = 
REMARK  7 active torsions:
REMARK  status: ('A' for Active; 'I' for Inactive)
REMARK    1  A    between atoms: C_3  and  C_4
REMARK    2  A    between atoms: C_4  and  C_5
REMARK    3  A    between atoms: C_12  and  C_13
REMARK    4  A    between atoms: C_20  and  O_21
REMARK    5  A    between atoms: N_22  and  C_23
REMARK    6  A    between atoms: C_23  and  C_24
REMARK    7  A    between atoms: C_24  and  C_25
REMARK                            x       y       z     vdW  Elec       q    Type
REMARK                         _______ _______ _______ _____ _____    ______ ____
ROOT
ATOM      1  O   UNL     1       2.312   5.669  18.047  0.00  0.00    +0.000 OA
ATOM      2  C   UNL     1       2.224   4.773  18.870  0.00  0.00    +0.000 C 
ATOM      3  C   UNL     1       2.587   3.314  18.657  0.00  0.00    +0.000 C 
ATOM      4  N   UNL     1       2.767   2.778  20.037  0.00  0.00    +0.000 NA
ATOM      5  C   UNL     1       2.263   3.735  20.745  0.00  0.00    +0.000 C 
ATOM      6  N   UNL     1       1.764   4.828  20.149  0.00  0.00    +0.000 N 
ENDROOT
BRANCH   5   7
ATOM      7  O   UNL     1       2.228   3.661  22.077  0.00  0.00    +0.000 OA
ATOM      8  H   UNL     1       3.131   3.458  22.374  0.00  0.00    +0.000 HD
ENDBRANCH   5   7
BRANCH   3   9
ATOM      9  C   UNL     1       3.763   3.078  17.727  0.00  0.00    +0.000 C 
BRANCH   9  10
ATOM     10  C   UNL     1       5.076   3.615  18.269  0.00  0.00    +0.000 C 
ATOM     11  O   UNL     1       5.450   3.347  19.404  0.00  0.00    +0.000 OA
ATOM     12  N   UNL     1       5.853   4.376  17.398  0.00  0.00    +0.000 N 
ATOM     13  C   UNL     1       7.196   4.756  17.858  0.00  0.00    +0.000 C 
ATOM     14  C   UNL     1       7.302   6.244  18.179  0.00  0.00    +0.000 C 
ATOM     15  C   UNL     1       6.643   7.149  17.146  0.00  0.00    +0.000 C 
ATOM     16  C   UNL     1       5.270   6.633  16.706  0.00  0.00    +0.000 C 
ATOM     17  C   UNL     1       5.316   5.153  16.263  0.00  0.00    +0.000 C 
BRANCH  17  18
ATOM     18  C   UNL     1       6.036   4.897  14.948  0.00  0.00    +0.000 A 
ATOM     19  C   UNL     1       5.604   3.930  14.029  0.00  0.00    +0.000 A 
ATOM     20  C   UNL     1       6.289   3.732  12.833  0.00  0.00    +0.000 A 
ATOM     21  C   UNL     1       7.420   4.490  12.595  0.00  0.00    +0.000 A 
ATOM     22  N   UNL     1       7.906   5.393  13.468  0.00  0.00    +0.000 NA
ATOM     23  C   UNL     1       7.215   5.566  14.620  0.00  0.00    +0.000 A 
ENDBRANCH  17  18
ENDBRANCH   9  10
ENDBRANCH   3   9
BRANCH   6  24
ATOM     24  C   UNL     1       1.161   5.978  20.807  0.00  0.00    +0.000 C 
BRANCH  24  25
ATOM     25  C   UNL     1       2.053   7.228  20.794  0.00  0.00    +0.000 C 
BRANCH  25  26
ATOM     26  C   UNL     1       1.314   8.442  20.285  0.00  0.00    +0.000 A 
ATOM     27  C   UNL     1       1.573   8.936  18.998  0.00  0.00    +0.000 A 
ATOM     28  C   UNL     1       0.940  10.095  18.545  0.00  0.00    +0.000 A 
ATOM     29  C   UNL     1       0.040  10.767  19.369  0.00  0.00    +0.000 A 
ATOM     30  C   UNL     1      -0.241  10.272  20.642  0.00  0.00    +0.000 A 
ATOM     31  C   UNL     1       0.392   9.115  21.099  0.00  0.00    +0.000 A 
ENDBRANCH  25  26
ENDBRANCH  24  25
ENDBRANCH   6  24
TORSDOF 7
ENDMDL
MODEL 2
REMARK VINA RESULT:      -8.6      0.466      1.039
REMARK  Name = 
REMARK  7 active torsions:
REMARK  status: ('A' for Active; 'I' for Inactive)
REMARK    1  A    between atoms: C_3  and  C_4
REMARK    2  A    between atoms: C_4  and  C_5
REMARK    3  A    between atoms: C_12  and  C_13
REMARK    4  A    between atoms: C_20  and  O_21
REMARK    5  A    between atoms: N_22  and  C_23
REMARK    6  A    between atoms: C_23  and  C_24
REMARK    7  A    between atoms: C_24  and  C_25
REMARK                            x       y       z     vdW  Elec       q    Type
REMARK                         _______ _______ _______ _____ _____    ______ ____
ROOT
ATOM      1  O   UNL     1       2.400   5.736  18.066  0.00  0.00    +0.000 OA
ATOM      2  C   UNL     1       2.239   4.811  18.844  0.00  0.00    +0.000 C 
ATOM      3  C   UNL     1       2.521   3.344  18.571  0.00  0.00    +0.000 C 
ATOM      4  N   UNL     1       2.635   2.735  19.928  0.00  0.00    +0.000 NA
ATOM      5  C   UNL     1       2.170   3.688  20.669  0.00  0.00    +0.000 C 
ATOM      6  N   UNL     1       1.752   4.835  20.114  0.00  0.00    +0.000 N 
ENDROOT
BRANCH   5   7
ATOM      7  O   UNL     1       2.098   3.556  21.995  0.00  0.00    +0.000 OA
ATOM      8  H   UNL     1       2.528   2.714  22.220  0.00  0.00    +0.000 HD
ENDBRANCH   5   7
BRANCH   3   9
ATOM      9  C   UNL     1       3.704   3.080  17.658  0.00  0.00    +0.000 C 
BRANCH   9  10
ATOM     10  C   UNL     1       5.018   3.606  18.207  0.00  0.00    +0.000 C 
ATOM     11  O   UNL     1       5.382   3.336  19.346  0.00  0.00    +0.000 OA
ATOM     12  N   UNL     1       5.808   4.357  17.340  0.00  0.00    +0.000 N 
ATOM     13  C   UNL     1       7.151   4.725  17.809  0.00  0.00    +0.000 C 
ATOM     14  C   UNL     1       7.269   6.213  18.127  0.00  0.00    +0.000 C 
ATOM     15  C   UNL     1       6.625   7.122  17.088  0.00  0.00    +0.000 C 
ATOM     16  C   UNL     1       5.250   6.618  16.640  0.00  0.00    +0.000 C 
ATOM     17  C   UNL     1       5.285   5.136  16.200  0.00  0.00    +0.000 C 
BRANCH  17  18
ATOM     18  C   UNL     1       6.012   4.872  14.891  0.00  0.00    +0.000 A 
ATOM     19  C   UNL     1       5.587   3.896  13.978  0.00  0.00    +0.000 A 
ATOM     20  C   UNL     1       6.277   3.690  12.786  0.00  0.00    +0.000 A 
ATOM     21  C   UNL     1       7.407   4.448  12.547  0.00  0.00    +0.000 A 
ATOM     22  N   UNL     1       7.888   5.359  13.415  0.00  0.00    +0.000 NA
ATOM     23  C   UNL     1       7.191   5.540  14.563  0.00  0.00    +0.000 A 
ENDBRANCH  17  18
ENDBRANCH   9  10
ENDBRANCH   3   9
BRANCH   6  24
ATOM     24  C   UNL     1       1.201   5.988  20.812  0.00  0.00    +0.000 C 
BRANCH  24  25
ATOM     25  C   UNL     1       2.062   7.253  20.677  0.00  0.00    +0.000 C 
BRANCH  25  26
ATOM     26  C   UNL     1       1.248   8.511  20.864  0.00  0.00    +0.000 A 
ATOM     27  C   UNL     1       0.806   8.880  22.143  0.00  0.00    +0.000 A 
ATOM     28  C   UNL     1      -0.001  10.006  22.314  0.00  0.00    +0.000 A 
ATOM     29  C   UNL     1      -0.369  10.776  21.213  0.00  0.00    +0.000 A 
ATOM     30  C   UNL     1       0.083  10.430  19.940  0.00  0.00    +0.000 A 
ATOM     31  C   UNL     1       0.888   9.302  19.765  0.00  0.00    +0.000 A 
ENDBRANCH  25  26
ENDBRANCH  24  25
ENDBRANCH   6  24
TORSDOF 7
ENDMDL
MODEL 3
REMARK VINA RESULT:      -8.5      0.598      1.265
REMARK  Name = 
REMARK  7 active torsions:
REMARK  status: ('A' for Active; 'I' for Inactive)
REMARK    1  A    between atoms: C_3  and  C_4
REMARK    2  A    between atoms: C_4  and  C_5
REMARK    3  A    between atoms: C_12  and  C_13
REMARK    4  A    between atoms: C_20  and  O_21
REMARK    5  A    between atoms: N_22  and  C_23
REMARK    6  A    between atoms: C_23  and  C_24
REMARK    7  A    between atoms: C_24  and  C_25
REMARK                            x       y       z     vdW  Elec       q    Type
REMARK                         _______ _______ _______ _____ _____    ______ ____
ROOT
ATOM      1  O   UNL     1       2.247   5.620  17.992  0.00  0.00    +0.000 OA
ATOM      2  C   UNL     1       2.178   4.736  18.830  0.00  0.00    +0.000 C 
ATOM      3  C   UNL     1       2.531   3.273  18.630  0.00  0.00    +0.000 C 
ATOM      4  N   UNL     1       2.745   2.756  20.013  0.00  0.00    +0.000 NA
ATOM      5  C   UNL     1       2.263   3.726  20.719  0.00  0.00    +0.000 C 
ATOM      6  N   UNL     1       1.753   4.812  20.120  0.00  0.00    +0.000 N 
ENDROOT
BRANCH   5   7
ATOM      7  O   UNL     1       2.263   3.672  22.052  0.00  0.00    +0.000 OA
ATOM      8  H   UNL     1       3.109   4.045  22.352  0.00  0.00    +0.000 HD
ENDBRANCH   5   7
BRANCH   3   9
ATOM      9  C   UNL     1       3.681   3.019  17.673  0.00  0.00    +0.000 C 
BRANCH   9  10
ATOM     10  C   UNL     1       5.009   3.561  18.171  0.00  0.00    +0.000 C 
ATOM     11  O   UNL     1       5.401   3.333  19.309  0.00  0.00    +0.000 OA
ATOM     12  N   UNL     1       5.778   4.279  17.257  0.00  0.00    +0.000 N 
ATOM     13  C   UNL     1       7.132   4.662  17.678  0.00  0.00    +0.000 C 
ATOM     14  C   UNL     1       7.260   6.160  17.940  0.00  0.00    +0.000 C 
ATOM     15  C   UNL     1       6.592   7.032  16.884  0.00  0.00    +0.000 C 
ATOM     16  C   UNL     1       5.206   6.514  16.489  0.00  0.00    +0.000 C 
ATOM     17  C   UNL     1       5.228   5.018  16.103  0.00  0.00    +0.000 C 
BRANCH  17  18
ATOM     18  C   UNL     1       5.922   4.704  14.787  0.00  0.00    +0.000 A 
ATOM     19  C   UNL     1       7.112   5.334  14.394  0.00  0.00    +0.000 A 
ATOM     20  C   UNL     1       7.719   5.013  13.183  0.00  0.00    +0.000 A 
ATOM     21  C   UNL     1       7.100   4.084  12.369  0.00  0.00    +0.000 A 
ATOM     22  N   UNL     1       5.930   3.491  12.674  0.00  0.00    +0.000 NA
ATOM     23  C   UNL     1       5.367   3.821  13.861  0.00  0.00    +0.000 A 
ENDBRANCH  17  18
ENDBRANCH   9  10
ENDBRANCH   3   9
BRANCH   6  24
ATOM     24  C   UNL     1       1.171   5.974  20.777  0.00  0.00    +0.000 C 
BRANCH  24  25
ATOM     25  C   UNL     1       2.073   7.217  20.733  0.00  0.00    +0.000 C 
BRANCH  25  26
ATOM     26  C   UNL     1       1.361   8.408  20.138  0.00  0.00    +0.000 A 
ATOM     27  C   UNL     1       0.392   9.094  20.884  0.00  0.00    +0.000 A 
ATOM     28  C   UNL     1      -0.316  10.156  20.317  0.00  0.00    +0.000 A 
ATOM     29  C   UNL     1      -0.058  10.546  19.005  0.00  0.00    +0.000 A 
ATOM     30  C   UNL     1       0.920   9.885  18.263  0.00  0.00    +0.000 A 
ATOM     31  C   UNL     1       1.627   8.820  18.826  0.00  0.00    +0.000 A 
ENDBRANCH  25  26
ENDBRANCH  24  25
ENDBRANCH   6  24
TORSDOF 7
ENDMDL
MODEL 4
REMARK VINA RESULT:      -8.4      2.503      3.868
REMARK  Name = 
REMARK  7 active torsions:
REMARK  status: ('A' for Active; 'I' for Inactive)
REMARK    1  A    between atoms: C_3  and  C_4
REMARK    2  A    between atoms: C_4  and  C_5
REMARK    3  A    between atoms: C_12  and  C_13
REMARK    4  A    between atoms: C_20  and  O_21
REMARK    5  A    between atoms: N_22  and  C_23
REMARK    6  A    between atoms: C_23  and  C_24
REMARK    7  A    between atoms: C_24  and  C_25
REMARK                            x       y       z     vdW  Elec       q    Type
REMARK                         _______ _______ _______ _____ _____    ______ ____
ROOT
ATOM      1  O   UNL     1       1.545   7.339  20.770  0.00  0.00    +0.000 OA
ATOM      2  C   UNL     1       1.655   8.079  19.807  0.00  0.00    +0.000 C 
ATOM      3  C   UNL     1       2.565   7.871  18.609  0.00  0.00    +0.000 C 
ATOM      4  N   UNL     1       1.978   8.743  17.550  0.00  0.00    +0.000 NA
ATOM      5  C   UNL     1       1.151   9.455  18.243  0.00  0.00    +0.000 C 
ATOM      6  N   UNL     1       1.037   9.266  19.566  0.00  0.00    +0.000 N 
ENDROOT
BRANCH   5   7
ATOM      7  O   UNL     1       0.392  10.388  17.663  0.00  0.00    +0.000 OA
ATOM      8  H   UNL     1       0.519  10.300  16.703  0.00  0.00    +0.000 HD
ENDBRANCH   5   7
BRANCH   3   9
ATOM      9  C   UNL     1       2.761   6.423  18.200  0.00  0.00    +0.000 C 
BRANCH   9  10
ATOM     10  C   UNL     1       3.914   5.745  18.919  0.00  0.00    +0.000 C 
ATOM     11  O   UNL     1       3.792   5.336  20.067  0.00  0.00    +0.000 OA
ATOM     12  N   UNL     1       5.089   5.565  18.193  0.00  0.00    +0.000 N 
ATOM     13  C   UNL     1       6.147   4.763  18.824  0.00  0.00    +0.000 C 
ATOM     14  C   UNL     1       7.340   5.611  19.257  0.00  0.00    +0.000 C 
ATOM     15  C   UNL     1       7.776   6.641  18.222  0.00  0.00    +0.000 C 
ATOM     16  C   UNL     1       6.590   7.384  17.600  0.00  0.00    +0.000 C 
ATOM     17  C   UNL     1       5.511   6.416  17.063  0.00  0.00    +0.000 C 
BRANCH  17  18
ATOM     18  C   UNL     1       5.909   5.634  15.821  0.00  0.00    +0.000 A 
ATOM     19  C   UNL     1       5.097   4.633  15.269  0.00  0.00    +0.000 A 
ATOM     20  C   UNL     1       5.496   3.945  14.126  0.00  0.00    +0.000 A 
ATOM     21  C   UNL     1       6.724   4.253  13.574  0.00  0.00    +0.000 A 
ATOM     22  N   UNL     1       7.565   5.166  14.096  0.00  0.00    +0.000 NA
ATOM     23  C   UNL     1       7.146   5.822  15.206  0.00  0.00    +0.000 A 
ENDBRANCH  17  18
ENDBRANCH   9  10
ENDBRANCH   3   9
BRANCH   6  24
ATOM     24  C   UNL     1       0.161   9.991  20.475  0.00  0.00    +0.000 C 
BRANCH  24  25
ATOM     25  C   UNL     1       0.683  11.388  20.845  0.00  0.00    +0.000 C 
BRANCH  25  26
ATOM     26  C   UNL     1      -0.248  12.104  21.794  0.00  0.00    +0.000 A 
ATOM     27  C   UNL     1      -1.305  11.409  22.400  0.00  0.00    +0.000 A 
ATOM     28  C   UNL     1      -2.208  12.079  23.228  0.00  0.00    +0.000 A 
ATOM     29  C   UNL     1      -2.061  13.444  23.463  0.00  0.00    +0.000 A 
ATOM     30  C   UNL     1      -1.000  14.139  22.882  0.00  0.00    +0.000 A 
ATOM     31  C   UNL     1      -0.097  13.472  22.052  0.00  0.00    +0.000 A 
ENDBRANCH  25  26
ENDBRANCH  24  25
ENDBRANCH   6  24
TORSDOF 7
ENDMDL
MODEL 5
REMARK VINA RESULT:      -8.4      0.797      1.194
REMARK  Name = 
REMARK  7 active torsions:
REMARK  status: ('A' for Active; 'I' for Inactive)
REMARK    1  A    between atoms: C_3  and  C_4
REMARK    2  A    between atoms: C_4  and  C_5
REMARK    3  A    between atoms: C_12  and  C_13
REMARK    4  A    between atoms: C_20  and  O_21
REMARK    5  A    between atoms: N_22  and  C_23
REMARK    6  A    between atoms: C_23  and  C_24
REMARK    7  A    between atoms: C_24  and  C_25
REMARK                            x       y       z     vdW  Elec       q    Type
REMARK                         _______ _______ _______ _____ _____    ______ ____
ROOT
ATOM      1  O   UNL     1       2.335   5.854  18.049  0.00  0.00    +0.000 OA
ATOM      2  C   UNL     1       2.217   4.938  18.846  0.00  0.00    +0.000 C 
ATOM      3  C   UNL     1       2.480   3.467  18.576  0.00  0.00    +0.000 C 
ATOM      4  N   UNL     1       2.668   2.875  19.932  0.00  0.00    +0.000 NA
ATOM      5  C   UNL     1       2.247   3.838  20.686  0.00  0.00    +0.000 C 
ATOM      6  N   UNL     1       1.801   4.979  20.141  0.00  0.00    +0.000 N 
ENDROOT
BRANCH   5   7
ATOM      7  O   UNL     1       2.249   3.722  22.015  0.00  0.00    +0.000 OA
ATOM      8  H   UNL     1       3.132   3.406  22.272  0.00  0.00    +0.000 HD
ENDBRANCH   5   7
BRANCH   3   9
ATOM      9  C   UNL     1       3.609   3.189  17.601  0.00  0.00    +0.000 C 
BRANCH   9  10
ATOM     10  C   UNL     1       4.968   3.637  18.110  0.00  0.00    +0.000 C 
ATOM     11  O   UNL     1       5.338   3.370  19.247  0.00  0.00    +0.000 OA
ATOM     12  N   UNL     1       5.787   4.312  17.208  0.00  0.00    +0.000 N 
ATOM     13  C   UNL     1       7.162   4.599  17.640  0.00  0.00    +0.000 C 
ATOM     14  C   UNL     1       7.387   6.083  17.919  0.00  0.00    +0.000 C 
ATOM     15  C   UNL     1       6.783   7.009  16.871  0.00  0.00    +0.000 C 
ATOM     16  C   UNL     1       5.368   6.590  16.465  0.00  0.00    +0.000 C 
ATOM     17  C   UNL     1       5.293   5.099  16.061  0.00  0.00    +0.000 C 
BRANCH  17  18
ATOM     18  C   UNL     1       5.970   4.755  14.744  0.00  0.00    +0.000 A 
ATOM     19  C   UNL     1       7.135   5.402  14.305  0.00  0.00    +0.000 A 
ATOM     20  C   UNL     1       7.728   5.053  13.095  0.00  0.00    +0.000 A 
ATOM     21  C   UNL     1       7.121   4.078  12.328  0.00  0.00    +0.000 A 
ATOM     22  N   UNL     1       5.973   3.465  12.677  0.00  0.00    +0.000 NA
ATOM     23  C   UNL     1       5.423   3.824  13.863  0.00  0.00    +0.000 A 
ENDBRANCH  17  18
ENDBRANCH   9  10
ENDBRANCH   3   9
BRANCH   6  24
ATOM     24  C   UNL     1       1.293   6.142  20.854  0.00  0.00    +0.000 C 
BRANCH  24  25
ATOM     25  C   UNL     1       1.900   7.469  20.374  0.00  0.00    +0.000 C 
BRANCH  25  26
ATOM     26  C   UNL     1       1.090   8.657  20.833  0.00  0.00    +0.000 A 
ATOM     27  C   UNL     1       0.797   9.697  19.939  0.00  0.00    +0.000 A 
ATOM     28  C   UNL     1       0.104  10.829  20.374  0.00  0.00    +0.000 A 
ATOM     29  C   UNL     1      -0.306  10.930  21.701  0.00  0.00    +0.000 A 
ATOM     30  C   UNL     1      -0.038   9.892  22.592  0.00  0.00    +0.000 A 
ATOM     31  C   UNL     1       0.657   8.760  22.162  0.00  0.00    +0.000 A 
ENDBRANCH  25  26
ENDBRANCH  24  25
ENDBRANCH   6  24
TORSDOF 7
ENDMDL
MODEL 6
REMARK VINA RESULT:      -8.4      3.147      7.192
REMARK  Name = 
REMARK  7 active torsions:
REMARK  status: ('A' for Active; 'I' for Inactive)
REMARK    1  A    between atoms: C_3  and  C_4
REMARK    2  A    between atoms: C_4  and  C_5
REMARK    3  A    between atoms: C_12  and  C_13
REMARK    4  A    between atoms: C_20  and  O_21
REMARK    5  A    between atoms: N_22  and  C_23
REMARK    6  A    between atoms: C_23  and  C_24
REMARK    7  A    between atoms: C_24  and  C_25
REMARK                            x       y       z     vdW  Elec       q    Type
REMARK                         _______ _______ _______ _____ _____    ______ ____
ROOT
ATOM      1  O   UNL     1       6.022   6.430  16.295  0.00  0.00    +0.000 OA
ATOM      2  C   UNL     1       6.463   6.400  17.432  0.00  0.00    +0.000 C 
ATOM      3  C   UNL     1       5.974   5.516  18.566  0.00  0.00    +0.000 C 
ATOM      4  N   UNL     1       7.109   5.502  19.533  0.00  0.00    +0.000 NA
ATOM      5  C   UNL     1       7.843   6.461  19.070  0.00  0.00    +0.000 C 
ATOM      6  N   UNL     1       7.458   7.145  17.983  0.00  0.00    +0.000 N 
ENDROOT
BRANCH   5   7
ATOM      7  O   UNL     1       8.996   6.789  19.658  0.00  0.00    +0.000 OA
ATOM      8  H   UNL     1       8.849   7.630  20.121  0.00  0.00    +0.000 HD
ENDBRANCH   5   7
BRANCH   3   9
ATOM      9  C   UNL     1       5.486   4.144  18.140  0.00  0.00    +0.000 C 
BRANCH   9  10
ATOM     10  C   UNL     1       4.610   3.467  19.180  0.00  0.00    +0.000 C 
ATOM     11  O   UNL     1       4.992   2.469  19.778  0.00  0.00    +0.000 OA
ATOM     12  N   UNL     1       3.384   4.067  19.456  0.00  0.00    +0.000 N 
ATOM     13  C   UNL     1       2.607   3.516  20.575  0.00  0.00    +0.000 C 
ATOM     14  C   UNL     1       1.369   2.756  20.108  0.00  0.00    +0.000 C 
ATOM     15  C   UNL     1       0.589   3.462  19.006  0.00  0.00    +0.000 C 
ATOM     16  C   UNL     1       1.501   4.034  17.917  0.00  0.00    +0.000 C 
ATOM     17  C   UNL     1       2.633   4.909  18.503  0.00  0.00    +0.000 C 
BRANCH  17  18
ATOM     18  C   UNL     1       2.183   6.240  19.083  0.00  0.00    +0.000 A 
ATOM     19  C   UNL     1       2.177   7.425  18.331  0.00  0.00    +0.000 A 
ATOM     20  C   UNL     1       1.750   8.622  18.899  0.00  0.00    +0.000 A 
ATOM     21  C   UNL     1       1.367   8.616  20.226  0.00  0.00    +0.000 A 
ATOM     22  N   UNL     1       1.406   7.518  21.006  0.00  0.00    +0.000 NA
ATOM     23  C   UNL     1       1.821   6.367  20.423  0.00  0.00    +0.000 A 
ENDBRANCH  17  18
ENDBRANCH   9  10
ENDBRANCH   3   9
BRANCH   6  24
ATOM     24  C   UNL     1       8.170   8.248  17.354  0.00  0.00    +0.000 C 
BRANCH  24  25
ATOM     25  C   UNL     1       7.810   9.622  17.939  0.00  0.00    +0.000 C 
BRANCH  25  26
ATOM     26  C   UNL     1       9.023  10.335  18.488  0.00  0.00    +0.000 A 
ATOM     27  C   UNL     1       9.212  10.436  19.874  0.00  0.00    +0.000 A 
ATOM     28  C   UNL     1      10.296  11.149  20.389  0.00  0.00    +0.000 A 
ATOM     29  C   UNL     1      11.203  11.761  19.527  0.00  0.00    +0.000 A 
ATOM     30  C   UNL     1      11.036  11.648  18.148  0.00  0.00    +0.000 A 
ATOM     31  C   UNL     1       9.951  10.938  17.629  0.00  0.00    +0.000 A 
ENDBRANCH  25  26
ENDBRANCH  24  25
ENDBRANCH   6  24
TORSDOF 7
ENDMDL
MODEL 7
REMARK VINA RESULT:      -8.4      2.967      6.965
REMARK  Name = 
REMARK  7 active torsions:
REMARK  status: ('A' for Active; 'I' for Inactive)
REMARK    1  A    between atoms: C_3  and  C_4
REMARK    2  A    between atoms: C_4  and  C_5
REMARK    3  A    between atoms: C_12  and  C_13
REMARK    4  A    between atoms: C_20  and  O_21
REMARK    5  A    between atoms: N_22  and  C_23
REMARK    6  A    between atoms: C_23  and  C_24
REMARK    7  A    between atoms: C_24  and  C_25
REMARK                            x       y       z     vdW  Elec       q    Type
REMARK                         _______ _______ _______ _____ _____    ______ ____
ROOT
ATOM      1  O   UNL     1       5.914   5.961  16.381  0.00  0.00    +0.000 OA
ATOM      2  C   UNL     1       6.345   5.989  17.522  0.00  0.00    +0.000 C 
ATOM      3  C   UNL     1       5.842   5.168  18.697  0.00  0.00    +0.000 C 
ATOM      4  N   UNL     1       6.969   5.201  19.674  0.00  0.00    +0.000 NA
ATOM      5  C   UNL     1       7.711   6.132  19.168  0.00  0.00    +0.000 C 
ATOM      6  N   UNL     1       7.338   6.759  18.043  0.00  0.00    +0.000 N 
ENDROOT
BRANCH   5   7
ATOM      7  O   UNL     1       8.859   6.487  19.747  0.00  0.00    +0.000 OA
ATOM      8  H   UNL     1       8.950   5.950  20.552  0.00  0.00    +0.000 HD
ENDBRANCH   5   7
BRANCH   3   9
ATOM      9  C   UNL     1       5.354   3.776  18.340  0.00  0.00    +0.000 C 
BRANCH   9  10
ATOM     10  C   UNL     1       4.494   3.145  19.420  0.00  0.00    +0.000 C 
ATOM     11  O   UNL     1       4.863   2.143  20.020  0.00  0.00    +0.000 OA
ATOM     12  N   UNL     1       3.299   3.791  19.731  0.00  0.00    +0.000 N 
ATOM     13  C   UNL     1       2.545   3.283  20.886  0.00  0.00    +0.000 C 
ATOM     14  C   UNL     1       1.266   2.560  20.474  0.00  0.00    +0.000 C 
ATOM     15  C   UNL     1       0.470   3.277  19.390  0.00  0.00    +0.000 C 
ATOM     16  C   UNL     1       1.361   3.802  18.261  0.00  0.00    +0.000 C 
ATOM     17  C   UNL     1       2.544   4.645  18.793  0.00  0.00    +0.000 C 
BRANCH  17  18
ATOM     18  C   UNL     1       2.160   5.999  19.368  0.00  0.00    +0.000 A 
ATOM     19  C   UNL     1       1.592   6.142  20.643  0.00  0.00    +0.000 A 
ATOM     20  C   UNL     1       1.261   7.402  21.135  0.00  0.00    +0.000 A 
ATOM     21  C   UNL     1       1.478   8.498  20.322  0.00  0.00    +0.000 A 
ATOM     22  N   UNL     1       1.970   8.410  19.071  0.00  0.00    +0.000 NA
ATOM     23  C   UNL     1       2.286   7.170  18.623  0.00  0.00    +0.000 A 
ENDBRANCH  17  18
ENDBRANCH   9  10
ENDBRANCH   3   9
BRANCH   6  24
ATOM     24  C   UNL     1       8.059   7.825  17.362  0.00  0.00    +0.000 C 
BRANCH  24  25
ATOM     25  C   UNL     1       7.439   9.215  17.571  0.00  0.00    +0.000 C 
BRANCH  25  26
ATOM     26  C   UNL     1       8.433  10.194  18.146  0.00  0.00    +0.000 A 
ATOM     27  C   UNL     1       9.223   9.831  19.247  0.00  0.00    +0.000 A 
ATOM     28  C   UNL     1      10.098  10.753  19.824  0.00  0.00    +0.000 A 
ATOM     29  C   UNL     1      10.197  12.042  19.305  0.00  0.00    +0.000 A 
ATOM     30  C   UNL     1       9.432  12.406  18.198  0.00  0.00    +0.000 A 
ATOM     31  C   UNL     1       8.553  11.487  17.620  0.00  0.00    +0.000 A 
ENDBRANCH  25  26
ENDBRANCH  24  25
ENDBRANCH   6  24
TORSDOF 7
ENDMDL
MODEL 8
REMARK VINA RESULT:      -8.3      4.393      9.707
REMARK  Name = 
REMARK  7 active torsions:
REMARK  status: ('A' for Active; 'I' for Inactive)
REMARK    1  A    between atoms: C_3  and  C_4
REMARK    2  A    between atoms: C_4  and  C_5
REMARK    3  A    between atoms: C_12  and  C_13
REMARK    4  A    between atoms: C_20  and  O_21
REMARK    5  A    between atoms: N_22  and  C_23
REMARK    6  A    between atoms: C_23  and  C_24
REMARK    7  A    between atoms: C_24  and  C_25
REMARK                            x       y       z     vdW  Elec       q    Type
REMARK                         _______ _______ _______ _____ _____    ______ ____
ROOT
ATOM      1  O   UNL     1       1.511   8.155  21.599  0.00  0.00    +0.000 OA
ATOM      2  C   UNL     1       1.220   8.657  20.526  0.00  0.00    +0.000 C 
ATOM      3  C   UNL     1       0.140   9.695  20.278  0.00  0.00    +0.000 C 
ATOM      4  N   UNL     1       0.516  10.310  18.972  0.00  0.00    +0.000 NA
ATOM      5  C   UNL     1       1.416   9.479  18.556  0.00  0.00    +0.000 C 
ATOM      6  N   UNL     1       1.746   8.411  19.296  0.00  0.00    +0.000 N 
ENDROOT
BRANCH   5   7
ATOM      7  O   UNL     1       2.036   9.665  17.389  0.00  0.00    +0.000 OA
ATOM      8  H   UNL     1       1.890  10.592  17.134  0.00  0.00    +0.000 HD
ENDBRANCH   5   7
BRANCH   3   9
ATOM      9  C   UNL     1      -0.064  10.687  21.409  0.00  0.00    +0.000 C 
BRANCH   9  10
ATOM     10  C   UNL     1       0.066  12.135  20.971  0.00  0.00    +0.000 C 
ATOM     11  O   UNL     1       1.121  12.743  21.097  0.00  0.00    +0.000 OA
ATOM     12  N   UNL     1      -1.051  12.714  20.373  0.00  0.00    +0.000 N 
ATOM     13  C   UNL     1      -0.881  14.055  19.797  0.00  0.00    +0.000 C 
ATOM     14  C   UNL     1      -1.594  15.132  20.608  0.00  0.00    +0.000 C 
ATOM     15  C   UNL     1      -2.998  14.744  21.055  0.00  0.00    +0.000 C 
ATOM     16  C   UNL     1      -3.066  13.313  21.596  0.00  0.00    +0.000 C 
ATOM     17  C   UNL     1      -2.444  12.289  20.619  0.00  0.00    +0.000 C 
BRANCH  17  18
ATOM     18  C   UNL     1      -3.244  12.043  19.350  0.00  0.00    +0.000 A 
ATOM     19  C   UNL     1      -2.653  11.579  18.165  0.00  0.00    +0.000 A 
ATOM     20  C   UNL     1      -3.424  11.361  17.026  0.00  0.00    +0.000 A 
ATOM     21  C   UNL     1      -4.774  11.644  17.087  0.00  0.00    +0.000 A 
ATOM     22  N   UNL     1      -5.380  12.142  18.182  0.00  0.00    +0.000 NA
ATOM     23  C   UNL     1      -4.604  12.339  19.276  0.00  0.00    +0.000 A 
ENDBRANCH  17  18
ENDBRANCH   9  10
ENDBRANCH   3   9
BRANCH   6  24
ATOM     24  C   UNL     1       2.728   7.390  18.959  0.00  0.00    +0.000 C 
BRANCH  24  25
ATOM     25  C   UNL     1       2.180   6.297  18.029  0.00  0.00    +0.000 C 
BRANCH  25  26
ATOM     26  C   UNL     1       1.858   5.028  18.782  0.00  0.00    +0.000 A 
ATOM     27  C   UNL     1       1.466   3.876  18.084  0.00  0.00    +0.000 A 
ATOM     28  C   UNL     1       1.105   2.719  18.776  0.00  0.00    +0.000 A 
ATOM     29  C   UNL     1       1.137   2.699  20.169  0.00  0.00    +0.000 A 
ATOM     30  C   UNL     1       1.546   3.832  20.871  0.00  0.00    +0.000 A 
ATOM     31  C   UNL     1       1.905   4.992  20.181  0.00  0.00    +0.000 A 
ENDBRANCH  25  26
ENDBRANCH  24  25
ENDBRANCH   6  24
TORSDOF 7
ENDMDL
MODEL 9
REMARK VINA RESULT:      -8.3      3.700      9.232
REMARK  Name = 
REMARK  7 active torsions:
REMARK  status: ('A' for Active; 'I' for Inactive)
REMARK    1  A    between atoms: C_3  and  C_4
REMARK    2  A    between atoms: C_4  and  C_5
REMARK    3  A    between atoms: C_12  and  C_13
REMARK    4  A    between atoms: C_20  and  O_21
REMARK    5  A    between atoms: N_22  and  C_23
REMARK    6  A    between atoms: C_23  and  C_24
REMARK    7  A    between atoms: C_24  and  C_25
REMARK                            x       y       z     vdW  Elec       q    Type
REMARK                         _______ _______ _______ _____ _____    ______ ____
ROOT
ATOM      1  O   UNL     1       2.544   8.567  17.282  0.00  0.00    +0.000 OA
ATOM      2  C   UNL     1       2.394   8.254  18.452  0.00  0.00    +0.000 C 
ATOM      3  C   UNL     1       1.589   9.013  19.492  0.00  0.00    +0.000 C 
ATOM      4  N   UNL     1       1.324   8.002  20.557  0.00  0.00    +0.000 NA
ATOM      5  C   UNL     1       2.134   7.056  20.210  0.00  0.00    +0.000 C 
ATOM      6  N   UNL     1       2.913   7.194  19.127  0.00  0.00    +0.000 N 
ENDROOT
BRANCH   5   7
ATOM      7  O   UNL     1       2.213   5.925  20.914  0.00  0.00    +0.000 OA
ATOM      8  H   UNL     1       3.125   5.858  21.244  0.00  0.00    +0.000 HD
ENDBRANCH   5   7
BRANCH   3   9
ATOM      9  C   UNL     1       0.352   9.710  18.958  0.00  0.00    +0.000 C 
BRANCH   9  10
ATOM     10  C   UNL     1       0.542  11.203  18.755  0.00  0.00    +0.000 C 
ATOM     11  O   UNL     1       1.648  11.676  18.525  0.00  0.00    +0.000 OA
ATOM     12  N   UNL     1      -0.604  11.994  18.787  0.00  0.00    +0.000 N 
ATOM     13  C   UNL     1      -0.450  13.410  18.426  0.00  0.00    +0.000 C 
ATOM     14  C   UNL     1      -0.592  14.337  19.630  0.00  0.00    +0.000 C 
ATOM     15  C   UNL     1      -1.750  13.981  20.553  0.00  0.00    +0.000 C 
ATOM     16  C   UNL     1      -1.842  12.477  20.824  0.00  0.00    +0.000 C 
ATOM     17  C   UNL     1      -1.838  11.646  19.520  0.00  0.00    +0.000 C 
BRANCH  17  18
ATOM     18  C   UNL     1      -3.102  11.757  18.683  0.00  0.00    +0.000 A 
ATOM     19  C   UNL     1      -4.331  12.162  19.226  0.00  0.00    +0.000 A 
ATOM     20  C   UNL     1      -5.464  12.257  18.422  0.00  0.00    +0.000 A 
ATOM     21  C   UNL     1      -5.350  11.913  17.089  0.00  0.00    +0.000 A 
ATOM     22  N   UNL     1      -4.208  11.467  16.532  0.00  0.00    +0.000 NA
ATOM     23  C   UNL     1      -3.122  11.390  17.339  0.00  0.00    +0.000 A 
ENDBRANCH  17  18
ENDBRANCH   9  10
ENDBRANCH   3   9
BRANCH   6  24
ATOM     24  C   UNL     1       3.874   6.225  18.619  0.00  0.00    +0.000 C 
BRANCH  24  25
ATOM     25  C   UNL     1       3.336   5.385  17.450  0.00  0.00    +0.000 C 
BRANCH  25  26
ATOM     26  C   UNL     1       2.779   4.062  17.917  0.00  0.00    +0.000 A 
ATOM     27  C   UNL     1       1.412   3.935  18.204  0.00  0.00    +0.000 A 
ATOM     28  C   UNL     1       0.903   2.733  18.698  0.00  0.00    +0.000 A 
ATOM     29  C   UNL     1       1.750   1.646  18.903  0.00  0.00    +0.000 A 
ATOM     30  C   UNL     1       3.106   1.755  18.600  0.00  0.00    +0.000 A 
ATOM     31  C   UNL     1       3.620   2.957  18.109  0.00  0.00    +0.000 A 
ENDBRANCH  25  26
ENDBRANCH  24  25
ENDBRANCH   6  24
TORSDOF 7
ENDMDL
