MODEL 1
REMARK VINA RESULT:      -8.2      0.000      0.000
REMARK  Name = 
REMARK  3 active torsions:
REMARK  status: ('A' for Active; 'I' for Inactive)
REMARK    1  A    between atoms: C_2  and  C_3
REMARK    2  A    between atoms: C_11  and  C_13
REMARK    3  A    between atoms: C_15  and  C_16
REMARK                            x       y       z     vdW  Elec       q    Type
REMARK                         _______ _______ _______ _____ _____    ______ ____
ROOT
ATOM      1  C   UNL     1       4.147   4.614  17.741  0.00  0.00    +0.000 C 
ATOM      2  C   UNL     1       5.444   4.154  16.990  0.00  0.00    +0.000 C 
ATOM      3  C   UNL     1       5.376   4.679  15.534  0.00  0.00    +0.000 C 
ATOM      4  C   UNL     1       5.248   6.215  15.545  0.00  0.00    +0.000 C 
ATOM      5  C   UNL     1       5.222   6.723  17.001  0.00  0.00    +0.000 C 
ATOM      6  C   UNL     1       6.504   6.306  17.732  0.00  0.00    +0.000 C 
ATOM      7  C   UNL     1       6.711   4.795  17.600  0.00  0.00    +0.000 C 
ATOM      8  N   UNL     1       4.061   6.093  17.659  0.00  0.00    +0.000 N 
ATOM      9  C   UNL     1       2.846   6.721  17.939  0.00  0.00    +0.000 C 
ATOM     10  O   UNL     1       1.860   6.106  18.331  0.00  0.00    +0.000 OA
ENDROOT
BRANCH   1  12
ATOM     11  O   UNL     1       5.140   4.415  19.948  0.00  0.00    +0.000 OA
ATOM     12  C   UNL     1       4.162   4.169  19.230  0.00  0.00    +0.000 C 
ATOM     13  N   UNL     1       3.081   3.493  19.756  0.00  0.00    +0.000 N 
ATOM     14  C   UNL     1       3.073   3.167  21.172  0.00  0.00    +0.000 C 
ATOM     15  C   UNL     1       1.787   2.391  21.396  0.00  0.00    +0.000 C 
ATOM     16  C   UNL     1       0.853   2.952  20.334  0.00  0.00    +0.000 C 
ATOM     17  C   UNL     1       1.776   3.261  19.156  0.00  0.00    +0.000 C 
ENDBRANCH   1  12
BRANCH   9  18
ATOM     18  C   UNL     1       2.771   8.186  17.690  0.00  0.00    +0.000 C 
ATOM     19  C   UNL     1       1.507   8.934  17.424  0.00  0.00    +0.000 C 
ATOM     20  C   UNL     1       2.299   9.213  18.696  0.00  0.00    +0.000 C 
BRANCH  20  21
ATOM     21  C   UNL     1       1.414   9.155  19.925  0.00  0.00    +0.000 A 
ATOM     22  C   UNL     1       1.386   8.124  20.865  0.00  0.00    +0.000 A 
ATOM     23  C   UNL     1       0.467   8.135  21.934  0.00  0.00    +0.000 A 
ATOM     24  C   UNL     1      -0.425   9.189  22.086  0.00  0.00    +0.000 A 
ATOM     25  C   UNL     1      -0.402  10.244  21.184  0.00  0.00    +0.000 A 
ATOM     26  C   UNL     1       0.505  10.222  20.122  0.00  0.00    +0.000 A 
ENDBRANCH  20  21
ENDBRANCH   9  18
TORSDOF 3
ENDMDL
MODEL 2
REMARK VINA RESULT:      -8.2      1.473      4.642
REMARK  Name = 
REMARK  3 active torsions:
REMARK  status: ('A' for Active; 'I' for Inactive)
REMARK    1  A    between atoms: C_2  and  C_3
REMARK    2  A    between atoms: C_11  and  C_13
REMARK    3  A    between atoms: C_15  and  C_16
REMARK                            x       y       z     vdW  Elec       q    Type
REMARK                         _______ _______ _______ _____ _____    ______ ____
ROOT
ATOM      1  C   UNL     1       3.408   4.196  19.474  0.00  0.00    +0.000 C 
ATOM      2  C   UNL     1       3.235   2.670  19.792  0.00  0.00    +0.000 C 
ATOM      3  C   UNL     1       3.031   2.510  21.319  0.00  0.00    +0.000 C 
ATOM      4  C   UNL     1       1.797   3.319  21.762  0.00  0.00    +0.000 C 
ATOM      5  C   UNL     1       1.175   4.028  20.542  0.00  0.00    +0.000 C 
ATOM      6  C   UNL     1       0.765   2.998  19.482  0.00  0.00    +0.000 C 
ATOM      7  C   UNL     1       1.955   2.097  19.143  0.00  0.00    +0.000 C 
ATOM      8  N   UNL     1       2.212   4.914  19.982  0.00  0.00    +0.000 N 
ATOM      9  C   UNL     1       2.267   6.301  20.136  0.00  0.00    +0.000 C 
ATOM     10  O   UNL     1       3.240   6.966  19.795  0.00  0.00    +0.000 OA
ENDROOT
BRANCH   1  12
ATOM     11  O   UNL     1       2.574   4.667  17.243  0.00  0.00    +0.000 OA
ATOM     12  C   UNL     1       3.566   4.446  17.949  0.00  0.00    +0.000 C 
ATOM     13  N   UNL     1       4.820   4.421  17.375  0.00  0.00    +0.000 N 
ATOM     14  C   UNL     1       4.960   4.749  15.967  0.00  0.00    +0.000 C 
ATOM     15  C   UNL     1       6.435   4.571  15.660  0.00  0.00    +0.000 C 
ATOM     16  C   UNL     1       7.108   4.878  16.990  0.00  0.00    +0.000 C 
ATOM     17  C   UNL     1       6.118   4.361  18.032  0.00  0.00    +0.000 C 
ENDBRANCH   1  12
BRANCH   9  18
ATOM     18  C   UNL     1       1.102   6.953  20.794  0.00  0.00    +0.000 C 
ATOM     19  C   UNL     1       1.196   8.127  21.709  0.00  0.00    +0.000 C 
ATOM     20  C   UNL     1       0.489   8.268  20.366  0.00  0.00    +0.000 C 
BRANCH  20  21
ATOM     21  C   UNL     1       1.001   9.466  19.592  0.00  0.00    +0.000 A 
ATOM     22  C   UNL     1       1.680   9.424  18.373  0.00  0.00    +0.000 A 
ATOM     23  C   UNL     1       2.180  10.598  17.774  0.00  0.00    +0.000 A 
ATOM     24  C   UNL     1       1.991  11.834  18.380  0.00  0.00    +0.000 A 
ATOM     25  C   UNL     1       1.294  11.912  19.578  0.00  0.00    +0.000 A 
ATOM     26  C   UNL     1       0.809  10.744  20.170  0.00  0.00    +0.000 A 
ENDBRANCH  20  21
ENDBRANCH   9  18
TORSDOF 3
ENDMDL
MODEL 3
REMARK VINA RESULT:      -8.0      1.854      6.655
REMARK  Name = 
REMARK  3 active torsions:
REMARK  status: ('A' for Active; 'I' for Inactive)
REMARK    1  A    between atoms: C_2  and  C_3
REMARK    2  A    between atoms: C_11  and  C_13
REMARK    3  A    between atoms: C_15  and  C_16
REMARK                            x       y       z     vdW  Elec       q    Type
REMARK                         _______ _______ _______ _____ _____    ______ ____
ROOT
ATOM      1  C   UNL     1       2.784   5.423  18.151  0.00  0.00    +0.000 C 
ATOM      2  C   UNL     1       2.059   4.047  18.350  0.00  0.00    +0.000 C 
ATOM      3  C   UNL     1       2.503   3.093  17.213  0.00  0.00    +0.000 C 
ATOM      4  C   UNL     1       4.035   2.929  17.247  0.00  0.00    +0.000 C 
ATOM      5  C   UNL     1       4.622   3.775  18.395  0.00  0.00    +0.000 C 
ATOM      6  C   UNL     1       4.026   3.334  19.738  0.00  0.00    +0.000 C 
ATOM      7  C   UNL     1       2.497   3.357  19.661  0.00  0.00    +0.000 C 
ATOM      8  N   UNL     1       4.248   5.177  18.135  0.00  0.00    +0.000 N 
ATOM      9  C   UNL     1       5.097   6.166  17.634  0.00  0.00    +0.000 C 
ATOM     10  O   UNL     1       4.691   7.267  17.277  0.00  0.00    +0.000 OA
ENDROOT
BRANCH   1  12
ATOM     11  O   UNL     1       2.601   6.113  20.472  0.00  0.00    +0.000 OA
ATOM     12  C   UNL     1       2.430   6.423  19.286  0.00  0.00    +0.000 C 
ATOM     13  N   UNL     1       1.918   7.665  18.972  0.00  0.00    +0.000 N 
ATOM     14  C   UNL     1       1.680   8.621  20.039  0.00  0.00    +0.000 C 
ATOM     15  C   UNL     1       1.075   9.836  19.359  0.00  0.00    +0.000 C 
ATOM     16  C   UNL     1       1.678   9.790  17.962  0.00  0.00    +0.000 C 
ATOM     17  C   UNL     1       1.806   8.296  17.666  0.00  0.00    +0.000 C 
ENDBRANCH   1  12
BRANCH   9  18
ATOM     18  C   UNL     1       6.536   5.812  17.493  0.00  0.00    +0.000 C 
ATOM     19  C   UNL     1       7.050   4.424  17.309  0.00  0.00    +0.000 C 
ATOM     20  C   UNL     1       7.216   5.448  16.192  0.00  0.00    +0.000 C 
BRANCH  20  21
ATOM     21  C   UNL     1       6.727   4.906  14.864  0.00  0.00    +0.000 A 
ATOM     22  C   UNL     1       5.497   4.286  14.636  0.00  0.00    +0.000 A 
ATOM     23  C   UNL     1       5.173   3.749  13.374  0.00  0.00    +0.000 A 
ATOM     24  C   UNL     1       6.070   3.840  12.317  0.00  0.00    +0.000 A 
ATOM     25  C   UNL     1       7.289   4.477  12.504  0.00  0.00    +0.000 A 
ATOM     26  C   UNL     1       7.608   4.999  13.759  0.00  0.00    +0.000 A 
ENDBRANCH  20  21
ENDBRANCH   9  18
TORSDOF 3
ENDMDL
MODEL 4
REMARK VINA RESULT:      -7.6      2.555      5.232
REMARK  Name = 
REMARK  3 active torsions:
REMARK  status: ('A' for Active; 'I' for Inactive)
REMARK    1  A    between atoms: C_2  and  C_3
REMARK    2  A    between atoms: C_11  and  C_13
REMARK    3  A    between atoms: C_15  and  C_16
REMARK                            x       y       z     vdW  Elec       q    Type
REMARK                         _______ _______ _______ _____ _____    ______ ____
ROOT
ATOM      1  C   UNL     1       6.249   5.550  16.463  0.00  0.00    +0.000 C 
ATOM      2  C   UNL     1       7.333   4.794  17.307  0.00  0.00    +0.000 C 
ATOM      3  C   UNL     1       7.915   5.780  18.351  0.00  0.00    +0.000 C 
ATOM      4  C   UNL     1       6.778   6.313  19.245  0.00  0.00    +0.000 C 
ATOM      5  C   UNL     1       5.436   5.696  18.802  0.00  0.00    +0.000 C 
ATOM      6  C   UNL     1       5.497   4.166  18.900  0.00  0.00    +0.000 C 
ATOM      7  C   UNL     1       6.712   3.643  18.129  0.00  0.00    +0.000 C 
ATOM      8  N   UNL     1       5.224   6.084  17.395  0.00  0.00    +0.000 N 
ATOM      9  C   UNL     1       4.350   7.075  16.948  0.00  0.00    +0.000 C 
ATOM     10  O   UNL     1       4.339   7.473  15.787  0.00  0.00    +0.000 OA
ENDROOT
BRANCH   1  12
ATOM     11  O   UNL     1       4.481   4.092  15.663  0.00  0.00    +0.000 OA
ATOM     12  C   UNL     1       5.579   4.611  15.424  0.00  0.00    +0.000 C 
ATOM     13  N   UNL     1       6.211   4.349  14.226  0.00  0.00    +0.000 N 
ATOM     14  C   UNL     1       5.529   3.545  13.227  0.00  0.00    +0.000 C 
ATOM     15  C   UNL     1       6.514   3.412  12.080  0.00  0.00    +0.000 C 
ATOM     16  C   UNL     1       7.329   4.694  12.170  0.00  0.00    +0.000 C 
ATOM     17  C   UNL     1       7.398   4.981  13.669  0.00  0.00    +0.000 C 
ENDBRANCH   1  12
BRANCH   9  18
ATOM     18  C   UNL     1       3.448   7.687  17.962  0.00  0.00    +0.000 C 
ATOM     19  C   UNL     1       1.960   7.722  17.857  0.00  0.00    +0.000 C 
ATOM     20  C   UNL     1       2.623   6.913  18.967  0.00  0.00    +0.000 C 
BRANCH  20  21
ATOM     21  C   UNL     1       2.084   5.498  19.020  0.00  0.00    +0.000 A 
ATOM     22  C   UNL     1       1.906   4.648  17.928  0.00  0.00    +0.000 A 
ATOM     23  C   UNL     1       1.324   3.373  18.081  0.00  0.00    +0.000 A 
ATOM     24  C   UNL     1       0.928   2.925  19.335  0.00  0.00    +0.000 A 
ATOM     25  C   UNL     1       1.119   3.735  20.446  0.00  0.00    +0.000 A 
ATOM     26  C   UNL     1       1.687   5.001  20.285  0.00  0.00    +0.000 A 
ENDBRANCH  20  21
ENDBRANCH   9  18
TORSDOF 3
ENDMDL
MODEL 5
REMARK VINA RESULT:      -7.5      1.676      6.021
REMARK  Name = 
REMARK  3 active torsions:
REMARK  status: ('A' for Active; 'I' for Inactive)
REMARK    1  A    between atoms: C_2  and  C_3
REMARK    2  A    between atoms: C_11  and  C_13
REMARK    3  A    between atoms: C_15  and  C_16
REMARK                            x       y       z     vdW  Elec       q    Type
REMARK                         _______ _______ _______ _____ _____    ______ ____
ROOT
ATOM      1  C   UNL     1       1.750   4.594  19.085  0.00  0.00    +0.000 C 
ATOM      2  C   UNL     1       0.882   3.487  19.779  0.00  0.00    +0.000 C 
ATOM      3  C   UNL     1       0.853   2.242  18.858  0.00  0.00    +0.000 C 
ATOM      4  C   UNL     1       2.292   1.752  18.607  0.00  0.00    +0.000 C 
ATOM      5  C   UNL     1       3.288   2.666  19.349  0.00  0.00    +0.000 C 
ATOM      6  C   UNL     1       2.995   2.660  20.854  0.00  0.00    +0.000 C 
ATOM      7  C   UNL     1       1.525   3.007  21.100  0.00  0.00    +0.000 C 
ATOM      8  N   UNL     1       3.098   4.031  18.823  0.00  0.00    +0.000 N 
ATOM      9  C   UNL     1       3.940   4.678  17.917  0.00  0.00    +0.000 C 
ATOM     10  O   UNL     1       3.645   5.743  17.385  0.00  0.00    +0.000 OA
ENDROOT
BRANCH   1  12
ATOM     11  O   UNL     1       2.196   5.765  21.165  0.00  0.00    +0.000 OA
ATOM     12  C   UNL     1       1.872   5.862  19.974  0.00  0.00    +0.000 C 
ATOM     13  N   UNL     1       1.617   7.106  19.435  0.00  0.00    +0.000 N 
ATOM     14  C   UNL     1       1.826   8.288  20.254  0.00  0.00    +0.000 C 
ATOM     15  C   UNL     1       1.404   9.457  19.383  0.00  0.00    +0.000 C 
ATOM     16  C   UNL     1       1.691   8.963  17.973  0.00  0.00    +0.000 C 
ATOM     17  C   UNL     1       1.402   7.464  18.041  0.00  0.00    +0.000 C 
ENDBRANCH   1  12
BRANCH   9  18
ATOM     18  C   UNL     1       5.214   3.991  17.571  0.00  0.00    +0.000 C 
ATOM     19  C   UNL     1       6.054   4.317  16.382  0.00  0.00    +0.000 C 
ATOM     20  C   UNL     1       6.596   4.567  17.785  0.00  0.00    +0.000 C 
BRANCH  20  21
ATOM     21  C   UNL     1       7.140   5.975  17.927  0.00  0.00    +0.000 A 
ATOM     22  C   UNL     1       6.886   7.041  17.063  0.00  0.00    +0.000 A 
ATOM     23  C   UNL     1       7.506   8.294  17.247  0.00  0.00    +0.000 A 
ATOM     24  C   UNL     1       8.375   8.501  18.311  0.00  0.00    +0.000 A 
ATOM     25  C   UNL     1       8.625   7.469  19.205  0.00  0.00    +0.000 A 
ATOM     26  C   UNL     1       8.015   6.228  19.011  0.00  0.00    +0.000 A 
ENDBRANCH  20  21
ENDBRANCH   9  18
TORSDOF 3
ENDMDL
MODEL 6
REMARK VINA RESULT:      -7.4      2.076      5.896
REMARK  Name = 
REMARK  3 active torsions:
REMARK  status: ('A' for Active; 'I' for Inactive)
REMARK    1  A    between atoms: C_2  and  C_3
REMARK    2  A    between atoms: C_11  and  C_13
REMARK    3  A    between atoms: C_15  and  C_16
REMARK                            x       y       z     vdW  Elec       q    Type
REMARK                         _______ _______ _______ _____ _____    ______ ____
ROOT
ATOM      1  C   UNL     1       2.540   4.735  18.683  0.00  0.00    +0.000 C 
ATOM      2  C   UNL     1       1.685   3.445  18.940  0.00  0.00    +0.000 C 
ATOM      3  C   UNL     1       2.104   2.369  17.908  0.00  0.00    +0.000 C 
ATOM      4  C   UNL     1       3.612   2.080  18.049  0.00  0.00    +0.000 C 
ATOM      5  C   UNL     1       4.207   2.962  19.164  0.00  0.00    +0.000 C 
ATOM      6  C   UNL     1       3.501   2.683  20.497  0.00  0.00    +0.000 C 
ATOM      7  C   UNL     1       1.987   2.829  20.324  0.00  0.00    +0.000 C 
ATOM      8  N   UNL     1       3.975   4.366  18.777  0.00  0.00    +0.000 N 
ATOM      9  C   UNL     1       4.935   5.236  18.257  0.00  0.00    +0.000 C 
ATOM     10  O   UNL     1       4.649   6.335  17.793  0.00  0.00    +0.000 OA
ENDROOT
BRANCH   1  12
ATOM     11  O   UNL     1       2.263   5.614  20.930  0.00  0.00    +0.000 OA
ATOM     12  C   UNL     1       2.213   5.849  19.715  0.00  0.00    +0.000 C 
ATOM     13  N   UNL     1       1.863   7.109  19.278  0.00  0.00    +0.000 N 
ATOM     14  C   UNL     1       1.652   8.164  20.255  0.00  0.00    +0.000 C 
ATOM     15  C   UNL     1       1.234   9.379  19.447  0.00  0.00    +0.000 C 
ATOM     16  C   UNL     1       1.929   9.165  18.110  0.00  0.00    +0.000 C 
ATOM     17  C   UNL     1       1.916   7.648  17.927  0.00  0.00    +0.000 C 
ENDBRANCH   1  12
BRANCH   9  18
ATOM     18  C   UNL     1       6.342   4.751  18.233  0.00  0.00    +0.000 C 
ATOM     19  C   UNL     1       7.293   4.974  17.106  0.00  0.00    +0.000 C 
ATOM     20  C   UNL     1       7.561   5.617  18.461  0.00  0.00    +0.000 C 
BRANCH  20  21
ATOM     21  C   UNL     1       7.839   7.101  18.326  0.00  0.00    +0.000 A 
ATOM     22  C   UNL     1       7.364   7.934  17.312  0.00  0.00    +0.000 A 
ATOM     23  C   UNL     1       7.747   9.289  17.240  0.00  0.00    +0.000 A 
ATOM     24  C   UNL     1       8.598   9.833  18.193  0.00  0.00    +0.000 A 
ATOM     25  C   UNL     1       9.064   9.038  19.232  0.00  0.00    +0.000 A 
ATOM     26  C   UNL     1       8.688   7.694  19.292  0.00  0.00    +0.000 A 
ENDBRANCH  20  21
ENDBRANCH   9  18
TORSDOF 3
ENDMDL
MODEL 7
REMARK VINA RESULT:      -7.0      6.663     10.848
REMARK  Name = 
REMARK  3 active torsions:
REMARK  status: ('A' for Active; 'I' for Inactive)
REMARK    1  A    between atoms: C_2  and  C_3
REMARK    2  A    between atoms: C_11  and  C_13
REMARK    3  A    between atoms: C_15  and  C_16
REMARK                            x       y       z     vdW  Elec       q    Type
REMARK                         _______ _______ _______ _____ _____    ______ ____
ROOT
ATOM      1  C   UNL     1      -5.285  13.165  19.692  0.00  0.00    +0.000 C 
ATOM      2  C   UNL     1      -6.644  12.886  18.962  0.00  0.00    +0.000 C 
ATOM      3  C   UNL     1      -6.429  13.078  17.440  0.00  0.00    +0.000 C 
ATOM      4  C   UNL     1      -5.323  12.124  16.951  0.00  0.00    +0.000 C 
ATOM      5  C   UNL     1      -4.789  11.297  18.137  0.00  0.00    +0.000 C 
ATOM      6  C   UNL     1      -5.925  10.487  18.775  0.00  0.00    +0.000 C 
ATOM      7  C   UNL     1      -7.089  11.416  19.132  0.00  0.00    +0.000 C 
ATOM      8  N   UNL     1      -4.259  12.252  19.128  0.00  0.00    +0.000 N 
ATOM      9  C   UNL     1      -2.909  12.527  19.352  0.00  0.00    +0.000 C 
ATOM     10  O   UNL     1      -2.531  13.451  20.065  0.00  0.00    +0.000 OA
ENDROOT
BRANCH   1  12
ATOM     11  O   UNL     1      -4.877  11.957  21.758  0.00  0.00    +0.000 OA
ATOM     12  C   UNL     1      -5.405  12.941  21.224  0.00  0.00    +0.000 C 
ATOM     13  N   UNL     1      -6.105  13.843  21.998  0.00  0.00    +0.000 N 
ATOM     14  C   UNL     1      -6.129  13.670  23.440  0.00  0.00    +0.000 C 
ATOM     15  C   UNL     1      -7.018  14.783  23.962  0.00  0.00    +0.000 C 
ATOM     16  C   UNL     1      -6.830  15.890  22.934  0.00  0.00    +0.000 C 
ATOM     17  C   UNL     1      -6.642  15.141  21.616  0.00  0.00    +0.000 C 
ENDBRANCH   1  12
BRANCH   9  18
ATOM     18  C   UNL     1      -1.920  11.675  18.636  0.00  0.00    +0.000 C 
ATOM     19  C   UNL     1      -0.439  11.811  18.763  0.00  0.00    +0.000 C 
ATOM     20  C   UNL     1      -1.130  10.548  19.266  0.00  0.00    +0.000 C 
BRANCH  20  21
ATOM     21  C   UNL     1      -0.716  10.217  20.686  0.00  0.00    +0.000 A 
ATOM     22  C   UNL     1      -1.184  10.844  21.842  0.00  0.00    +0.000 A 
ATOM     23  C   UNL     1      -0.675  10.508  23.112  0.00  0.00    +0.000 A 
ATOM     24  C   UNL     1       0.299   9.526  23.244  0.00  0.00    +0.000 A 
ATOM     25  C   UNL     1       0.763   8.863  22.116  0.00  0.00    +0.000 A 
ATOM     26  C   UNL     1       0.261   9.208  20.860  0.00  0.00    +0.000 A 
ENDBRANCH  20  21
ENDBRANCH   9  18
TORSDOF 3
ENDMDL
MODEL 8
REMARK VINA RESULT:      -7.0      6.350      9.761
REMARK  Name = 
REMARK  3 active torsions:
REMARK  status: ('A' for Active; 'I' for Inactive)
REMARK    1  A    between atoms: C_2  and  C_3
REMARK    2  A    between atoms: C_11  and  C_13
REMARK    3  A    between atoms: C_15  and  C_16
REMARK                            x       y       z     vdW  Elec       q    Type
REMARK                         _______ _______ _______ _____ _____    ______ ____
ROOT
ATOM      1  C   UNL     1       0.158  14.257  22.044  0.00  0.00    +0.000 C 
ATOM      2  C   UNL     1       0.920  15.514  21.495  0.00  0.00    +0.000 C 
ATOM      3  C   UNL     1       2.433  15.186  21.450  0.00  0.00    +0.000 C 
ATOM      4  C   UNL     1       2.666  13.953  20.555  0.00  0.00    +0.000 C 
ATOM      5  C   UNL     1       1.317  13.447  20.006  0.00  0.00    +0.000 C 
ATOM      6  C   UNL     1       0.626  14.551  19.195  0.00  0.00    +0.000 C 
ATOM      7  C   UNL     1       0.522  15.826  20.035  0.00  0.00    +0.000 C 
ATOM      8  N   UNL     1       0.478  13.102  21.168  0.00  0.00    +0.000 N 
ATOM      9  C   UNL     1       0.213  11.809  21.626  0.00  0.00    +0.000 C 
ATOM     10  O   UNL     1      -0.348  11.588  22.693  0.00  0.00    +0.000 OA
ENDROOT
BRANCH   1  12
ATOM     11  O   UNL     1      -2.062  14.280  21.061  0.00  0.00    +0.000 OA
ATOM     12  C   UNL     1      -1.377  14.489  22.071  0.00  0.00    +0.000 C 
ATOM     13  N   UNL     1      -1.985  14.933  23.227  0.00  0.00    +0.000 N 
ATOM     14  C   UNL     1      -3.432  15.055  23.263  0.00  0.00    +0.000 C 
ATOM     15  C   UNL     1      -3.752  15.611  24.639  0.00  0.00    +0.000 C 
ATOM     16  C   UNL     1      -2.615  15.082  25.502  0.00  0.00    +0.000 C 
ATOM     17  C   UNL     1      -1.413  15.068  24.558  0.00  0.00    +0.000 C 
ENDBRANCH   1  12
BRANCH   9  18
ATOM     18  C   UNL     1       0.695  10.683  20.780  0.00  0.00    +0.000 C 
ATOM     19  C   UNL     1      -0.040   9.400  20.583  0.00  0.00    +0.000 C 
ATOM     20  C   UNL     1       0.166  10.344  19.404  0.00  0.00    +0.000 C 
BRANCH  20  21
ATOM     21  C   UNL     1      -1.136  10.619  18.679  0.00  0.00    +0.000 A 
ATOM     22  C   UNL     1      -2.122  11.520  19.082  0.00  0.00    +0.000 A 
ATOM     23  C   UNL     1      -3.333  11.644  18.372  0.00  0.00    +0.000 A 
ATOM     24  C   UNL     1      -3.566  10.878  17.236  0.00  0.00    +0.000 A 
ATOM     25  C   UNL     1      -2.591   9.995  16.792  0.00  0.00    +0.000 A 
ATOM     26  C   UNL     1      -1.398   9.871  17.506  0.00  0.00    +0.000 A 
ENDBRANCH  20  21
ENDBRANCH   9  18
TORSDOF 3
ENDMDL
MODEL 9
REMARK VINA RESULT:      -7.0      6.835     10.899
REMARK  Name = 
REMARK  3 active torsions:
REMARK  status: ('A' for Active; 'I' for Inactive)
REMARK    1  A    between atoms: C_2  and  C_3
REMARK    2  A    between atoms: C_11  and  C_13
REMARK    3  A    between atoms: C_15  and  C_16
REMARK                            x       y       z     vdW  Elec       q    Type
REMARK                         _______ _______ _______ _____ _____    ______ ____
ROOT
ATOM      1  C   UNL     1      -5.475  13.158  19.921  0.00  0.00    +0.000 C 
ATOM      2  C   UNL     1      -6.830  12.848  19.194  0.00  0.00    +0.000 C 
ATOM      3  C   UNL     1      -6.658  13.162  17.688  0.00  0.00    +0.000 C 
ATOM      4  C   UNL     1      -5.506  12.314  17.113  0.00  0.00    +0.000 C 
ATOM      5  C   UNL     1      -4.899  11.439  18.228  0.00  0.00    +0.000 C 
ATOM      6  C   UNL     1      -5.971  10.518  18.823  0.00  0.00    +0.000 C 
ATOM      7  C   UNL     1      -7.181  11.345  19.265  0.00  0.00    +0.000 C 
ATOM      8  N   UNL     1      -4.408  12.353  19.276  0.00  0.00    +0.000 N 
ATOM      9  C   UNL     1      -3.072  12.693  19.498  0.00  0.00    +0.000 C 
ATOM     10  O   UNL     1      -2.737  13.586  20.270  0.00  0.00    +0.000 OA
ENDROOT
BRANCH   1  12
ATOM     11  O   UNL     1      -4.781  11.984  21.930  0.00  0.00    +0.000 OA
ATOM     12  C   UNL     1      -5.550  12.818  21.435  0.00  0.00    +0.000 C 
ATOM     13  N   UNL     1      -6.480  13.448  22.235  0.00  0.00    +0.000 N 
ATOM     14  C   UNL     1      -6.475  13.189  23.665  0.00  0.00    +0.000 C 
ATOM     15  C   UNL     1      -7.641  13.986  24.220  0.00  0.00    +0.000 C 
ATOM     16  C   UNL     1      -7.748  15.162  23.260  0.00  0.00    +0.000 C 
ATOM     17  C   UNL     1      -7.345  14.572  21.909  0.00  0.00    +0.000 C 
ENDBRANCH   1  12
BRANCH   9  18
ATOM     18  C   UNL     1      -2.048  11.957  18.707  0.00  0.00    +0.000 C 
ATOM     19  C   UNL     1      -0.576  12.169  18.826  0.00  0.00    +0.000 C 
ATOM     20  C   UNL     1      -1.185  10.834  19.238  0.00  0.00    +0.000 C 
BRANCH  20  21
ATOM     21  C   UNL     1      -0.730  10.420  20.623  0.00  0.00    +0.000 A 
ATOM     22  C   UNL     1       0.168   9.392  20.916  0.00  0.00    +0.000 A 
ATOM     23  C   UNL     1       0.466   9.040  22.248  0.00  0.00    +0.000 A 
ATOM     24  C   UNL     1      -0.118   9.725  23.306  0.00  0.00    +0.000 A 
ATOM     25  C   UNL     1      -0.992  10.772  23.047  0.00  0.00    +0.000 A 
ATOM     26  C   UNL     1      -1.290  11.109  21.725  0.00  0.00    +0.000 A 
ENDBRANCH  20  21
ENDBRANCH   9  18
TORSDOF 3
ENDMDL
