MODEL 1
REMARK VINA RESULT:      -8.7      0.000      0.000
REMARK  Name = 
REMARK  4 active torsions:
REMARK  status: ('A' for Active; 'I' for Inactive)
REMARK    1  A    between atoms: C_1  and  N_2
REMARK    2  A    between atoms: C_5  and  N_6
REMARK    3  A    between atoms: N_9  and  C_10
REMARK    4  A    between atoms: C_18  and  C_19
REMARK                            x       y       z     vdW  Elec       q    Type
REMARK                         _______ _______ _______ _____ _____    ______ ____
ROOT
ATOM      1  C   UNL     1       2.104  14.004  19.382  0.00  0.00    +0.000 C 
ATOM      2  N   UNL     1       1.396  12.732  19.489  0.00  0.00    +0.000 N 
ATOM      3  C   UNL     1       1.814  11.680  18.658  0.00  0.00    +0.000 C 
ATOM      4  O   UNL     1       2.718  11.822  17.824  0.00  0.00    +0.000 OA
ATOM      5  C   UNL     1       1.088  10.318  18.838  0.00  0.00    +0.000 C 
ATOM      6  N   UNL     1      -0.235  10.447  18.258  0.00  0.00    +0.000 NA
ATOM      7  C   UNL     1      -1.107  11.160  18.889  0.00  0.00    +0.000 C 
ATOM      8  C   UNL     1      -0.855  11.872  20.183  0.00  0.00    +0.000 A 
ATOM      9  C   UNL     1      -1.877  11.824  21.155  0.00  0.00    +0.000 A 
ATOM     10  C   UNL     1      -1.795  12.579  22.322  0.00  0.00    +0.000 A 
ATOM     11  C   UNL     1      -0.679  13.372  22.545  0.00  0.00    +0.000 A 
ATOM     12  C   UNL     1       0.354  13.399  21.605  0.00  0.00    +0.000 A 
ATOM     13  C   UNL     1       0.301  12.647  20.412  0.00  0.00    +0.000 A 
ENDROOT
BRANCH   5  14
ATOM     14  N   UNL     1       1.740   9.272  18.077  0.00  0.00    +0.000 N 
ATOM     15  C   UNL     1       2.103   8.136  18.734  0.00  0.00    +0.000 C 
ATOM     16  O   UNL     1       1.750   7.935  19.894  0.00  0.00    +0.000 OA
ATOM     17  N   UNL     1       2.828   7.250  17.962  0.00  0.00    +0.000 N 
ATOM     18  H   UNL     1       2.279   9.592  17.291  0.00  0.00    +0.000 HD
ATOM     19  H   UNL     1       3.330   7.652  17.184  0.00  0.00    +0.000 HD
BRANCH  17  20
ATOM     20  C   UNL     1       3.202   5.948  18.380  0.00  0.00    +0.000 A 
ATOM     21  C   UNL     1       4.503   5.652  18.802  0.00  0.00    +0.000 A 
ATOM     22  C   UNL     1       4.883   4.346  19.116  0.00  0.00    +0.000 A 
ATOM     23  C   UNL     1       3.951   3.320  19.033  0.00  0.00    +0.000 A 
ATOM     24  C   UNL     1       2.636   3.613  18.674  0.00  0.00    +0.000 A 
ATOM     25 CL   UNL     1       1.483   2.338  18.584  0.00  0.00    +0.000 Cl
ATOM     26  C   UNL     1       2.251   4.925  18.362  0.00  0.00    +0.000 A 
ENDBRANCH  17  20
ENDBRANCH   5  14
BRANCH   7  27
ATOM     27  C   UNL     1      -2.461  11.251  18.252  0.00  0.00    +0.000 A 
ATOM     28  C   UNL     1      -2.628  10.712  16.969  0.00  0.00    +0.000 A 
ATOM     29  C   UNL     1      -3.864  10.791  16.329  0.00  0.00    +0.000 A 
ATOM     30  C   UNL     1      -4.939  11.405  16.968  0.00  0.00    +0.000 A 
ATOM     31  C   UNL     1      -4.777  11.950  18.244  0.00  0.00    +0.000 A 
ATOM     32  C   UNL     1      -3.537  11.885  18.883  0.00  0.00    +0.000 A 
ENDBRANCH   7  27
TORSDOF 3
ENDMDL
MODEL 2
REMARK VINA RESULT:      -8.2      1.250      1.754
REMARK  Name = 
REMARK  4 active torsions:
REMARK  status: ('A' for Active; 'I' for Inactive)
REMARK    1  A    between atoms: C_1  and  N_2
REMARK    2  A    between atoms: C_5  and  N_6
REMARK    3  A    between atoms: N_9  and  C_10
REMARK    4  A    between atoms: C_18  and  C_19
REMARK                            x       y       z     vdW  Elec       q    Type
REMARK                         _______ _______ _______ _____ _____    ______ ____
ROOT
ATOM      1  C   UNL     1       1.918  14.183  19.610  0.00  0.00    +0.000 C 
ATOM      2  N   UNL     1       1.253  12.884  19.581  0.00  0.00    +0.000 N 
ATOM      3  C   UNL     1       1.699  11.944  18.638  0.00  0.00    +0.000 C 
ATOM      4  O   UNL     1       2.591  12.206  17.821  0.00  0.00    +0.000 OA
ATOM      5  C   UNL     1       1.019  10.547  18.671  0.00  0.00    +0.000 C 
ATOM      6  N   UNL     1      -0.311  10.694  18.114  0.00  0.00    +0.000 NA
ATOM      7  C   UNL     1      -1.202  11.304  18.822  0.00  0.00    +0.000 C 
ATOM      8  C   UNL     1      -0.963  11.879  20.185  0.00  0.00    +0.000 A 
ATOM      9  C   UNL     1      -1.977  11.692  21.150  0.00  0.00    +0.000 A 
ATOM     10  C   UNL     1      -1.910  12.317  22.393  0.00  0.00    +0.000 A 
ATOM     11  C   UNL     1      -0.820  13.118  22.696  0.00  0.00    +0.000 A 
ATOM     12  C   UNL     1       0.205  13.282  21.760  0.00  0.00    +0.000 A 
ATOM     13  C   UNL     1       0.168  12.662  20.493  0.00  0.00    +0.000 A 
ENDROOT
BRANCH   5  14
ATOM     14  N   UNL     1       1.700   9.612  17.798  0.00  0.00    +0.000 N 
ATOM     15  C   UNL     1       2.231   8.489  18.355  0.00  0.00    +0.000 C 
ATOM     16  O   UNL     1       2.009   8.197  19.528  0.00  0.00    +0.000 OA
ATOM     17  N   UNL     1       2.967   7.722  17.474  0.00  0.00    +0.000 N 
ATOM     18  H   UNL     1       2.130  10.024  16.988  0.00  0.00    +0.000 HD
ATOM     19  H   UNL     1       3.354   8.212  16.679  0.00  0.00    +0.000 HD
BRANCH  17  20
ATOM     20  C   UNL     1       3.506   6.448  17.783  0.00  0.00    +0.000 A 
ATOM     21  C   UNL     1       2.692   5.371  18.152  0.00  0.00    +0.000 A 
ATOM     22  C   UNL     1       3.241   4.151  18.549  0.00  0.00    +0.000 A 
ATOM     23  C   UNL     1       4.621   3.988  18.557  0.00  0.00    +0.000 A 
ATOM     24  C   UNL     1       5.439   5.033  18.133  0.00  0.00    +0.000 A 
ATOM     25 CL   UNL     1       7.147   4.821  18.136  0.00  0.00    +0.000 Cl
ATOM     26  C   UNL     1       4.889   6.258  17.729  0.00  0.00    +0.000 A 
ENDBRANCH  17  20
ENDBRANCH   5  14
BRANCH   7  27
ATOM     27  C   UNL     1      -2.563  11.419  18.204  0.00  0.00    +0.000 A 
ATOM     28  C   UNL     1      -3.613  11.903  18.996  0.00  0.00    +0.000 A 
ATOM     29  C   UNL     1      -4.899  12.009  18.470  0.00  0.00    +0.000 A 
ATOM     30  C   UNL     1      -5.142  11.636  17.150  0.00  0.00    +0.000 A 
ATOM     31  C   UNL     1      -4.102  11.147  16.357  0.00  0.00    +0.000 A 
ATOM     32  C   UNL     1      -2.814  11.027  16.884  0.00  0.00    +0.000 A 
ENDBRANCH   7  27
TORSDOF 3
ENDMDL
MODEL 3
REMARK VINA RESULT:      -8.0      1.278      1.477
REMARK  Name = 
REMARK  4 active torsions:
REMARK  status: ('A' for Active; 'I' for Inactive)
REMARK    1  A    between atoms: C_1  and  N_2
REMARK    2  A    between atoms: C_5  and  N_6
REMARK    3  A    between atoms: N_9  and  C_10
REMARK    4  A    between atoms: C_18  and  C_19
REMARK                            x       y       z     vdW  Elec       q    Type
REMARK                         _______ _______ _______ _____ _____    ______ ____
ROOT
ATOM      1  C   UNL     1       0.961  15.123  20.099  0.00  0.00    +0.000 C 
ATOM      2  N   UNL     1       0.453  13.755  20.084  0.00  0.00    +0.000 N 
ATOM      3  C   UNL     1       0.907  12.902  19.065  0.00  0.00    +0.000 C 
ATOM      4  O   UNL     1       1.673  13.292  18.175  0.00  0.00    +0.000 OA
ATOM      5  C   UNL     1       0.402  11.432  19.109  0.00  0.00    +0.000 C 
ATOM      6  N   UNL     1      -0.987  11.434  18.692  0.00  0.00    +0.000 NA
ATOM      7  C   UNL     1      -1.865  11.912  19.509  0.00  0.00    +0.000 C 
ATOM      8  C   UNL     1      -1.556  12.473  20.864  0.00  0.00    +0.000 A 
ATOM      9  C   UNL     1      -2.437  12.138  21.915  0.00  0.00    +0.000 A 
ATOM     10  C   UNL     1      -2.316  12.732  23.169  0.00  0.00    +0.000 A 
ATOM     11  C   UNL     1      -1.302  13.649  23.396  0.00  0.00    +0.000 A 
ATOM     12  C   UNL     1      -0.405  13.962  22.370  0.00  0.00    +0.000 A 
ATOM     13  C   UNL     1      -0.500  13.378  21.089  0.00  0.00    +0.000 A 
ENDROOT
BRANCH   5  14
ATOM     14  N   UNL     1       1.094  10.612  18.136  0.00  0.00    +0.000 N 
ATOM     15  C   UNL     1       1.594   9.415  18.551  0.00  0.00    +0.000 C 
ATOM     16  O   UNL     1       1.334   8.972  19.668  0.00  0.00    +0.000 OA
ATOM     17  N   UNL     1       2.344   8.760  17.595  0.00  0.00    +0.000 N 
ATOM     18  H   UNL     1       1.552  11.120  17.400  0.00  0.00    +0.000 HD
ATOM     19  H   UNL     1       2.760   9.344  16.884  0.00  0.00    +0.000 HD
BRANCH  17  20
ATOM     20  C   UNL     1       2.855   7.446  17.743  0.00  0.00    +0.000 A 
ATOM     21  C   UNL     1       4.213   7.157  17.569  0.00  0.00    +0.000 A 
ATOM     22  C   UNL     1       4.687   5.845  17.621  0.00  0.00    +0.000 A 
ATOM     23  C   UNL     1       3.803   4.804  17.873  0.00  0.00    +0.000 A 
ATOM     24  C   UNL     1       2.458   5.087  18.109  0.00  0.00    +0.000 A 
ATOM     25 CL   UNL     1       1.370   3.793  18.432  0.00  0.00    +0.000 Cl
ATOM     26  C   UNL     1       1.981   6.404  18.062  0.00  0.00    +0.000 A 
ENDBRANCH  17  20
ENDBRANCH   5  14
BRANCH   7  27
ATOM     27  C   UNL     1      -3.286  11.880  19.033  0.00  0.00    +0.000 A 
ATOM     28  C   UNL     1      -3.582  11.148  17.874  0.00  0.00    +0.000 A 
ATOM     29  C   UNL     1      -4.886  11.105  17.384  0.00  0.00    +0.000 A 
ATOM     30  C   UNL     1      -5.900  11.789  18.049  0.00  0.00    +0.000 A 
ATOM     31  C   UNL     1      -5.612  12.525  19.199  0.00  0.00    +0.000 A 
ATOM     32  C   UNL     1      -4.304  12.582  19.688  0.00  0.00    +0.000 A 
ENDBRANCH   7  27
TORSDOF 3
ENDMDL
MODEL 4
REMARK VINA RESULT:      -7.8      5.000      7.141
REMARK  Name = 
REMARK  4 active torsions:
REMARK  status: ('A' for Active; 'I' for Inactive)
REMARK    1  A    between atoms: C_1  and  N_2
REMARK    2  A    between atoms: C_5  and  N_6
REMARK    3  A    between atoms: N_9  and  C_10
REMARK    4  A    between atoms: C_18  and  C_19
REMARK                            x       y       z     vdW  Elec       q    Type
REMARK                         _______ _______ _______ _____ _____    ______ ____
ROOT
ATOM      1  C   UNL     1       0.846  18.284  17.779  0.00  0.00    +0.000 C 
ATOM      2  N   UNL     1       1.533  17.117  18.324  0.00  0.00    +0.000 N 
ATOM      3  C   UNL     1       2.616  16.599  17.595  0.00  0.00    +0.000 C 
ATOM      4  O   UNL     1       2.960  17.073  16.504  0.00  0.00    +0.000 OA
ATOM      5  C   UNL     1       3.372  15.397  18.228  0.00  0.00    +0.000 C 
ATOM      6  N   UNL     1       2.528  14.227  18.089  0.00  0.00    +0.000 NA
ATOM      7  C   UNL     1       1.477  14.145  18.834  0.00  0.00    +0.000 C 
ATOM      8  C   UNL     1       1.057  15.176  19.837  0.00  0.00    +0.000 A 
ATOM      9  C   UNL     1       0.574  14.707  21.078  0.00  0.00    +0.000 A 
ATOM     10  C   UNL     1       0.022  15.583  22.011  0.00  0.00    +0.000 A 
ATOM     11  C   UNL     1      -0.032  16.939  21.726  0.00  0.00    +0.000 A 
ATOM     12  C   UNL     1       0.476  17.415  20.514  0.00  0.00    +0.000 A 
ATOM     13  C   UNL     1       1.041  16.555  19.548  0.00  0.00    +0.000 A 
ENDROOT
BRANCH   5  14
ATOM     14  N   UNL     1       4.579  15.090  17.489  0.00  0.00    +0.000 N 
ATOM     15  C   UNL     1       5.739  14.954  18.189  0.00  0.00    +0.000 C 
ATOM     16  O   UNL     1       5.739  14.936  19.418  0.00  0.00    +0.000 OA
ATOM     17  N   UNL     1       6.856  14.787  17.395  0.00  0.00    +0.000 N 
ATOM     18  H   UNL     1       4.599  15.435  16.545  0.00  0.00    +0.000 HD
ATOM     19  H   UNL     1       6.788  15.152  16.456  0.00  0.00    +0.000 HD
BRANCH  17  20
ATOM     20  C   UNL     1       8.152  14.495  17.891  0.00  0.00    +0.000 A 
ATOM     21  C   UNL     1       8.993  15.492  18.398  0.00  0.00    +0.000 A 
ATOM     22  C   UNL     1      10.301  15.206  18.791  0.00  0.00    +0.000 A 
ATOM     23  C   UNL     1      10.777  13.904  18.702  0.00  0.00    +0.000 A 
ATOM     24  C   UNL     1       9.928  12.892  18.257  0.00  0.00    +0.000 A 
ATOM     25 CL   UNL     1      10.521  11.278  18.159  0.00  0.00    +0.000 Cl
ATOM     26  C   UNL     1       8.612  13.176  17.866  0.00  0.00    +0.000 A 
ENDBRANCH  17  20
ENDBRANCH   5  14
BRANCH   7  27
ATOM     27  C   UNL     1       0.645  12.909  18.657  0.00  0.00    +0.000 A 
ATOM     28  C   UNL     1      -0.675  13.056  18.210  0.00  0.00    +0.000 A 
ATOM     29  C   UNL     1      -1.491  11.938  18.049  0.00  0.00    +0.000 A 
ATOM     30  C   UNL     1      -0.993  10.669  18.332  0.00  0.00    +0.000 A 
ATOM     31  C   UNL     1       0.319  10.516  18.784  0.00  0.00    +0.000 A 
ATOM     32  C   UNL     1       1.137  11.634  18.959  0.00  0.00    +0.000 A 
ENDBRANCH   7  27
TORSDOF 3
ENDMDL
MODEL 5
REMARK VINA RESULT:      -7.7      3.908      7.417
REMARK  Name = 
REMARK  4 active torsions:
REMARK  status: ('A' for Active; 'I' for Inactive)
REMARK    1  A    between atoms: C_1  and  N_2
REMARK    2  A    between atoms: C_5  and  N_6
REMARK    3  A    between atoms: N_9  and  C_10
REMARK    4  A    between atoms: C_18  and  C_19
REMARK                            x       y       z     vdW  Elec       q    Type
REMARK                         _______ _______ _______ _____ _____    ______ ____
ROOT
ATOM      1  C   UNL     1      -2.505  12.164  19.467  0.00  0.00    +0.000 C 
ATOM      2  N   UNL     1      -1.085  11.966  19.744  0.00  0.00    +0.000 N 
ATOM      3  C   UNL     1      -0.163  12.508  18.834  0.00  0.00    +0.000 C 
ATOM      4  O   UNL     1      -0.522  13.093  17.804  0.00  0.00    +0.000 OA
ATOM      5  C   UNL     1       1.342  12.340  19.185  0.00  0.00    +0.000 C 
ATOM      6  N   UNL     1       1.696  10.955  18.947  0.00  0.00    +0.000 NA
ATOM      7  C   UNL     1       1.256  10.065  19.773  0.00  0.00    +0.000 C 
ATOM      8  C   UNL     1       0.398  10.357  20.967  0.00  0.00    +0.000 A 
ATOM      9  C   UNL     1       0.696   9.663  22.159  0.00  0.00    +0.000 A 
ATOM     10  C   UNL     1      -0.136   9.756  23.271  0.00  0.00    +0.000 A 
ATOM     11  C   UNL     1      -1.263  10.562  23.215  0.00  0.00    +0.000 A 
ATOM     12  C   UNL     1      -1.547  11.280  22.051  0.00  0.00    +0.000 A 
ATOM     13  C   UNL     1      -0.724  11.207  20.906  0.00  0.00    +0.000 A 
ENDROOT
BRANCH   5  14
ATOM     14  N   UNL     1       2.178  13.110  18.286  0.00  0.00    +0.000 N 
ATOM     15  C   UNL     1       3.207  13.822  18.824  0.00  0.00    +0.000 C 
ATOM     16  O   UNL     1       3.516  13.694  20.007  0.00  0.00    +0.000 OA
ATOM     17  N   UNL     1       3.870  14.621  17.914  0.00  0.00    +0.000 N 
ATOM     18  H   UNL     1       1.717  13.441  17.456  0.00  0.00    +0.000 HD
ATOM     19  H   UNL     1       3.338  14.899  17.101  0.00  0.00    +0.000 HD
BRANCH  17  20
ATOM     20  C   UNL     1       5.050  15.350  18.204  0.00  0.00    +0.000 A 
ATOM     21  C   UNL     1       5.010  16.635  18.758  0.00  0.00    +0.000 A 
ATOM     22  C   UNL     1       6.175  17.380  18.946  0.00  0.00    +0.000 A 
ATOM     23  C   UNL     1       7.404  16.833  18.601  0.00  0.00    +0.000 A 
ATOM     24  C   UNL     1       7.462  15.531  18.106  0.00  0.00    +0.000 A 
ATOM     25 CL   UNL     1       8.990  14.855  17.691  0.00  0.00    +0.000 Cl
ATOM     26  C   UNL     1       6.294  14.779  17.920  0.00  0.00    +0.000 A 
ENDBRANCH  17  20
ENDBRANCH   5  14
BRANCH   7  27
ATOM     27  C   UNL     1       1.660   8.650  19.486  0.00  0.00    +0.000 A 
ATOM     28  C   UNL     1       2.074   8.328  18.186  0.00  0.00    +0.000 A 
ATOM     29  C   UNL     1       2.441   7.022  17.869  0.00  0.00    +0.000 A 
ATOM     30  C   UNL     1       2.398   6.032  18.848  0.00  0.00    +0.000 A 
ATOM     31  C   UNL     1       1.981   6.344  20.142  0.00  0.00    +0.000 A 
ATOM     32  C   UNL     1       1.600   7.649  20.462  0.00  0.00    +0.000 A 
ENDBRANCH   7  27
TORSDOF 3
ENDMDL
MODEL 6
REMARK VINA RESULT:      -7.7      4.794      6.393
REMARK  Name = 
REMARK  4 active torsions:
REMARK  status: ('A' for Active; 'I' for Inactive)
REMARK    1  A    between atoms: C_1  and  N_2
REMARK    2  A    between atoms: C_5  and  N_6
REMARK    3  A    between atoms: N_9  and  C_10
REMARK    4  A    between atoms: C_18  and  C_19
REMARK                            x       y       z     vdW  Elec       q    Type
REMARK                         _______ _______ _______ _____ _____    ______ ____
ROOT
ATOM      1  C   UNL     1      -1.147  16.403  21.040  0.00  0.00    +0.000 C 
ATOM      2  N   UNL     1      -0.479  15.169  20.641  0.00  0.00    +0.000 N 
ATOM      3  C   UNL     1       0.439  15.238  19.580  0.00  0.00    +0.000 C 
ATOM      4  O   UNL     1       0.651  16.290  18.963  0.00  0.00    +0.000 OA
ATOM      5  C   UNL     1       1.186  13.924  19.218  0.00  0.00    +0.000 C 
ATOM      6  N   UNL     1       0.243  13.058  18.539  0.00  0.00    +0.000 NA
ATOM      7  C   UNL     1      -0.688  12.504  19.243  0.00  0.00    +0.000 C 
ATOM      8  C   UNL     1      -0.870  12.694  20.719  0.00  0.00    +0.000 A 
ATOM      9  C   UNL     1      -1.196  11.550  21.479  0.00  0.00    +0.000 A 
ATOM     10  C   UNL     1      -1.532  11.655  22.827  0.00  0.00    +0.000 A 
ATOM     11  C   UNL     1      -1.523  12.900  23.437  0.00  0.00    +0.000 A 
ATOM     12  C   UNL     1      -1.168  14.033  22.700  0.00  0.00    +0.000 A 
ATOM     13  C   UNL     1      -0.823  13.961  21.334  0.00  0.00    +0.000 A 
ENDROOT
BRANCH   5  14
ATOM     14  N   UNL     1       2.241  14.171  18.255  0.00  0.00    +0.000 N 
ATOM     15  C   UNL     1       3.490  14.434  18.731  0.00  0.00    +0.000 C 
ATOM     16  O   UNL     1       3.751  14.314  19.926  0.00  0.00    +0.000 OA
ATOM     17  N   UNL     1       4.400  14.780  17.753  0.00  0.00    +0.000 N 
ATOM     18  H   UNL     1       1.938  14.576  17.387  0.00  0.00    +0.000 HD
ATOM     19  H   UNL     1       4.011  15.168  16.905  0.00  0.00    +0.000 HD
BRANCH  17  20
ATOM     20  C   UNL     1       5.786  14.969  17.983  0.00  0.00    +0.000 A 
ATOM     21  C   UNL     1       6.302  16.191  18.431  0.00  0.00    +0.000 A 
ATOM     22  C   UNL     1       7.676  16.393  18.559  0.00  0.00    +0.000 A 
ATOM     23  C   UNL     1       8.555  15.360  18.259  0.00  0.00    +0.000 A 
ATOM     24  C   UNL     1       8.050  14.121  17.870  0.00  0.00    +0.000 A 
ATOM     25 CL   UNL     1       9.144  12.841  17.511  0.00  0.00    +0.000 Cl
ATOM     26  C   UNL     1       6.669  13.913  17.746  0.00  0.00    +0.000 A 
ENDBRANCH  17  20
ENDBRANCH   5  14
BRANCH   7  27
ATOM     27  C   UNL     1      -1.629  11.609  18.495  0.00  0.00    +0.000 A 
ATOM     28  C   UNL     1      -1.094  10.516  17.800  0.00  0.00    +0.000 A 
ATOM     29  C   UNL     1      -1.929   9.667  17.075  0.00  0.00    +0.000 A 
ATOM     30  C   UNL     1      -3.301   9.905  17.042  0.00  0.00    +0.000 A 
ATOM     31  C   UNL     1      -3.839  10.996  17.727  0.00  0.00    +0.000 A 
ATOM     32  C   UNL     1      -3.006  11.857  18.444  0.00  0.00    +0.000 A 
ENDBRANCH   7  27
TORSDOF 3
ENDMDL
MODEL 7
REMARK VINA RESULT:      -7.7      4.891      7.104
REMARK  Name = 
REMARK  4 active torsions:
REMARK  status: ('A' for Active; 'I' for Inactive)
REMARK    1  A    between atoms: C_1  and  N_2
REMARK    2  A    between atoms: C_5  and  N_6
REMARK    3  A    between atoms: N_9  and  C_10
REMARK    4  A    between atoms: C_18  and  C_19
REMARK                            x       y       z     vdW  Elec       q    Type
REMARK                         _______ _______ _______ _____ _____    ______ ____
ROOT
ATOM      1  C   UNL     1      -1.548  13.568  23.225  0.00  0.00    +0.000 C 
ATOM      2  N   UNL     1      -0.791  13.059  22.087  0.00  0.00    +0.000 N 
ATOM      3  C   UNL     1      -0.227  13.997  21.207  0.00  0.00    +0.000 C 
ATOM      4  O   UNL     1      -0.396  15.215  21.349  0.00  0.00    +0.000 OA
ATOM      5  C   UNL     1       0.630  13.431  20.040  0.00  0.00    +0.000 C 
ATOM      6  N   UNL     1      -0.280  12.849  19.072  0.00  0.00    +0.000 NA
ATOM      7  C   UNL     1      -0.860  11.737  19.377  0.00  0.00    +0.000 C 
ATOM      8  C   UNL     1      -0.667  10.997  20.666  0.00  0.00    +0.000 A 
ATOM      9  C   UNL     1      -0.550   9.592  20.591  0.00  0.00    +0.000 A 
ATOM     10  C   UNL     1      -0.520   8.812  21.744  0.00  0.00    +0.000 A 
ATOM     11  C   UNL     1      -0.583   9.425  22.985  0.00  0.00    +0.000 A 
ATOM     12  C   UNL     1      -0.665  10.818  23.070  0.00  0.00    +0.000 A 
ATOM     13  C   UNL     1      -0.697  11.637  21.921  0.00  0.00    +0.000 A 
ENDROOT
BRANCH   5  14
ATOM     14  N   UNL     1       1.316  14.492  19.332  0.00  0.00    +0.000 N 
ATOM     15  C   UNL     1       2.673  14.556  19.437  0.00  0.00    +0.000 C 
ATOM     16  O   UNL     1       3.309  13.657  19.982  0.00  0.00    +0.000 OA
ATOM     17  N   UNL     1       3.228  15.668  18.836  0.00  0.00    +0.000 N 
ATOM     18  H   UNL     1       0.781  15.334  19.205  0.00  0.00    +0.000 HD
ATOM     19  H   UNL     1       2.619  16.467  18.736  0.00  0.00    +0.000 HD
BRANCH  17  20
ATOM     20  C   UNL     1       4.622  15.887  18.698  0.00  0.00    +0.000 A 
ATOM     21  C   UNL     1       5.425  15.065  17.899  0.00  0.00    +0.000 A 
ATOM     22  C   UNL     1       6.810  15.232  17.850  0.00  0.00    +0.000 A 
ATOM     23  C   UNL     1       7.407  16.246  18.588  0.00  0.00    +0.000 A 
ATOM     24  C   UNL     1       6.611  17.109  19.339  0.00  0.00    +0.000 A 
ATOM     25 CL   UNL     1       7.356  18.371  20.243  0.00  0.00    +0.000 Cl
ATOM     26  C   UNL     1       5.219  16.947  19.386  0.00  0.00    +0.000 A 
ENDBRANCH  17  20
ENDBRANCH   5  14
BRANCH   7  27
ATOM     27  C   UNL     1      -1.781  11.173  18.336  0.00  0.00    +0.000 A 
ATOM     28  C   UNL     1      -3.119  11.592  18.337  0.00  0.00    +0.000 A 
ATOM     29  C   UNL     1      -4.016  11.081  17.401  0.00  0.00    +0.000 A 
ATOM     30  C   UNL     1      -3.581  10.152  16.459  0.00  0.00    +0.000 A 
ATOM     31  C   UNL     1      -2.252   9.726  16.457  0.00  0.00    +0.000 A 
ATOM     32  C   UNL     1      -1.352  10.225  17.401  0.00  0.00    +0.000 A 
ENDBRANCH   7  27
TORSDOF 3
ENDMDL
MODEL 8
REMARK VINA RESULT:      -7.7      4.600      7.230
REMARK  Name = 
REMARK  4 active torsions:
REMARK  status: ('A' for Active; 'I' for Inactive)
REMARK    1  A    between atoms: C_1  and  N_2
REMARK    2  A    between atoms: C_5  and  N_6
REMARK    3  A    between atoms: N_9  and  C_10
REMARK    4  A    between atoms: C_18  and  C_19
REMARK                            x       y       z     vdW  Elec       q    Type
REMARK                         _______ _______ _______ _____ _____    ______ ____
ROOT
ATOM      1  C   UNL     1      -1.435  13.345  23.347  0.00  0.00    +0.000 C 
ATOM      2  N   UNL     1      -0.697  12.899  22.170  0.00  0.00    +0.000 N 
ATOM      3  C   UNL     1      -0.162  13.884  21.324  0.00  0.00    +0.000 C 
ATOM      4  O   UNL     1      -0.341  15.092  21.528  0.00  0.00    +0.000 OA
ATOM      5  C   UNL     1       0.675  13.385  20.114  0.00  0.00    +0.000 C 
ATOM      6  N   UNL     1      -0.249  12.839  19.138  0.00  0.00    +0.000 NA
ATOM      7  C   UNL     1      -0.811  11.707  19.402  0.00  0.00    +0.000 C 
ATOM      8  C   UNL     1      -0.583  10.909  20.649  0.00  0.00    +0.000 A 
ATOM      9  C   UNL     1      -0.453   9.511  20.504  0.00  0.00    +0.000 A 
ATOM     10  C   UNL     1      -0.390   8.676  21.617  0.00  0.00    +0.000 A 
ATOM     11  C   UNL     1      -0.432   9.229  22.888  0.00  0.00    +0.000 A 
ATOM     12  C   UNL     1      -0.527  10.615  23.041  0.00  0.00    +0.000 A 
ATOM     13  C   UNL     1      -0.593  11.488  21.934  0.00  0.00    +0.000 A 
ENDROOT
BRANCH   5  14
ATOM     14  N   UNL     1       1.335  14.486  19.443  0.00  0.00    +0.000 N 
ATOM     15  C   UNL     1       2.599  14.806  19.835  0.00  0.00    +0.000 C 
ATOM     16  O   UNL     1       3.220  14.091  20.619  0.00  0.00    +0.000 OA
ATOM     17  N   UNL     1       3.101  15.943  19.234  0.00  0.00    +0.000 N 
ATOM     18  H   UNL     1       0.720  15.201  19.095  0.00  0.00    +0.000 HD
ATOM     19  H   UNL     1       2.415  16.605  18.899  0.00  0.00    +0.000 HD
BRANCH  17  20
ATOM     20  C   UNL     1       4.435  16.401  19.379  0.00  0.00    +0.000 A 
ATOM     21  C   UNL     1       4.768  17.448  20.246  0.00  0.00    +0.000 A 
ATOM     22  C   UNL     1       6.067  17.953  20.305  0.00  0.00    +0.000 A 
ATOM     23  C   UNL     1       7.059  17.396  19.509  0.00  0.00    +0.000 A 
ATOM     24  C   UNL     1       6.753  16.313  18.687  0.00  0.00    +0.000 A 
ATOM     25 CL   UNL     1       7.990  15.620  17.710  0.00  0.00    +0.000 Cl
ATOM     26  C   UNL     1       5.449  15.800  18.629  0.00  0.00    +0.000 A 
ENDBRANCH  17  20
ENDBRANCH   5  14
BRANCH   7  27
ATOM     27  C   UNL     1      -1.748  11.184  18.355  0.00  0.00    +0.000 A 
ATOM     28  C   UNL     1      -3.072  11.644  18.360  0.00  0.00    +0.000 A 
ATOM     29  C   UNL     1      -3.984  11.171  17.417  0.00  0.00    +0.000 A 
ATOM     30  C   UNL     1      -3.578  10.239  16.465  0.00  0.00    +0.000 A 
ATOM     31  C   UNL     1      -2.262   9.772  16.459  0.00  0.00    +0.000 A 
ATOM     32  C   UNL     1      -1.348  10.233  17.409  0.00  0.00    +0.000 A 
ENDBRANCH   7  27
TORSDOF 3
ENDMDL
MODEL 9
REMARK VINA RESULT:      -7.6      1.072      1.222
REMARK  Name = 
REMARK  4 active torsions:
REMARK  status: ('A' for Active; 'I' for Inactive)
REMARK    1  A    between atoms: C_1  and  N_2
REMARK    2  A    between atoms: C_5  and  N_6
REMARK    3  A    between atoms: N_9  and  C_10
REMARK    4  A    between atoms: C_18  and  C_19
REMARK                            x       y       z     vdW  Elec       q    Type
REMARK                         _______ _______ _______ _____ _____    ______ ____
ROOT
ATOM      1  C   UNL     1       2.616  13.618  18.503  0.00  0.00    +0.000 C 
ATOM      2  N   UNL     1       1.780  12.495  18.918  0.00  0.00    +0.000 N 
ATOM      3  C   UNL     1       2.049  11.239  18.352  0.00  0.00    +0.000 C 
ATOM      4  O   UNL     1       2.928  11.079  17.494  0.00  0.00    +0.000 OA
ATOM      5  C   UNL     1       1.189  10.047  18.859  0.00  0.00    +0.000 C 
ATOM      6  N   UNL     1      -0.134  10.188  18.284  0.00  0.00    +0.000 NA
ATOM      7  C   UNL     1      -0.899  11.122  18.742  0.00  0.00    +0.000 C 
ATOM      8  C   UNL     1      -0.519  12.082  19.828  0.00  0.00    +0.000 A 
ATOM      9  C   UNL     1      -1.501  12.379  20.798  0.00  0.00    +0.000 A 
ATOM     10  C   UNL     1      -1.290  13.370  21.753  0.00  0.00    +0.000 A 
ATOM     11  C   UNL     1      -0.088  14.061  21.766  0.00  0.00    +0.000 A 
ATOM     12  C   UNL     1       0.903  13.751  20.831  0.00  0.00    +0.000 A 
ATOM     13  C   UNL     1       0.721  12.752  19.850  0.00  0.00    +0.000 A 
ENDROOT
BRANCH   5  14
ATOM     14  N   UNL     1       1.694   8.786  18.356  0.00  0.00    +0.000 N 
ATOM     15  C   UNL     1       1.758   7.735  19.219  0.00  0.00    +0.000 C 
ATOM     16  O   UNL     1       1.260   7.805  20.341  0.00  0.00    +0.000 OA
ATOM     17  N   UNL     1       2.367   6.613  18.692  0.00  0.00    +0.000 N 
ATOM     18  H   UNL     1       2.360   8.863  17.607  0.00  0.00    +0.000 HD
ATOM     19  H   UNL     1       3.013   6.778  17.933  0.00  0.00    +0.000 HD
BRANCH  17  20
ATOM     20  C   UNL     1       2.433   5.358  19.347  0.00  0.00    +0.000 A 
ATOM     21  C   UNL     1       2.135   5.217  20.707  0.00  0.00    +0.000 A 
ATOM     22  C   UNL     1       2.300   3.996  21.362  0.00  0.00    +0.000 A 
ATOM     23  C   UNL     1       2.746   2.889  20.651  0.00  0.00    +0.000 A 
ATOM     24  C   UNL     1       2.987   3.003  19.283  0.00  0.00    +0.000 A 
ATOM     25 CL   UNL     1       3.529   1.624  18.406  0.00  0.00    +0.000 Cl
ATOM     26  C   UNL     1       2.817   4.227  18.622  0.00  0.00    +0.000 A 
ENDBRANCH  17  20
ENDBRANCH   5  14
BRANCH   7  27
ATOM     27  C   UNL     1      -2.260  11.216  18.120  0.00  0.00    +0.000 A 
ATOM     28  C   UNL     1      -2.400  10.861  16.772  0.00  0.00    +0.000 A 
ATOM     29  C   UNL     1      -3.643  10.950  16.147  0.00  0.00    +0.000 A 
ATOM     30  C   UNL     1      -4.751  11.392  16.866  0.00  0.00    +0.000 A 
ATOM     31  C   UNL     1      -4.617  11.753  18.208  0.00  0.00    +0.000 A 
ATOM     32  C   UNL     1      -3.372  11.678  18.835  0.00  0.00    +0.000 A 
ENDBRANCH   7  27
TORSDOF 3
ENDMDL
