MODEL 1
REMARK VINA RESULT:      -9.1      0.000      0.000
REMARK  Name = 
REMARK  9 active torsions:
REMARK  status: ('A' for Active; 'I' for Inactive)
REMARK    1  A    between atoms: N_3  and  C_4
REMARK    2  A    between atoms: C_4  and  C_5
REMARK    3  A    between atoms: C_8  and  C_9
REMARK    4  A    between atoms: C_9  and  C_10
REMARK    5  A    between atoms: C_19  and  C_20
REMARK    6  A    between atoms: N_27  and  C_28
REMARK    7  A    between atoms: C_28  and  C_29
REMARK    8  A    between atoms: C_29  and  O_30
REMARK    9  A    between atoms: C_29  and  C_31
REMARK                            x       y       z     vdW  Elec       q    Type
REMARK                         _______ _______ _______ _____ _____    ______ ____
ROOT
ATOM      1  O   UNL     1       5.232   3.862  16.961  0.00  0.00    +0.000 OA
ATOM      2  C   UNL     1       4.849   4.956  17.339  0.00  0.00    +0.000 A 
ATOM      3  N   UNL     1       5.587   6.130  17.415  0.00  0.00    +0.000 N 
ATOM      4  N   UNL     1       4.816   7.150  17.905  0.00  0.00    +0.000 NA
ATOM      5  C   UNL     1       3.646   6.608  18.116  0.00  0.00    +0.000 A 
ATOM      6  N   UNL     1       3.582   5.287  17.785  0.00  0.00    +0.000 N 
ENDROOT
BRANCH   5   7
ATOM      7  C   UNL     1       2.538   7.413  18.673  0.00  0.00    +0.000 A 
ATOM      8  C   UNL     1       2.040   8.465  17.884  0.00  0.00    +0.000 A 
ATOM      9  C   UNL     1       1.141   9.391  18.418  0.00  0.00    +0.000 A 
ATOM     10  C   UNL     1       0.732   9.267  19.742  0.00  0.00    +0.000 A 
ATOM     11 CL   UNL     1      -0.300  10.456  20.435  0.00  0.00    +0.000 Cl
ATOM     12  C   UNL     1       1.190   8.207  20.523  0.00  0.00    +0.000 A 
ATOM     13  C   UNL     1       2.100   7.283  19.993  0.00  0.00    +0.000 A 
ENDBRANCH   5   7
BRANCH   3  14
ATOM     14  C   UNL     1       6.945   6.309  16.959  0.00  0.00    +0.000 C 
BRANCH  14  15
ATOM     15  C   UNL     1       7.612   7.448  17.640  0.00  0.00    +0.000 A 
ATOM     16  N   UNL     1       8.445   7.372  18.663  0.00  0.00    +0.000 NA
ATOM     17  N   UNL     1       8.885   8.639  18.950  0.00  0.00    +0.000 NA
ATOM     18  C   UNL     1       8.317   9.473  18.105  0.00  0.00    +0.000 A 
ATOM     19  N   UNL     1       7.503   8.761  17.263  0.00  0.00    +0.000 N 
ATOM     20  H   UNL     1       6.938   9.117  16.503  0.00  0.00    +0.000 HD
BRANCH  18  21
ATOM     21  C   UNL     1       8.540  10.937  18.005  0.00  0.00    +0.000 C 
BRANCH  21  22
ATOM     22  C   UNL     1       9.652  11.441  18.887  0.00  0.00    +0.000 A 
ATOM     23  C   UNL     1       9.410  11.799  20.223  0.00  0.00    +0.000 A 
ATOM     24  C   UNL     1      10.458  12.235  21.039  0.00  0.00    +0.000 A 
ATOM     25  C   UNL     1      11.754  12.327  20.529  0.00  0.00    +0.000 A 
ATOM     26  C   UNL     1      11.999  11.996  19.198  0.00  0.00    +0.000 A 
ATOM     27  C   UNL     1      10.951  11.564  18.389  0.00  0.00    +0.000 A 
ATOM     28  F   UNL     1      11.203  11.257  17.109  0.00  0.00    +0.000 F 
ENDBRANCH  21  22
ENDBRANCH  18  21
ENDBRANCH  14  15
ENDBRANCH   3  14
BRANCH   6  29
ATOM     29  C   UNL     1       2.525   4.288  17.822  0.00  0.00    +0.000 C 
BRANCH  29  30
ATOM     30  C   UNL     1       2.497   3.375  19.047  0.00  0.00    +0.000 C 
BRANCH  30  31
ATOM     31  C   UNL     1       1.083   3.117  19.601  0.00  0.00    +0.000 C 
ATOM     32  F   UNL     1       0.512   4.209  20.139  0.00  0.00    +0.000 F 
ATOM     33  F   UNL     1       0.258   2.679  18.619  0.00  0.00    +0.000 F 
ATOM     34  F   UNL     1       1.113   2.160  20.558  0.00  0.00    +0.000 F 
ENDBRANCH  30  31
BRANCH  30  35
ATOM     35  O   UNL     1       3.178   2.150  18.669  0.00  0.00    +0.000 OA
ATOM     36  H   UNL     1       2.521   1.560  18.244  0.00  0.00    +0.000 HD
ENDBRANCH  30  35
ENDBRANCH  29  30
ENDBRANCH   6  29
TORSDOF 9
ENDMDL
MODEL 2
REMARK VINA RESULT:      -8.9      4.636      6.483
REMARK  Name = 
REMARK  9 active torsions:
REMARK  status: ('A' for Active; 'I' for Inactive)
REMARK    1  A    between atoms: N_3  and  C_4
REMARK    2  A    between atoms: C_4  and  C_5
REMARK    3  A    between atoms: C_8  and  C_9
REMARK    4  A    between atoms: C_9  and  C_10
REMARK    5  A    between atoms: C_19  and  C_20
REMARK    6  A    between atoms: N_27  and  C_28
REMARK    7  A    between atoms: C_28  and  C_29
REMARK    8  A    between atoms: C_29  and  O_30
REMARK    9  A    between atoms: C_29  and  C_31
REMARK                            x       y       z     vdW  Elec       q    Type
REMARK                         _______ _______ _______ _____ _____    ______ ____
ROOT
ATOM      1  O   UNL     1       5.002   2.813  19.921  0.00  0.00    +0.000 OA
ATOM      2  C   UNL     1       4.685   3.912  19.496  0.00  0.00    +0.000 A 
ATOM      3  N   UNL     1       5.397   4.716  18.617  0.00  0.00    +0.000 N 
ATOM      4  N   UNL     1       4.726   5.887  18.386  0.00  0.00    +0.000 NA
ATOM      5  C   UNL     1       3.640   5.791  19.105  0.00  0.00    +0.000 A 
ATOM      6  N   UNL     1       3.534   4.620  19.794  0.00  0.00    +0.000 N 
ENDROOT
BRANCH   5   7
ATOM      7  C   UNL     1       2.658   6.897  19.127  0.00  0.00    +0.000 A 
ATOM      8  C   UNL     1       2.444   7.599  17.928  0.00  0.00    +0.000 A 
ATOM      9  C   UNL     1       1.692   8.776  17.917  0.00  0.00    +0.000 A 
ATOM     10  C   UNL     1       1.146   9.254  19.105  0.00  0.00    +0.000 A 
ATOM     11 CL   UNL     1       0.299  10.750  19.117  0.00  0.00    +0.000 Cl
ATOM     12  C   UNL     1       1.319   8.546  20.293  0.00  0.00    +0.000 A 
ATOM     13  C   UNL     1       2.082   7.371  20.308  0.00  0.00    +0.000 A 
ENDBRANCH   5   7
BRANCH   3  14
ATOM     14  C   UNL     1       6.625   4.358  17.944  0.00  0.00    +0.000 C 
BRANCH  14  15
ATOM     15  C   UNL     1       6.590   4.717  16.503  0.00  0.00    +0.000 A 
ATOM     16  N   UNL     1       7.479   5.448  15.854  0.00  0.00    +0.000 NA
ATOM     17  N   UNL     1       7.116   5.489  14.533  0.00  0.00    +0.000 NA
ATOM     18  C   UNL     1       6.012   4.786  14.388  0.00  0.00    +0.000 A 
ATOM     19  N   UNL     1       5.645   4.284  15.610  0.00  0.00    +0.000 N 
ATOM     20  H   UNL     1       4.847   3.701  15.823  0.00  0.00    +0.000 HD
BRANCH  18  21
ATOM     21  C   UNL     1       5.287   4.508  13.123  0.00  0.00    +0.000 C 
BRANCH  21  22
ATOM     22  C   UNL     1       5.914   3.416  12.295  0.00  0.00    +0.000 A 
ATOM     23  C   UNL     1       5.222   2.225  12.025  0.00  0.00    +0.000 A 
ATOM     24  C   UNL     1       5.805   1.234  11.229  0.00  0.00    +0.000 A 
ATOM     25  C   UNL     1       7.085   1.416  10.705  0.00  0.00    +0.000 A 
ATOM     26  C   UNL     1       7.789   2.586  10.987  0.00  0.00    +0.000 A 
ATOM     27  C   UNL     1       7.204   3.569  11.781  0.00  0.00    +0.000 A 
ATOM     28  F   UNL     1       7.898   4.684  12.050  0.00  0.00    +0.000 F 
ENDBRANCH  21  22
ENDBRANCH  18  21
ENDBRANCH  14  15
ENDBRANCH   3  14
BRANCH   6  29
ATOM     29  C   UNL     1       2.530   4.060  20.686  0.00  0.00    +0.000 C 
BRANCH  29  30
ATOM     30  C   UNL     1       1.218   3.617  20.038  0.00  0.00    +0.000 C 
BRANCH  30  31
ATOM     31  C   UNL     1       1.406   2.775  18.762  0.00  0.00    +0.000 C 
ATOM     32  F   UNL     1       1.836   3.490  17.708  0.00  0.00    +0.000 F 
ATOM     33  F   UNL     1       2.312   1.789  18.971  0.00  0.00    +0.000 F 
ATOM     34  F   UNL     1       0.242   2.184  18.406  0.00  0.00    +0.000 F 
ENDBRANCH  30  31
BRANCH  30  35
ATOM     35  O   UNL     1       0.464   2.917  21.061  0.00  0.00    +0.000 OA
ATOM     36  H   UNL     1      -0.065   2.220  20.620  0.00  0.00    +0.000 HD
ENDBRANCH  30  35
ENDBRANCH  29  30
ENDBRANCH   6  29
TORSDOF 9
ENDMDL
MODEL 3
REMARK VINA RESULT:      -8.9      4.857      6.645
REMARK  Name = 
REMARK  9 active torsions:
REMARK  status: ('A' for Active; 'I' for Inactive)
REMARK    1  A    between atoms: N_3  and  C_4
REMARK    2  A    between atoms: C_4  and  C_5
REMARK    3  A    between atoms: C_8  and  C_9
REMARK    4  A    between atoms: C_9  and  C_10
REMARK    5  A    between atoms: C_19  and  C_20
REMARK    6  A    between atoms: N_27  and  C_28
REMARK    7  A    between atoms: C_28  and  C_29
REMARK    8  A    between atoms: C_29  and  O_30
REMARK    9  A    between atoms: C_29  and  C_31
REMARK                            x       y       z     vdW  Elec       q    Type
REMARK                         _______ _______ _______ _____ _____    ______ ____
ROOT
ATOM      1  O   UNL     1       3.944   2.626  18.202  0.00  0.00    +0.000 OA
ATOM      2  C   UNL     1       3.893   3.838  18.326  0.00  0.00    +0.000 A 
ATOM      3  N   UNL     1       4.949   4.738  18.278  0.00  0.00    +0.000 N 
ATOM      4  N   UNL     1       4.500   6.016  18.477  0.00  0.00    +0.000 NA
ATOM      5  C   UNL     1       3.210   5.891  18.640  0.00  0.00    +0.000 A 
ATOM      6  N   UNL     1       2.764   4.606  18.548  0.00  0.00    +0.000 N 
ENDROOT
BRANCH   5   7
ATOM      7  C   UNL     1       2.370   7.079  18.903  0.00  0.00    +0.000 A 
ATOM      8  C   UNL     1       2.195   7.996  17.852  0.00  0.00    +0.000 A 
ATOM      9  C   UNL     1       1.590   9.234  18.081  0.00  0.00    +0.000 A 
ATOM     10  C   UNL     1       1.154   9.560  19.362  0.00  0.00    +0.000 A 
ATOM     11 CL   UNL     1       0.494  11.117  19.672  0.00  0.00    +0.000 Cl
ATOM     12  C   UNL     1       1.288   8.644  20.404  0.00  0.00    +0.000 A 
ATOM     13  C   UNL     1       1.904   7.406  20.179  0.00  0.00    +0.000 A 
ENDBRANCH   5   7
BRANCH   3  14
ATOM     14  C   UNL     1       6.323   4.418  17.964  0.00  0.00    +0.000 C 
BRANCH  14  15
ATOM     15  C   UNL     1       6.633   4.658  16.532  0.00  0.00    +0.000 A 
ATOM     16  N   UNL     1       7.826   4.886  16.013  0.00  0.00    +0.000 NA
ATOM     17  N   UNL     1       7.689   4.989  14.653  0.00  0.00    +0.000 NA
ATOM     18  C   UNL     1       6.417   4.827  14.355  0.00  0.00    +0.000 A 
ATOM     19  N   UNL     1       5.716   4.618  15.514  0.00  0.00    +0.000 N 
ATOM     20  H   UNL     1       4.722   4.454  15.613  0.00  0.00    +0.000 HD
BRANCH  18  21
ATOM     21  C   UNL     1       5.811   4.804  13.000  0.00  0.00    +0.000 C 
BRANCH  21  22
ATOM     22  C   UNL     1       6.104   3.545  12.228  0.00  0.00    +0.000 A 
ATOM     23  C   UNL     1       7.422   3.181  11.910  0.00  0.00    +0.000 A 
ATOM     24  C   UNL     1       7.681   1.993  11.220  0.00  0.00    +0.000 A 
ATOM     25  C   UNL     1       6.629   1.162  10.832  0.00  0.00    +0.000 A 
ATOM     26  C   UNL     1       5.316   1.527  11.122  0.00  0.00    +0.000 A 
ATOM     27  C   UNL     1       5.064   2.712  11.808  0.00  0.00    +0.000 A 
ATOM     28  F   UNL     1       3.794   3.052  12.072  0.00  0.00    +0.000 F 
ENDBRANCH  21  22
ENDBRANCH  18  21
ENDBRANCH  14  15
ENDBRANCH   3  14
BRANCH   6  29
ATOM     29  C   UNL     1       1.451   3.984  18.637  0.00  0.00    +0.000 C 
BRANCH  29  30
ATOM     30  C   UNL     1       1.316   2.821  19.619  0.00  0.00    +0.000 C 
BRANCH  30  31
ATOM     31  C   UNL     1       1.605   3.203  21.082  0.00  0.00    +0.000 C 
ATOM     32  F   UNL     1       0.833   2.550  21.969  0.00  0.00    +0.000 F 
ATOM     33  F   UNL     1       2.894   2.930  21.401  0.00  0.00    +0.000 F 
ATOM     34  F   UNL     1       1.415   4.529  21.276  0.00  0.00    +0.000 F 
ENDBRANCH  30  31
BRANCH  30  35
ATOM     35  O   UNL     1      -0.018   2.278  19.439  0.00  0.00    +0.000 OA
ATOM     36  H   UNL     1      -0.181   2.196  18.476  0.00  0.00    +0.000 HD
ENDBRANCH  30  35
ENDBRANCH  29  30
ENDBRANCH   6  29
TORSDOF 9
ENDMDL
MODEL 4
REMARK VINA RESULT:      -8.6      4.792      6.863
REMARK  Name = 
REMARK  9 active torsions:
REMARK  status: ('A' for Active; 'I' for Inactive)
REMARK    1  A    between atoms: N_3  and  C_4
REMARK    2  A    between atoms: C_4  and  C_5
REMARK    3  A    between atoms: C_8  and  C_9
REMARK    4  A    between atoms: C_9  and  C_10
REMARK    5  A    between atoms: C_19  and  C_20
REMARK    6  A    between atoms: N_27  and  C_28
REMARK    7  A    between atoms: C_28  and  C_29
REMARK    8  A    between atoms: C_29  and  O_30
REMARK    9  A    between atoms: C_29  and  C_31
REMARK                            x       y       z     vdW  Elec       q    Type
REMARK                         _______ _______ _______ _____ _____    ______ ____
ROOT
ATOM      1  O   UNL     1       4.085   2.806  17.446  0.00  0.00    +0.000 OA
ATOM      2  C   UNL     1       4.100   3.999  17.699  0.00  0.00    +0.000 A 
ATOM      3  N   UNL     1       5.206   4.837  17.759  0.00  0.00    +0.000 N 
ATOM      4  N   UNL     1       4.826   6.110  18.089  0.00  0.00    +0.000 NA
ATOM      5  C   UNL     1       3.529   6.043  18.223  0.00  0.00    +0.000 A 
ATOM      6  N   UNL     1       3.012   4.803  17.989  0.00  0.00    +0.000 N 
ENDROOT
BRANCH   5   7
ATOM      7  C   UNL     1       2.753   7.243  18.603  0.00  0.00    +0.000 A 
ATOM      8  C   UNL     1       2.274   7.315  19.923  0.00  0.00    +0.000 A 
ATOM      9  C   UNL     1       1.368   8.309  20.298  0.00  0.00    +0.000 A 
ATOM     10  C   UNL     1       0.940   9.241  19.357  0.00  0.00    +0.000 A 
ATOM     11 CL   UNL     1      -0.246  10.410  19.785  0.00  0.00    +0.000 Cl
ATOM     12  C   UNL     1       1.437   9.202  18.054  0.00  0.00    +0.000 A 
ATOM     13  C   UNL     1       2.337   8.199  17.673  0.00  0.00    +0.000 A 
ENDBRANCH   5   7
BRANCH   3  14
ATOM     14  C   UNL     1       6.564   4.473  17.428  0.00  0.00    +0.000 C 
BRANCH  14  15
ATOM     15  C   UNL     1       6.844   4.640  15.979  0.00  0.00    +0.000 A 
ATOM     16  N   UNL     1       7.315   5.725  15.390  0.00  0.00    +0.000 NA
ATOM     17  N   UNL     1       7.491   5.446  14.059  0.00  0.00    +0.000 NA
ATOM     18  C   UNL     1       7.126   4.199  13.849  0.00  0.00    +0.000 A 
ATOM     19  N   UNL     1       6.708   3.655  15.036  0.00  0.00    +0.000 N 
ATOM     20  H   UNL     1       6.374   2.715  15.201  0.00  0.00    +0.000 HD
BRANCH  18  21
ATOM     21  C   UNL     1       7.196   3.448  12.569  0.00  0.00    +0.000 C 
BRANCH  21  22
ATOM     22  C   UNL     1       5.852   3.215  11.931  0.00  0.00    +0.000 A 
ATOM     23  C   UNL     1       4.855   4.202  11.962  0.00  0.00    +0.000 A 
ATOM     24  C   UNL     1       3.623   3.984  11.338  0.00  0.00    +0.000 A 
ATOM     25  C   UNL     1       3.370   2.776  10.686  0.00  0.00    +0.000 A 
ATOM     26  C   UNL     1       4.346   1.781  10.670  0.00  0.00    +0.000 A 
ATOM     27  C   UNL     1       5.570   2.004  11.295  0.00  0.00    +0.000 A 
ATOM     28  F   UNL     1       6.494   1.032  11.277  0.00  0.00    +0.000 F 
ENDBRANCH  21  22
ENDBRANCH  18  21
ENDBRANCH  14  15
ENDBRANCH   3  14
BRANCH   6  29
ATOM     29  C   UNL     1       1.665   4.252  17.996  0.00  0.00    +0.000 C 
BRANCH  29  30
ATOM     30  C   UNL     1       1.396   3.131  18.999  0.00  0.00    +0.000 C 
BRANCH  30  31
ATOM     31  C   UNL     1       1.272   3.613  20.456  0.00  0.00    +0.000 C 
ATOM     32  F   UNL     1       2.448   3.967  21.004  0.00  0.00    +0.000 F 
ATOM     33  F   UNL     1       0.456   4.694  20.534  0.00  0.00    +0.000 F 
ATOM     34  F   UNL     1       0.734   2.646  21.234  0.00  0.00    +0.000 F 
ENDBRANCH  30  31
BRANCH  30  35
ATOM     35  O   UNL     1       0.206   2.439  18.538  0.00  0.00    +0.000 OA
ATOM     36  H   UNL     1       0.213   1.538  18.927  0.00  0.00    +0.000 HD
ENDBRANCH  30  35
ENDBRANCH  29  30
ENDBRANCH   6  29
TORSDOF 9
ENDMDL
MODEL 5
REMARK VINA RESULT:      -8.5      0.900      1.106
REMARK  Name = 
REMARK  9 active torsions:
REMARK  status: ('A' for Active; 'I' for Inactive)
REMARK    1  A    between atoms: N_3  and  C_4
REMARK    2  A    between atoms: C_4  and  C_5
REMARK    3  A    between atoms: C_8  and  C_9
REMARK    4  A    between atoms: C_9  and  C_10
REMARK    5  A    between atoms: C_19  and  C_20
REMARK    6  A    between atoms: N_27  and  C_28
REMARK    7  A    between atoms: C_28  and  C_29
REMARK    8  A    between atoms: C_29  and  O_30
REMARK    9  A    between atoms: C_29  and  C_31
REMARK                            x       y       z     vdW  Elec       q    Type
REMARK                         _______ _______ _______ _____ _____    ______ ____
ROOT
ATOM      1  O   UNL     1       4.994   4.007  18.369  0.00  0.00    +0.000 OA
ATOM      2  C   UNL     1       4.540   5.137  18.312  0.00  0.00    +0.000 A 
ATOM      3  N   UNL     1       5.151   6.268  17.787  0.00  0.00    +0.000 N 
ATOM      4  N   UNL     1       4.334   7.359  17.917  0.00  0.00    +0.000 NA
ATOM      5  C   UNL     1       3.260   6.899  18.501  0.00  0.00    +0.000 A 
ATOM      6  N   UNL     1       3.302   5.561  18.760  0.00  0.00    +0.000 N 
ENDROOT
BRANCH   5   7
ATOM      7  C   UNL     1       2.140   7.807  18.830  0.00  0.00    +0.000 A 
ATOM      8  C   UNL     1       1.616   8.594  17.790  0.00  0.00    +0.000 A 
ATOM      9  C   UNL     1       0.703   9.616  18.061  0.00  0.00    +0.000 A 
ATOM     10  C   UNL     1       0.305   9.852  19.373  0.00  0.00    +0.000 A 
ATOM     11 CL   UNL     1      -0.745  11.166  19.727  0.00  0.00    +0.000 Cl
ATOM     12  C   UNL     1       0.788   9.053  20.409  0.00  0.00    +0.000 A 
ATOM     13  C   UNL     1       1.712   8.035  20.140  0.00  0.00    +0.000 A 
ENDBRANCH   5   7
BRANCH   3  14
ATOM     14  C   UNL     1       6.424   6.306  17.105  0.00  0.00    +0.000 C 
BRANCH  14  15
ATOM     15  C   UNL     1       7.302   7.381  17.632  0.00  0.00    +0.000 A 
ATOM     16  N   UNL     1       8.301   7.233  18.485  0.00  0.00    +0.000 NA
ATOM     17  N   UNL     1       8.895   8.455  18.663  0.00  0.00    +0.000 NA
ATOM     18  C   UNL     1       8.255   9.336  17.923  0.00  0.00    +0.000 A 
ATOM     19  N   UNL     1       7.240   8.698  17.258  0.00  0.00    +0.000 N 
ATOM     20  H   UNL     1       6.577   9.102  16.610  0.00  0.00    +0.000 HD
BRANCH  18  21
ATOM     21  C   UNL     1       8.582  10.775  17.758  0.00  0.00    +0.000 C 
BRANCH  21  22
ATOM     22  C   UNL     1       9.589  11.283  18.756  0.00  0.00    +0.000 A 
ATOM     23  C   UNL     1       9.266  11.396  20.117  0.00  0.00    +0.000 A 
ATOM     24  C   UNL     1      10.221  11.840  21.036  0.00  0.00    +0.000 A 
ATOM     25  C   UNL     1      11.503  12.185  20.606  0.00  0.00    +0.000 A 
ATOM     26  C   UNL     1      11.826  12.099  19.253  0.00  0.00    +0.000 A 
ATOM     27  C   UNL     1      10.870  11.657  18.342  0.00  0.00    +0.000 A 
ATOM     28  F   UNL     1      11.194  11.588  17.043  0.00  0.00    +0.000 F 
ENDBRANCH  21  22
ENDBRANCH  18  21
ENDBRANCH  14  15
ENDBRANCH   3  14
BRANCH   6  29
ATOM     29  C   UNL     1       2.369   4.619  19.360  0.00  0.00    +0.000 C 
BRANCH  29  30
ATOM     30  C   UNL     1       1.786   3.556  18.429  0.00  0.00    +0.000 C 
BRANCH  30  31
ATOM     31  C   UNL     1       0.898   2.520  19.143  0.00  0.00    +0.000 C 
ATOM     32  F   UNL     1       0.102   1.831  18.307  0.00  0.00    +0.000 F 
ATOM     33  F   UNL     1       1.659   1.614  19.805  0.00  0.00    +0.000 F 
ATOM     34  F   UNL     1       0.103   3.123  20.058  0.00  0.00    +0.000 F 
ENDBRANCH  30  31
BRANCH  30  35
ATOM     35  O   UNL     1       1.079   4.265  17.379  0.00  0.00    +0.000 OA
ATOM     36  H   UNL     1       0.946   3.642  16.634  0.00  0.00    +0.000 HD
ENDBRANCH  30  35
ENDBRANCH  29  30
ENDBRANCH   6  29
TORSDOF 9
ENDMDL
MODEL 6
REMARK VINA RESULT:      -8.5      4.807      6.807
REMARK  Name = 
REMARK  9 active torsions:
REMARK  status: ('A' for Active; 'I' for Inactive)
REMARK    1  A    between atoms: N_3  and  C_4
REMARK    2  A    between atoms: C_4  and  C_5
REMARK    3  A    between atoms: C_8  and  C_9
REMARK    4  A    between atoms: C_9  and  C_10
REMARK    5  A    between atoms: C_19  and  C_20
REMARK    6  A    between atoms: N_27  and  C_28
REMARK    7  A    between atoms: C_28  and  C_29
REMARK    8  A    between atoms: C_29  and  O_30
REMARK    9  A    between atoms: C_29  and  C_31
REMARK                            x       y       z     vdW  Elec       q    Type
REMARK                         _______ _______ _______ _____ _____    ______ ____
ROOT
ATOM      1  O   UNL     1       5.113   2.825  19.409  0.00  0.00    +0.000 OA
ATOM      2  C   UNL     1       4.881   3.979  19.094  0.00  0.00    +0.000 A 
ATOM      3  N   UNL     1       5.676   4.825  18.332  0.00  0.00    +0.000 N 
ATOM      4  N   UNL     1       5.086   6.054  18.206  0.00  0.00    +0.000 NA
ATOM      5  C   UNL     1       3.967   5.952  18.871  0.00  0.00    +0.000 A 
ATOM      6  N   UNL     1       3.763   4.724  19.426  0.00  0.00    +0.000 N 
ENDROOT
BRANCH   5   7
ATOM      7  C   UNL     1       3.052   7.110  18.977  0.00  0.00    +0.000 A 
ATOM      8  C   UNL     1       2.367   7.285  20.193  0.00  0.00    +0.000 A 
ATOM      9  C   UNL     1       1.341   8.227  20.301  0.00  0.00    +0.000 A 
ATOM     10  C   UNL     1       0.998   9.001  19.197  0.00  0.00    +0.000 A 
ATOM     11 CL   UNL     1      -0.325  10.095  19.295  0.00  0.00    +0.000 Cl
ATOM     12  C   UNL     1       1.695   8.862  17.997  0.00  0.00    +0.000 A 
ATOM     13  C   UNL     1       2.717   7.911  17.883  0.00  0.00    +0.000 A 
ENDBRANCH   5   7
BRANCH   3  14
ATOM     14  C   UNL     1       6.907   4.462  17.669  0.00  0.00    +0.000 C 
BRANCH  14  15
ATOM     15  C   UNL     1       6.869   4.784  16.220  0.00  0.00    +0.000 A 
ATOM     16  N   UNL     1       7.802   5.417  15.531  0.00  0.00    +0.000 NA
ATOM     17  N   UNL     1       7.412   5.453  14.217  0.00  0.00    +0.000 NA
ATOM     18  C   UNL     1       6.249   4.846  14.117  0.00  0.00    +0.000 A 
ATOM     19  N   UNL     1       5.869   4.411  15.360  0.00  0.00    +0.000 N 
ATOM     20  H   UNL     1       5.029   3.906  15.607  0.00  0.00    +0.000 HD
BRANCH  18  21
ATOM     21  C   UNL     1       5.472   4.598  12.875  0.00  0.00    +0.000 C 
BRANCH  21  22
ATOM     22  C   UNL     1       5.916   3.373  12.120  0.00  0.00    +0.000 A 
ATOM     23  C   UNL     1       7.277   3.055  11.992  0.00  0.00    +0.000 A 
ATOM     24  C   UNL     1       7.673   1.898  11.314  0.00  0.00    +0.000 A 
ATOM     25  C   UNL     1       6.716   1.052  10.750  0.00  0.00    +0.000 A 
ATOM     26  C   UNL     1       5.364   1.372  10.853  0.00  0.00    +0.000 A 
ATOM     27  C   UNL     1       4.976   2.526  11.528  0.00  0.00    +0.000 A 
ATOM     28  F   UNL     1       3.671   2.823  11.609  0.00  0.00    +0.000 F 
ENDBRANCH  21  22
ENDBRANCH  18  21
ENDBRANCH  14  15
ENDBRANCH   3  14
BRANCH   6  29
ATOM     29  C   UNL     1       2.690   4.138  20.216  0.00  0.00    +0.000 C 
BRANCH  29  30
ATOM     30  C   UNL     1       1.412   3.776  19.461  0.00  0.00    +0.000 C 
BRANCH  30  31
ATOM     31  C   UNL     1       1.484   2.427  18.723  0.00  0.00    +0.000 C 
ATOM     32  F   UNL     1       2.308   1.540  19.309  0.00  0.00    +0.000 F 
ATOM     33  F   UNL     1       0.258   1.850  18.661  0.00  0.00    +0.000 F 
ATOM     34  F   UNL     1       1.912   2.601  17.451  0.00  0.00    +0.000 F 
ENDBRANCH  30  31
BRANCH  30  35
ATOM     35  O   UNL     1       0.330   3.824  20.428  0.00  0.00    +0.000 OA
ATOM     36  H   UNL     1      -0.473   3.460  19.998  0.00  0.00    +0.000 HD
ENDBRANCH  30  35
ENDBRANCH  29  30
ENDBRANCH   6  29
TORSDOF 9
ENDMDL
MODEL 7
REMARK VINA RESULT:      -8.5      1.257      1.830
REMARK  Name = 
REMARK  9 active torsions:
REMARK  status: ('A' for Active; 'I' for Inactive)
REMARK    1  A    between atoms: N_3  and  C_4
REMARK    2  A    between atoms: C_4  and  C_5
REMARK    3  A    between atoms: C_8  and  C_9
REMARK    4  A    between atoms: C_9  and  C_10
REMARK    5  A    between atoms: C_19  and  C_20
REMARK    6  A    between atoms: N_27  and  C_28
REMARK    7  A    between atoms: C_28  and  C_29
REMARK    8  A    between atoms: C_29  and  O_30
REMARK    9  A    between atoms: C_29  and  C_31
REMARK                            x       y       z     vdW  Elec       q    Type
REMARK                         _______ _______ _______ _____ _____    ______ ____
ROOT
ATOM      1  O   UNL     1       5.633   3.667  16.908  0.00  0.00    +0.000 OA
ATOM      2  C   UNL     1       5.231   4.679  17.457  0.00  0.00    +0.000 A 
ATOM      3  N   UNL     1       5.986   5.754  17.906  0.00  0.00    +0.000 N 
ATOM      4  N   UNL     1       5.180   6.697  18.487  0.00  0.00    +0.000 NA
ATOM      5  C   UNL     1       3.974   6.205  18.389  0.00  0.00    +0.000 A 
ATOM      6  N   UNL     1       3.920   4.994  17.766  0.00  0.00    +0.000 N 
ENDROOT
BRANCH   5   7
ATOM      7  C   UNL     1       2.817   6.947  18.935  0.00  0.00    +0.000 A 
ATOM      8  C   UNL     1       2.361   8.062  18.210  0.00  0.00    +0.000 A 
ATOM      9  C   UNL     1       1.413   8.929  18.760  0.00  0.00    +0.000 A 
ATOM     10  C   UNL     1       0.912   8.681  20.034  0.00  0.00    +0.000 A 
ATOM     11 CL   UNL     1      -0.184   9.793  20.755  0.00  0.00    +0.000 Cl
ATOM     12  C   UNL     1       1.329   7.558  20.747  0.00  0.00    +0.000 A 
ATOM     13  C   UNL     1       2.287   6.694  20.203  0.00  0.00    +0.000 A 
ENDBRANCH   5   7
BRANCH   3  14
ATOM     14  C   UNL     1       7.407   5.932  17.715  0.00  0.00    +0.000 C 
BRANCH  14  15
ATOM     15  C   UNL     1       7.809   7.354  17.856  0.00  0.00    +0.000 A 
ATOM     16  N   UNL     1       7.420   8.361  17.094  0.00  0.00    +0.000 NA
ATOM     17  N   UNL     1       7.965   9.514  17.596  0.00  0.00    +0.000 NA
ATOM     18  C   UNL     1       8.683   9.202  18.655  0.00  0.00    +0.000 A 
ATOM     19  N   UNL     1       8.613   7.847  18.851  0.00  0.00    +0.000 N 
ATOM     20  H   UNL     1       9.051   7.306  19.585  0.00  0.00    +0.000 HD
BRANCH  18  21
ATOM     21  C   UNL     1       9.411  10.136  19.551  0.00  0.00    +0.000 C 
BRANCH  21  22
ATOM     22  C   UNL     1       9.810  11.425  18.883  0.00  0.00    +0.000 A 
ATOM     23  C   UNL     1      10.695  11.432  17.794  0.00  0.00    +0.000 A 
ATOM     24  C   UNL     1      11.033  12.634  17.164  0.00  0.00    +0.000 A 
ATOM     25  C   UNL     1      10.499  13.840  17.621  0.00  0.00    +0.000 A 
ATOM     26  C   UNL     1       9.637  13.845  18.716  0.00  0.00    +0.000 A 
ATOM     27  C   UNL     1       9.306  12.645  19.340  0.00  0.00    +0.000 A 
ATOM     28  F   UNL     1       8.483  12.670  20.398  0.00  0.00    +0.000 F 
ENDBRANCH  21  22
ENDBRANCH  18  21
ENDBRANCH  14  15
ENDBRANCH   3  14
BRANCH   6  29
ATOM     29  C   UNL     1       2.838   4.086  17.415  0.00  0.00    +0.000 C 
BRANCH  29  30
ATOM     30  C   UNL     1       2.562   2.948  18.397  0.00  0.00    +0.000 C 
BRANCH  30  31
ATOM     31  C   UNL     1       1.243   3.101  19.177  0.00  0.00    +0.000 C 
ATOM     32  F   UNL     1       0.314   2.188  18.841  0.00  0.00    +0.000 F 
ATOM     33  F   UNL     1       1.458   2.976  20.509  0.00  0.00    +0.000 F 
ATOM     34  F   UNL     1       0.705   4.325  18.968  0.00  0.00    +0.000 F 
ENDBRANCH  30  31
BRANCH  30  35
ATOM     35  O   UNL     1       2.616   1.716  17.632  0.00  0.00    +0.000 OA
ATOM     36  H   UNL     1       1.830   1.180  17.869  0.00  0.00    +0.000 HD
ENDBRANCH  30  35
ENDBRANCH  29  30
ENDBRANCH   6  29
TORSDOF 9
ENDMDL
MODEL 8
REMARK VINA RESULT:      -8.5      4.105      6.675
REMARK  Name = 
REMARK  9 active torsions:
REMARK  status: ('A' for Active; 'I' for Inactive)
REMARK    1  A    between atoms: N_3  and  C_4
REMARK    2  A    between atoms: C_4  and  C_5
REMARK    3  A    between atoms: C_8  and  C_9
REMARK    4  A    between atoms: C_9  and  C_10
REMARK    5  A    between atoms: C_19  and  C_20
REMARK    6  A    between atoms: N_27  and  C_28
REMARK    7  A    between atoms: C_28  and  C_29
REMARK    8  A    between atoms: C_29  and  O_30
REMARK    9  A    between atoms: C_29  and  C_31
REMARK                            x       y       z     vdW  Elec       q    Type
REMARK                         _______ _______ _______ _____ _____    ______ ____
ROOT
ATOM      1  O   UNL     1       5.692   4.060  19.529  0.00  0.00    +0.000 OA
ATOM      2  C   UNL     1       5.140   5.082  19.159  0.00  0.00    +0.000 A 
ATOM      3  N   UNL     1       5.639   6.047  18.294  0.00  0.00    +0.000 N 
ATOM      4  N   UNL     1       4.732   7.060  18.131  0.00  0.00    +0.000 NA
ATOM      5  C   UNL     1       3.715   6.715  18.874  0.00  0.00    +0.000 A 
ATOM      6  N   UNL     1       3.879   5.524  19.518  0.00  0.00    +0.000 N 
ENDROOT
BRANCH   5   7
ATOM      7  C   UNL     1       2.527   7.590  18.969  0.00  0.00    +0.000 A 
ATOM      8  C   UNL     1       2.177   8.335  17.830  0.00  0.00    +0.000 A 
ATOM      9  C   UNL     1       1.199   9.330  17.902  0.00  0.00    +0.000 A 
ATOM     10  C   UNL     1       0.562   9.581  19.114  0.00  0.00    +0.000 A 
ATOM     11 CL   UNL     1      -0.574  10.866  19.235  0.00  0.00    +0.000 Cl
ATOM     12  C   UNL     1       0.873   8.823  20.242  0.00  0.00    +0.000 A 
ATOM     13  C   UNL     1       1.861   7.832  20.174  0.00  0.00    +0.000 A 
ENDBRANCH   5   7
BRANCH   3  14
ATOM     14  C   UNL     1       6.889   5.976  17.574  0.00  0.00    +0.000 C 
BRANCH  14  15
ATOM     15  C   UNL     1       6.766   5.175  16.330  0.00  0.00    +0.000 A 
ATOM     16  N   UNL     1       6.202   3.986  16.214  0.00  0.00    +0.000 NA
ATOM     17  N   UNL     1       6.238   3.623  14.892  0.00  0.00    +0.000 NA
ATOM     18  C   UNL     1       6.823   4.589  14.217  0.00  0.00    +0.000 A 
ATOM     19  N   UNL     1       7.174   5.587  15.088  0.00  0.00    +0.000 N 
ATOM     20  H   UNL     1       7.634   6.462  14.873  0.00  0.00    +0.000 HD
BRANCH  18  21
ATOM     21  C   UNL     1       7.033   4.656  12.748  0.00  0.00    +0.000 C 
BRANCH  21  22
ATOM     22  C   UNL     1       6.647   3.392  12.025  0.00  0.00    +0.000 A 
ATOM     23  C   UNL     1       7.623   2.507  11.543  0.00  0.00    +0.000 A 
ATOM     24  C   UNL     1       7.250   1.323  10.901  0.00  0.00    +0.000 A 
ATOM     25  C   UNL     1       5.900   1.014  10.725  0.00  0.00    +0.000 A 
ATOM     26  C   UNL     1       4.924   1.898  11.180  0.00  0.00    +0.000 A 
ATOM     27  C   UNL     1       5.302   3.077  11.817  0.00  0.00    +0.000 A 
ATOM     28  F   UNL     1       4.349   3.920  12.241  0.00  0.00    +0.000 F 
ENDBRANCH  21  22
ENDBRANCH  18  21
ENDBRANCH  14  15
ENDBRANCH   3  14
BRANCH   6  29
ATOM     29  C   UNL     1       3.045   4.736  20.413  0.00  0.00    +0.000 C 
BRANCH  29  30
ATOM     30  C   UNL     1       2.440   3.460  19.829  0.00  0.00    +0.000 C 
BRANCH  30  31
ATOM     31  C   UNL     1       0.958   3.248  20.190  0.00  0.00    +0.000 C 
ATOM     32  F   UNL     1       0.281   2.536  19.272  0.00  0.00    +0.000 F 
ATOM     33  F   UNL     1       0.844   2.588  21.369  0.00  0.00    +0.000 F 
ATOM     34  F   UNL     1       0.328   4.437  20.330  0.00  0.00    +0.000 F 
ENDBRANCH  30  31
BRANCH  30  35
ATOM     35  O   UNL     1       2.661   3.513  18.395  0.00  0.00    +0.000 OA
ATOM     36  H   UNL     1       3.599   3.280  18.227  0.00  0.00    +0.000 HD
ENDBRANCH  30  35
ENDBRANCH  29  30
ENDBRANCH   6  29
TORSDOF 9
ENDMDL
MODEL 9
REMARK VINA RESULT:      -8.3      1.071      1.208
REMARK  Name = 
REMARK  9 active torsions:
REMARK  status: ('A' for Active; 'I' for Inactive)
REMARK    1  A    between atoms: N_3  and  C_4
REMARK    2  A    between atoms: C_4  and  C_5
REMARK    3  A    between atoms: C_8  and  C_9
REMARK    4  A    between atoms: C_9  and  C_10
REMARK    5  A    between atoms: C_19  and  C_20
REMARK    6  A    between atoms: N_27  and  C_28
REMARK    7  A    between atoms: C_28  and  C_29
REMARK    8  A    between atoms: C_29  and  O_30
REMARK    9  A    between atoms: C_29  and  C_31
REMARK                            x       y       z     vdW  Elec       q    Type
REMARK                         _______ _______ _______ _____ _____    ______ ____
ROOT
ATOM      1  O   UNL     1       4.794   3.584  16.721  0.00  0.00    +0.000 OA
ATOM      2  C   UNL     1       4.521   4.671  17.202  0.00  0.00    +0.000 A 
ATOM      3  N   UNL     1       5.383   5.736  17.426  0.00  0.00    +0.000 N 
ATOM      4  N   UNL     1       4.711   6.784  17.997  0.00  0.00    +0.000 NA
ATOM      5  C   UNL     1       3.481   6.363  18.113  0.00  0.00    +0.000 A 
ATOM      6  N   UNL     1       3.282   5.099  17.642  0.00  0.00    +0.000 N 
ENDROOT
BRANCH   5   7
ATOM      7  C   UNL     1       2.447   7.230  18.719  0.00  0.00    +0.000 A 
ATOM      8  C   UNL     1       1.850   8.200  17.895  0.00  0.00    +0.000 A 
ATOM      9  C   UNL     1       1.021   9.183  18.440  0.00  0.00    +0.000 A 
ATOM     10  C   UNL     1       0.781   9.199  19.811  0.00  0.00    +0.000 A 
ATOM     11 CL   UNL     1      -0.162  10.460  20.502  0.00  0.00    +0.000 Cl
ATOM     12  C   UNL     1       1.337   8.220  20.633  0.00  0.00    +0.000 A 
ATOM     13  C   UNL     1       2.178   7.239  20.090  0.00  0.00    +0.000 A 
ENDBRANCH   5   7
BRANCH   3  14
ATOM     14  C   UNL     1       6.771   5.802  17.032  0.00  0.00    +0.000 C 
BRANCH  14  15
ATOM     15  C   UNL     1       7.463   6.968  17.639  0.00  0.00    +0.000 A 
ATOM     16  N   UNL     1       8.253   6.949  18.698  0.00  0.00    +0.000 NA
ATOM     17  N   UNL     1       8.739   8.216  18.891  0.00  0.00    +0.000 NA
ATOM     18  C   UNL     1       8.241   8.995  17.954  0.00  0.00    +0.000 A 
ATOM     19  N   UNL     1       7.427   8.246  17.144  0.00  0.00    +0.000 N 
ATOM     20  H   UNL     1       6.906   8.556  16.335  0.00  0.00    +0.000 HD
BRANCH  18  21
ATOM     21  C   UNL     1       8.532  10.435  17.736  0.00  0.00    +0.000 C 
BRANCH  21  22
ATOM     22  C   UNL     1       9.524  11.005  18.716  0.00  0.00    +0.000 A 
ATOM     23  C   UNL     1       9.189  11.175  20.069  0.00  0.00    +0.000 A 
ATOM     24  C   UNL     1      10.129  11.676  20.973  0.00  0.00    +0.000 A 
ATOM     25  C   UNL     1      11.409  12.022  20.536  0.00  0.00    +0.000 A 
ATOM     26  C   UNL     1      11.744  11.878  19.191  0.00  0.00    +0.000 A 
ATOM     27  C   UNL     1      10.802  11.379  18.295  0.00  0.00    +0.000 A 
ATOM     28  F   UNL     1      11.138  11.256  17.003  0.00  0.00    +0.000 F 
ENDBRANCH  21  22
ENDBRANCH  18  21
ENDBRANCH  14  15
ENDBRANCH   3  14
BRANCH   6  29
ATOM     29  C   UNL     1       2.119   4.231  17.539  0.00  0.00    +0.000 C 
BRANCH  29  30
ATOM     30  C   UNL     1       1.728   3.467  18.804  0.00  0.00    +0.000 C 
BRANCH  30  31
ATOM     31  C   UNL     1       2.929   2.939  19.610  0.00  0.00    +0.000 C 
ATOM     32  F   UNL     1       3.749   3.911  20.048  0.00  0.00    +0.000 F 
ATOM     33  F   UNL     1       2.508   2.253  20.701  0.00  0.00    +0.000 F 
ATOM     34  F   UNL     1       3.670   2.089  18.861  0.00  0.00    +0.000 F 
ENDBRANCH  30  31
BRANCH  30  35
ATOM     35  O   UNL     1       0.884   4.355  19.582  0.00  0.00    +0.000 OA
ATOM     36  H   UNL     1       0.403   3.811  20.241  0.00  0.00    +0.000 HD
ENDBRANCH  30  35
ENDBRANCH  29  30
ENDBRANCH   6  29
TORSDOF 9
ENDMDL
