MODEL 1
REMARK VINA RESULT:      -7.7      0.000      0.000
REMARK  Name = 
REMARK  3 active torsions:
REMARK  status: ('A' for Active; 'I' for Inactive)
REMARK    1  A    between atoms: C_1  and  C_2
REMARK    2  A    between atoms: C_2  and  C_3
REMARK    3  A    between atoms: C_21  and  C_22
REMARK                            x       y       z     vdW  Elec       q    Type
REMARK                         _______ _______ _______ _____ _____    ______ ____
ROOT
ATOM      1  C   UNL     1       1.756  16.362  20.194  0.00  0.00    +0.000 C 
ATOM      2  C   UNL     1       1.292  14.934  20.561  0.00  0.00    +0.000 C 
ATOM      3  C   UNL     1       1.346  14.813  22.101  0.00  0.00    +0.000 C 
ATOM      4  C   UNL     1       2.294  13.924  19.969  0.00  0.00    +0.000 C 
ATOM      5  C   UNL     1       1.787  13.029  18.869  0.00  0.00    +0.000 C 
ATOM      6  O   UNL     1       2.566  12.562  18.038  0.00  0.00    +0.000 OA
ATOM      7  C   UNL     1       0.357  12.653  18.849  0.00  0.00    +0.000 C 
ATOM      8  C   UNL     1      -0.551  13.480  19.391  0.00  0.00    +0.000 C 
ATOM      9  C   UNL     1      -0.178  14.765  20.086  0.00  0.00    +0.000 C 
ATOM     10  N   UNL     1      -1.906  13.211  19.289  0.00  0.00    +0.000 N 
ATOM     11  C   UNL     1      -2.444  12.064  18.656  0.00  0.00    +0.000 A 
ATOM     12  C   UNL     1      -1.544  11.123  18.111  0.00  0.00    +0.000 A 
ATOM     13  C   UNL     1      -2.033   9.919  17.579  0.00  0.00    +0.000 A 
ATOM     14  C   UNL     1      -3.384   9.610  17.650  0.00  0.00    +0.000 A 
ATOM     15  C   UNL     1      -4.295  10.519  18.191  0.00  0.00    +0.000 A 
ATOM     16  C   UNL     1      -5.652  10.171  18.250  0.00  0.00    +0.000 A 
ATOM     17  C   UNL     1      -6.598  11.059  18.754  0.00  0.00    +0.000 A 
ATOM     18  C   UNL     1      -6.191  12.308  19.201  0.00  0.00    +0.000 A 
ATOM     19  C   UNL     1      -4.837  12.660  19.171  0.00  0.00    +0.000 A 
ATOM     20  C   UNL     1      -3.845  11.777  18.678  0.00  0.00    +0.000 A 
ATOM     21  C   UNL     1      -0.033  11.390  18.117  0.00  0.00    +0.000 C 
ATOM     22  H   UNL     1      -2.544  13.967  19.499  0.00  0.00    +0.000 HD
ENDROOT
BRANCH  21  23
ATOM     23  C   UNL     1       0.722  10.168  18.652  0.00  0.00    +0.000 A 
ATOM     24  C   UNL     1       1.504   9.392  17.781  0.00  0.00    +0.000 A 
ATOM     25  C   UNL     1       2.116   8.223  18.231  0.00  0.00    +0.000 A 
ATOM     26  C   UNL     1       1.949   7.824  19.555  0.00  0.00    +0.000 A 
ATOM     27 CL   UNL     1       2.661   6.354  20.097  0.00  0.00    +0.000 Cl
ATOM     28  C   UNL     1       1.199   8.597  20.440  0.00  0.00    +0.000 A 
ATOM     29  C   UNL     1       0.595   9.771  19.994  0.00  0.00    +0.000 A 
ENDBRANCH  21  23
TORSDOF 1
ENDMDL
MODEL 2
REMARK VINA RESULT:      -6.8      6.418     10.624
REMARK  Name = 
REMARK  3 active torsions:
REMARK  status: ('A' for Active; 'I' for Inactive)
REMARK    1  A    between atoms: C_1  and  C_2
REMARK    2  A    between atoms: C_2  and  C_3
REMARK    3  A    between atoms: C_21  and  C_22
REMARK                            x       y       z     vdW  Elec       q    Type
REMARK                         _______ _______ _______ _____ _____    ______ ____
ROOT
ATOM      1  C   UNL     1       3.093  16.423  17.245  0.00  0.00    +0.000 C 
ATOM      2  C   UNL     1       3.648  15.409  18.270  0.00  0.00    +0.000 C 
ATOM      3  C   UNL     1       2.729  14.166  18.234  0.00  0.00    +0.000 C 
ATOM      4  C   UNL     1       3.550  16.030  19.678  0.00  0.00    +0.000 C 
ATOM      5  C   UNL     1       4.849  16.347  20.371  0.00  0.00    +0.000 C 
ATOM      6  O   UNL     1       4.899  17.236  21.223  0.00  0.00    +0.000 OA
ATOM      7  C   UNL     1       6.042  15.525  20.076  0.00  0.00    +0.000 C 
ATOM      8  C   UNL     1       6.153  14.928  18.879  0.00  0.00    +0.000 C 
ATOM      9  C   UNL     1       5.078  15.001  17.823  0.00  0.00    +0.000 C 
ATOM     10  N   UNL     1       7.307  14.246  18.530  0.00  0.00    +0.000 N 
ATOM     11  C   UNL     1       8.426  14.089  19.384  0.00  0.00    +0.000 A 
ATOM     12  C   UNL     1       8.358  14.645  20.679  0.00  0.00    +0.000 A 
ATOM     13  C   UNL     1       9.398  14.412  21.593  0.00  0.00    +0.000 A 
ATOM     14  C   UNL     1      10.458  13.579  21.263  0.00  0.00    +0.000 A 
ATOM     15  C   UNL     1      10.547  13.011  19.991  0.00  0.00    +0.000 A 
ATOM     16  C   UNL     1      11.631  12.171  19.695  0.00  0.00    +0.000 A 
ATOM     17  C   UNL     1      11.774  11.606  18.431  0.00  0.00    +0.000 A 
ATOM     18  C   UNL     1      10.832  11.881  17.450  0.00  0.00    +0.000 A 
ATOM     19  C   UNL     1       9.733  12.697  17.738  0.00  0.00    +0.000 A 
ATOM     20  C   UNL     1       9.546  13.278  19.017  0.00  0.00    +0.000 A 
ATOM     21  C   UNL     1       7.144  15.482  21.108  0.00  0.00    +0.000 C 
ATOM     22  H   UNL     1       7.434  14.022  17.552  0.00  0.00    +0.000 HD
ENDROOT
BRANCH  21  23
ATOM     23  C   UNL     1       6.627  15.007  22.471  0.00  0.00    +0.000 A 
ATOM     24  C   UNL     1       6.808  15.814  23.607  0.00  0.00    +0.000 A 
ATOM     25  C   UNL     1       6.432  15.353  24.868  0.00  0.00    +0.000 A 
ATOM     26  C   UNL     1       5.872  14.085  25.000  0.00  0.00    +0.000 A 
ATOM     27 CL   UNL     1       5.456  13.497  26.563  0.00  0.00    +0.000 Cl
ATOM     28  C   UNL     1       5.659  13.284  23.880  0.00  0.00    +0.000 A 
ATOM     29  C   UNL     1       6.026  13.746  22.617  0.00  0.00    +0.000 A 
ENDBRANCH  21  23
TORSDOF 1
ENDMDL
MODEL 3
REMARK VINA RESULT:      -6.8      3.564      5.710
REMARK  Name = 
REMARK  3 active torsions:
REMARK  status: ('A' for Active; 'I' for Inactive)
REMARK    1  A    between atoms: C_1  and  C_2
REMARK    2  A    between atoms: C_2  and  C_3
REMARK    3  A    between atoms: C_21  and  C_22
REMARK                            x       y       z     vdW  Elec       q    Type
REMARK                         _______ _______ _______ _____ _____    ______ ____
ROOT
ATOM      1  C   UNL     1       1.358  10.116  19.074  0.00  0.00    +0.000 C 
ATOM      2  C   UNL     1       0.648  11.456  19.369  0.00  0.00    +0.000 C 
ATOM      3  C   UNL     1       1.392  12.557  18.579  0.00  0.00    +0.000 C 
ATOM      4  C   UNL     1       0.793  11.769  20.871  0.00  0.00    +0.000 C 
ATOM      5  C   UNL     1      -0.468  11.748  21.694  0.00  0.00    +0.000 C 
ATOM      6  O   UNL     1      -0.419  11.508  22.901  0.00  0.00    +0.000 OA
ATOM      7  C   UNL     1      -1.752  12.098  21.052  0.00  0.00    +0.000 C 
ATOM      8  C   UNL     1      -1.914  11.884  19.737  0.00  0.00    +0.000 C 
ATOM      9  C   UNL     1      -0.813  11.355  18.851  0.00  0.00    +0.000 C 
ATOM     10  N   UNL     1      -3.140  12.095  19.128  0.00  0.00    +0.000 N 
ATOM     11  C   UNL     1      -4.290  12.572  19.802  0.00  0.00    +0.000 A 
ATOM     12  C   UNL     1      -4.180  12.869  21.177  0.00  0.00    +0.000 A 
ATOM     13  C   UNL     1      -5.264  13.452  21.853  0.00  0.00    +0.000 A 
ATOM     14  C   UNL     1      -6.418  13.808  21.169  0.00  0.00    +0.000 A 
ATOM     15  C   UNL     1      -6.551  13.531  19.807  0.00  0.00    +0.000 A 
ATOM     16  C   UNL     1      -7.730  13.909  19.147  0.00  0.00    +0.000 A 
ATOM     17  C   UNL     1      -7.917  13.626  17.798  0.00  0.00    +0.000 A 
ATOM     18  C   UNL     1      -6.923  12.959  17.096  0.00  0.00    +0.000 A 
ATOM     19  C   UNL     1      -5.731  12.598  17.734  0.00  0.00    +0.000 A 
ATOM     20  C   UNL     1      -5.500  12.881  19.103  0.00  0.00    +0.000 A 
ATOM     21  C   UNL     1      -2.876  12.587  21.936  0.00  0.00    +0.000 C 
ATOM     22  H   UNL     1      -3.272  11.702  18.206  0.00  0.00    +0.000 HD
ENDROOT
BRANCH  21  23
ATOM     23  C   UNL     1      -2.460  13.815  22.755  0.00  0.00    +0.000 A 
ATOM     24  C   UNL     1      -1.847  14.905  22.117  0.00  0.00    +0.000 A 
ATOM     25  C   UNL     1      -1.374  15.985  22.861  0.00  0.00    +0.000 A 
ATOM     26  C   UNL     1      -1.514  15.981  24.247  0.00  0.00    +0.000 A 
ATOM     27 CL   UNL     1      -0.884  17.290  25.170  0.00  0.00    +0.000 Cl
ATOM     28  C   UNL     1      -2.145  14.920  24.893  0.00  0.00    +0.000 A 
ATOM     29  C   UNL     1      -2.626  13.843  24.150  0.00  0.00    +0.000 A 
ENDBRANCH  21  23
TORSDOF 1
ENDMDL
MODEL 4
REMARK VINA RESULT:      -6.7      7.007     11.337
REMARK  Name = 
REMARK  3 active torsions:
REMARK  status: ('A' for Active; 'I' for Inactive)
REMARK    1  A    between atoms: C_1  and  C_2
REMARK    2  A    between atoms: C_2  and  C_3
REMARK    3  A    between atoms: C_21  and  C_22
REMARK                            x       y       z     vdW  Elec       q    Type
REMARK                         _______ _______ _______ _____ _____    ______ ____
ROOT
ATOM      1  C   UNL     1       3.118  16.304  17.113  0.00  0.00    +0.000 C 
ATOM      2  C   UNL     1       3.841  15.721  18.347  0.00  0.00    +0.000 C 
ATOM      3  C   UNL     1       2.915  14.644  18.959  0.00  0.00    +0.000 C 
ATOM      4  C   UNL     1       4.018  16.843  19.389  0.00  0.00    +0.000 C 
ATOM      5  C   UNL     1       5.428  17.289  19.673  0.00  0.00    +0.000 C 
ATOM      6  O   UNL     1       5.649  18.429  20.083  0.00  0.00    +0.000 OA
ATOM      7  C   UNL     1       6.533  16.317  19.533  0.00  0.00    +0.000 C 
ATOM      8  C   UNL     1       6.410  15.297  18.669  0.00  0.00    +0.000 C 
ATOM      9  C   UNL     1       5.157  15.049  17.866  0.00  0.00    +0.000 C 
ATOM     10  N   UNL     1       7.468  14.435  18.432  0.00  0.00    +0.000 N 
ATOM     11  C   UNL     1       8.725  14.523  19.078  0.00  0.00    +0.000 A 
ATOM     12  C   UNL     1       8.909  15.541  20.039  0.00  0.00    +0.000 A 
ATOM     13  C   UNL     1      10.098  15.589  20.783  0.00  0.00    +0.000 A 
ATOM     14  C   UNL     1      11.066  14.605  20.637  0.00  0.00    +0.000 A 
ATOM     15  C   UNL     1      10.907  13.584  19.699  0.00  0.00    +0.000 A 
ATOM     16  C   UNL     1      11.904  12.604  19.583  0.00  0.00    +0.000 A 
ATOM     17  C   UNL     1      11.800  11.586  18.640  0.00  0.00    +0.000 A 
ATOM     18  C   UNL     1      10.695  11.541  17.803  0.00  0.00    +0.000 A 
ATOM     19  C   UNL     1       9.681  12.497  17.924  0.00  0.00    +0.000 A 
ATOM     20  C   UNL     1       9.745  13.540  18.881  0.00  0.00    +0.000 A 
ATOM     21  C   UNL     1       7.809  16.580  20.298  0.00  0.00    +0.000 C 
ATOM     22  H   UNL     1       7.406  13.841  17.616  0.00  0.00    +0.000 HD
ENDROOT
BRANCH  21  23
ATOM     23  C   UNL     1       7.549  16.715  21.803  0.00  0.00    +0.000 A 
ATOM     24  C   UNL     1       6.872  15.695  22.491  0.00  0.00    +0.000 A 
ATOM     25  C   UNL     1       6.542  15.848  23.837  0.00  0.00    +0.000 A 
ATOM     26  C   UNL     1       6.889  17.021  24.503  0.00  0.00    +0.000 A 
ATOM     27 CL   UNL     1       6.436  17.231  26.149  0.00  0.00    +0.000 Cl
ATOM     28  C   UNL     1       7.587  18.031  23.843  0.00  0.00    +0.000 A 
ATOM     29  C   UNL     1       7.925  17.876  22.499  0.00  0.00    +0.000 A 
ENDBRANCH  21  23
TORSDOF 1
ENDMDL
MODEL 5
REMARK VINA RESULT:      -6.6      2.903      6.300
REMARK  Name = 
REMARK  3 active torsions:
REMARK  status: ('A' for Active; 'I' for Inactive)
REMARK    1  A    between atoms: C_1  and  C_2
REMARK    2  A    between atoms: C_2  and  C_3
REMARK    3  A    between atoms: C_21  and  C_22
REMARK                            x       y       z     vdW  Elec       q    Type
REMARK                         _______ _______ _______ _____ _____    ______ ____
ROOT
ATOM      1  C   UNL     1      -7.068  14.384  21.935  0.00  0.00    +0.000 C 
ATOM      2  C   UNL     1      -5.902  13.719  21.170  0.00  0.00    +0.000 C 
ATOM      3  C   UNL     1      -6.503  13.013  19.933  0.00  0.00    +0.000 C 
ATOM      4  C   UNL     1      -5.273  12.640  22.073  0.00  0.00    +0.000 C 
ATOM      5  C   UNL     1      -3.866  12.890  22.550  0.00  0.00    +0.000 C 
ATOM      6  O   UNL     1      -3.466  12.384  23.599  0.00  0.00    +0.000 OA
ATOM      7  C   UNL     1      -2.949  13.681  21.703  0.00  0.00    +0.000 C 
ATOM      8  C   UNL     1      -3.451  14.604  20.868  0.00  0.00    +0.000 C 
ATOM      9  C   UNL     1      -4.931  14.837  20.698  0.00  0.00    +0.000 C 
ATOM     10  N   UNL     1      -2.614  15.438  20.145  0.00  0.00    +0.000 N 
ATOM     11  C   UNL     1      -1.200  15.378  20.189  0.00  0.00    +0.000 A 
ATOM     12  C   UNL     1      -0.602  14.395  21.007  0.00  0.00    +0.000 A 
ATOM     13  C   UNL     1       0.792  14.229  20.989  0.00  0.00    +0.000 A 
ATOM     14  C   UNL     1       1.584  14.969  20.122  0.00  0.00    +0.000 A 
ATOM     15  C   UNL     1       1.017  15.943  19.298  0.00  0.00    +0.000 A 
ATOM     16  C   UNL     1       1.848  16.669  18.431  0.00  0.00    +0.000 A 
ATOM     17  C   UNL     1       1.329  17.669  17.614  0.00  0.00    +0.000 A 
ATOM     18  C   UNL     1      -0.028  17.953  17.660  0.00  0.00    +0.000 A 
ATOM     19  C   UNL     1      -0.872  17.220  18.501  0.00  0.00    +0.000 A 
ATOM     20  C   UNL     1      -0.383  16.186  19.337  0.00  0.00    +0.000 A 
ATOM     21  C   UNL     1      -1.463  13.487  21.896  0.00  0.00    +0.000 C 
ATOM     22  H   UNL     1      -3.031  16.256  19.721  0.00  0.00    +0.000 HD
ENDROOT
BRANCH  21  23
ATOM     23  C   UNL     1      -1.053  12.021  21.714  0.00  0.00    +0.000 A 
ATOM     24  C   UNL     1      -0.634  11.269  22.823  0.00  0.00    +0.000 A 
ATOM     25  C   UNL     1      -0.165   9.967  22.658  0.00  0.00    +0.000 A 
ATOM     26  C   UNL     1      -0.115   9.409  21.383  0.00  0.00    +0.000 A 
ATOM     27 CL   UNL     1       0.513   7.820  21.173  0.00  0.00    +0.000 Cl
ATOM     28  C   UNL     1      -0.554  10.131  20.275  0.00  0.00    +0.000 A 
ATOM     29  C   UNL     1      -1.032  11.430  20.439  0.00  0.00    +0.000 A 
ENDBRANCH  21  23
TORSDOF 1
ENDMDL
MODEL 6
REMARK VINA RESULT:      -6.6      3.349      5.605
REMARK  Name = 
REMARK  3 active torsions:
REMARK  status: ('A' for Active; 'I' for Inactive)
REMARK    1  A    between atoms: C_1  and  C_2
REMARK    2  A    between atoms: C_2  and  C_3
REMARK    3  A    between atoms: C_21  and  C_22
REMARK                            x       y       z     vdW  Elec       q    Type
REMARK                         _______ _______ _______ _____ _____    ______ ____
ROOT
ATOM      1  C   UNL     1       1.440   9.339  18.920  0.00  0.00    +0.000 C 
ATOM      2  C   UNL     1       0.843  10.749  19.134  0.00  0.00    +0.000 C 
ATOM      3  C   UNL     1       1.625  11.724  18.225  0.00  0.00    +0.000 C 
ATOM      4  C   UNL     1       1.084  11.167  20.598  0.00  0.00    +0.000 C 
ATOM      5  C   UNL     1      -0.133  11.306  21.474  0.00  0.00    +0.000 C 
ATOM      6  O   UNL     1      -0.042  11.159  22.693  0.00  0.00    +0.000 OA
ATOM      7  C   UNL     1      -1.419  11.702  20.861  0.00  0.00    +0.000 C 
ATOM      8  C   UNL     1      -1.660  11.398  19.576  0.00  0.00    +0.000 C 
ATOM      9  C   UNL     1      -0.645  10.718  18.690  0.00  0.00    +0.000 C 
ATOM     10  N   UNL     1      -2.896  11.653  19.005  0.00  0.00    +0.000 N 
ATOM     11  C   UNL     1      -3.974  12.267  19.687  0.00  0.00    +0.000 A 
ATOM     12  C   UNL     1      -3.775  12.662  21.027  0.00  0.00    +0.000 A 
ATOM     13  C   UNL     1      -4.780  13.377  21.699  0.00  0.00    +0.000 A 
ATOM     14  C   UNL     1      -5.937  13.765  21.039  0.00  0.00    +0.000 A 
ATOM     15  C   UNL     1      -6.156  13.392  19.711  0.00  0.00    +0.000 A 
ATOM     16  C   UNL     1      -7.337  13.805  19.074  0.00  0.00    +0.000 A 
ATOM     17  C   UNL     1      -7.609  13.432  17.762  0.00  0.00    +0.000 A 
ATOM     18  C   UNL     1      -6.702  12.638  17.075  0.00  0.00    +0.000 A 
ATOM     19  C   UNL     1      -5.510  12.240  17.689  0.00  0.00    +0.000 A 
ATOM     20  C   UNL     1      -5.191  12.611  19.018  0.00  0.00    +0.000 A 
ATOM     21  C   UNL     1      -2.459  12.342  21.750  0.00  0.00    +0.000 C 
ATOM     22  H   UNL     1      -3.101  11.199  18.125  0.00  0.00    +0.000 HD
ENDROOT
BRANCH  21  23
ATOM     23  C   UNL     1      -1.916  13.596  22.446  0.00  0.00    +0.000 A 
ATOM     24  C   UNL     1      -1.991  13.707  23.844  0.00  0.00    +0.000 A 
ATOM     25  C   UNL     1      -1.592  14.881  24.482  0.00  0.00    +0.000 A 
ATOM     26  C   UNL     1      -1.115  15.949  23.726  0.00  0.00    +0.000 A 
ATOM     27 CL   UNL     1      -0.672  17.416  24.509  0.00  0.00    +0.000 Cl
ATOM     28  C   UNL     1      -1.008  15.845  22.340  0.00  0.00    +0.000 A 
ATOM     29  C   UNL     1      -1.397  14.669  21.701  0.00  0.00    +0.000 A 
ENDBRANCH  21  23
TORSDOF 1
ENDMDL
MODEL 7
REMARK VINA RESULT:      -6.5      6.412     10.722
REMARK  Name = 
REMARK  3 active torsions:
REMARK  status: ('A' for Active; 'I' for Inactive)
REMARK    1  A    between atoms: C_1  and  C_2
REMARK    2  A    between atoms: C_2  and  C_3
REMARK    3  A    between atoms: C_21  and  C_22
REMARK                            x       y       z     vdW  Elec       q    Type
REMARK                         _______ _______ _______ _____ _____    ______ ____
ROOT
ATOM      1  C   UNL     1       2.997  16.606  17.046  0.00  0.00    +0.000 C 
ATOM      2  C   UNL     1       3.533  15.751  18.217  0.00  0.00    +0.000 C 
ATOM      3  C   UNL     1       2.540  14.585  18.428  0.00  0.00    +0.000 C 
ATOM      4  C   UNL     1       3.532  16.613  19.495  0.00  0.00    +0.000 C 
ATOM      5  C   UNL     1       4.875  16.959  20.081  0.00  0.00    +0.000 C 
ATOM      6  O   UNL     1       5.014  17.977  20.760  0.00  0.00    +0.000 OA
ATOM      7  C   UNL     1       6.003  16.021  19.899  0.00  0.00    +0.000 C 
ATOM      8  C   UNL     1       6.028  15.218  18.823  0.00  0.00    +0.000 C 
ATOM      9  C   UNL     1       4.916  15.177  17.805  0.00  0.00    +0.000 C 
ATOM     10  N   UNL     1       7.123  14.410  18.565  0.00  0.00    +0.000 N 
ATOM     11  C   UNL     1       8.266  14.330  19.398  0.00  0.00    +0.000 A 
ATOM     12  C   UNL     1       8.285  15.107  20.576  0.00  0.00    +0.000 A 
ATOM     13  C   UNL     1       9.347  14.968  21.484  0.00  0.00    +0.000 A 
ATOM     14  C   UNL     1      10.340  14.022  21.274  0.00  0.00    +0.000 A 
ATOM     15  C   UNL     1      10.341  13.236  20.121  0.00  0.00    +0.000 A 
ATOM     16  C   UNL     1      11.360  12.287  19.944  0.00  0.00    +0.000 A 
ATOM     17  C   UNL     1      11.415  11.503  18.796  0.00  0.00    +0.000 A 
ATOM     18  C   UNL     1      10.451  11.665  17.811  0.00  0.00    +0.000 A 
ATOM     19  C   UNL     1       9.416  12.590  17.984  0.00  0.00    +0.000 A 
ATOM     20  C   UNL     1       9.319  13.395  19.146  0.00  0.00    +0.000 A 
ATOM     21  C   UNL     1       7.143  16.084  20.888  0.00  0.00    +0.000 C 
ATOM     22  H   UNL     1       7.195  14.012  17.638  0.00  0.00    +0.000 HD
ENDROOT
BRANCH  21  23
ATOM     23  C   UNL     1       6.656  15.890  22.329  0.00  0.00    +0.000 A 
ATOM     24  C   UNL     1       5.892  14.759  22.662  0.00  0.00    +0.000 A 
ATOM     25  C   UNL     1       5.359  14.619  23.943  0.00  0.00    +0.000 A 
ATOM     26  C   UNL     1       5.588  15.607  24.897  0.00  0.00    +0.000 A 
ATOM     27 CL   UNL     1       4.887  15.459  26.461  0.00  0.00    +0.000 Cl
ATOM     28  C   UNL     1       6.367  16.722  24.591  0.00  0.00    +0.000 A 
ATOM     29  C   UNL     1       6.909  16.860  23.314  0.00  0.00    +0.000 A 
ENDBRANCH  21  23
TORSDOF 1
ENDMDL
MODEL 8
REMARK VINA RESULT:      -6.5      7.844     10.566
REMARK  Name = 
REMARK  3 active torsions:
REMARK  status: ('A' for Active; 'I' for Inactive)
REMARK    1  A    between atoms: C_1  and  C_2
REMARK    2  A    between atoms: C_2  and  C_3
REMARK    3  A    between atoms: C_21  and  C_22
REMARK                            x       y       z     vdW  Elec       q    Type
REMARK                         _______ _______ _______ _____ _____    ______ ____
ROOT
ATOM      1  C   UNL     1      11.568  11.365  18.610  0.00  0.00    +0.000 C 
ATOM      2  C   UNL     1      10.066  11.645  18.841  0.00  0.00    +0.000 C 
ATOM      3  C   UNL     1       9.273  10.522  18.135  0.00  0.00    +0.000 C 
ATOM      4  C   UNL     1       9.705  12.981  18.162  0.00  0.00    +0.000 C 
ATOM      5  C   UNL     1       9.318  14.120  19.067  0.00  0.00    +0.000 C 
ATOM      6  O   UNL     1       9.480  15.286  18.704  0.00  0.00    +0.000 OA
ATOM      7  C   UNL     1       8.668  13.823  20.361  0.00  0.00    +0.000 C 
ATOM      8  C   UNL     1       8.917  12.654  20.972  0.00  0.00    +0.000 C 
ATOM      9  C   UNL     1       9.791  11.583  20.369  0.00  0.00    +0.000 C 
ATOM     10  N   UNL     1       8.414  12.392  22.236  0.00  0.00    +0.000 N 
ATOM     11  C   UNL     1       7.590  13.284  22.965  0.00  0.00    +0.000 A 
ATOM     12  C   UNL     1       7.243  14.511  22.361  0.00  0.00    +0.000 A 
ATOM     13  C   UNL     1       6.337  15.371  23.002  0.00  0.00    +0.000 A 
ATOM     14  C   UNL     1       5.721  14.996  24.187  0.00  0.00    +0.000 A 
ATOM     15  C   UNL     1       6.041  13.784  24.802  0.00  0.00    +0.000 A 
ATOM     16  C   UNL     1       5.395  13.436  25.998  0.00  0.00    +0.000 A 
ATOM     17  C   UNL     1       5.705  12.252  26.660  0.00  0.00    +0.000 A 
ATOM     18  C   UNL     1       6.669  11.406  26.131  0.00  0.00    +0.000 A 
ATOM     19  C   UNL     1       7.304  11.729  24.926  0.00  0.00    +0.000 A 
ATOM     20  C   UNL     1       7.004  12.918  24.217  0.00  0.00    +0.000 A 
ATOM     21  C   UNL     1       7.826  14.905  20.996  0.00  0.00    +0.000 C 
ATOM     22  H   UNL     1       8.817  11.614  22.741  0.00  0.00    +0.000 HD
ENDROOT
BRANCH  21  23
ATOM     23  C   UNL     1       6.710  15.379  20.058  0.00  0.00    +0.000 A 
ATOM     24  C   UNL     1       6.576  16.746  19.767  0.00  0.00    +0.000 A 
ATOM     25  C   UNL     1       5.508  17.204  18.996  0.00  0.00    +0.000 A 
ATOM     26  C   UNL     1       4.570  16.296  18.511  0.00  0.00    +0.000 A 
ATOM     27 CL   UNL     1       3.223  16.866  17.603  0.00  0.00    +0.000 Cl
ATOM     28  C   UNL     1       4.704  14.932  18.766  0.00  0.00    +0.000 A 
ATOM     29  C   UNL     1       5.776  14.472  19.529  0.00  0.00    +0.000 A 
ENDBRANCH  21  23
TORSDOF 1
ENDMDL
MODEL 9
REMARK VINA RESULT:      -6.4      3.259      6.498
REMARK  Name = 
REMARK  3 active torsions:
REMARK  status: ('A' for Active; 'I' for Inactive)
REMARK    1  A    between atoms: C_1  and  C_2
REMARK    2  A    between atoms: C_2  and  C_3
REMARK    3  A    between atoms: C_21  and  C_22
REMARK                            x       y       z     vdW  Elec       q    Type
REMARK                         _______ _______ _______ _____ _____    ______ ____
ROOT
ATOM      1  C   UNL     1      -2.633  14.644  25.644  0.00  0.00    +0.000 C 
ATOM      2  C   UNL     1      -2.546  14.583  24.102  0.00  0.00    +0.000 C 
ATOM      3  C   UNL     1      -3.649  15.510  23.541  0.00  0.00    +0.000 C 
ATOM      4  C   UNL     1      -2.860  13.143  23.650  0.00  0.00    +0.000 C 
ATOM      5  C   UNL     1      -1.731  12.367  23.024  0.00  0.00    +0.000 C 
ATOM      6  O   UNL     1      -1.720  11.137  23.074  0.00  0.00    +0.000 OA
ATOM      7  C   UNL     1      -0.682  13.096  22.280  0.00  0.00    +0.000 C 
ATOM      8  C   UNL     1      -0.401  14.366  22.609  0.00  0.00    +0.000 C 
ATOM      9  C   UNL     1      -1.155  15.125  23.673  0.00  0.00    +0.000 C 
ATOM     10  N   UNL     1       0.651  15.039  22.008  0.00  0.00    +0.000 N 
ATOM     11  C   UNL     1       1.479  14.484  21.003  0.00  0.00    +0.000 A 
ATOM     12  C   UNL     1       1.208  13.169  20.570  0.00  0.00    +0.000 A 
ATOM     13  C   UNL     1       1.933  12.625  19.497  0.00  0.00    +0.000 A 
ATOM     14  C   UNL     1       2.862  13.393  18.808  0.00  0.00    +0.000 A 
ATOM     15  C   UNL     1       3.144  14.699  19.212  0.00  0.00    +0.000 A 
ATOM     16  C   UNL     1       4.087  15.446  18.489  0.00  0.00    +0.000 A 
ATOM     17  C   UNL     1       4.421  16.741  18.874  0.00  0.00    +0.000 A 
ATOM     18  C   UNL     1       3.814  17.299  19.990  0.00  0.00    +0.000 A 
ATOM     19  C   UNL     1       2.854  16.575  20.706  0.00  0.00    +0.000 A 
ATOM     20  C   UNL     1       2.479  15.260  20.336  0.00  0.00    +0.000 A 
ATOM     21  C   UNL     1       0.109  12.334  21.243  0.00  0.00    +0.000 C 
ATOM     22  H   UNL     1       0.965  15.893  22.450  0.00  0.00    +0.000 HD
ENDROOT
BRANCH  21  23
ATOM     23  C   UNL     1      -0.803  11.703  20.185  0.00  0.00    +0.000 A 
ATOM     24  C   UNL     1      -0.555  10.394  19.740  0.00  0.00    +0.000 A 
ATOM     25  C   UNL     1      -1.314   9.842  18.708  0.00  0.00    +0.000 A 
ATOM     26  C   UNL     1      -2.325  10.596  18.117  0.00  0.00    +0.000 A 
ATOM     27 CL   UNL     1      -3.227   9.935  16.809  0.00  0.00    +0.000 Cl
ATOM     28  C   UNL     1      -2.602  11.887  18.566  0.00  0.00    +0.000 A 
ATOM     29  C   UNL     1      -1.850  12.436  19.603  0.00  0.00    +0.000 A 
ENDBRANCH  21  23
TORSDOF 1
ENDMDL
