MODEL 1
REMARK VINA RESULT:      -7.0      0.000      0.000
REMARK  Name = 
REMARK  17 active torsions:
REMARK  status: ('A' for Active; 'I' for Inactive)
REMARK    1  A    between atoms: C_1  and  C_2
REMARK    2  A    between atoms: C_2  and  C_3
REMARK    3  A    between atoms: C_2  and  C_4
REMARK    4  A    between atoms: C_4  and  O_6
REMARK    5  A    between atoms: O_6  and  C_7
REMARK    6  A    between atoms: C_7  and  O_8
REMARK    7  A    between atoms: O_8  and  C_9
REMARK    8  A    between atoms: N_11  and  C_12
REMARK    9  A    between atoms: C_12  and  C_13
REMARK   10  A    between atoms: C_17  and  S_18
REMARK   11  A    between atoms: S_18  and  C_19
REMARK   12  A    between atoms: C_20  and  C_21
REMARK   13  A    between atoms: C_21  and  O_23
REMARK   14  A    between atoms: C_27  and  C_28
REMARK   15  A    between atoms: C_28  and  C_29
REMARK   16  A    between atoms: C_28  and  O_30
REMARK   17  A    between atoms: C_32  and  C_33
REMARK                            x       y       z     vdW  Elec       q    Type
REMARK                         _______ _______ _______ _____ _____    ______ ____
ROOT
ATOM      1  C   UNL     1       1.598   7.454  19.411  0.00  0.00    +0.000 C 
ATOM      2  O   UNL     1       1.997   8.788  19.015  0.00  0.00    +0.000 OA
ATOM      3  C   UNL     1       2.960   8.694  17.967  0.00  0.00    +0.000 C 
ATOM      4  C   UNL     1       2.957   7.269  17.456  0.00  0.00    +0.000 C 
ATOM      5  C   UNL     1       2.486   6.439  18.637  0.00  0.00    +0.000 C 
ENDROOT
BRANCH   1   6
ATOM      6  C   UNL     1       1.562   7.391  20.946  0.00  0.00    +0.000 C 
BRANCH   6   9
ATOM      7  C   UNL     1       0.674   9.235  22.326  0.00  0.00    +0.000 C 
ATOM      8  O   UNL     1       1.769   9.549  22.786  0.00  0.00    +0.000 OA
ATOM      9  N   UNL     1       0.454   8.159  21.515  0.00  0.00    +0.000 N 
ATOM     10  H   UNL     1      -0.443   8.144  21.047  0.00  0.00    +0.000 HD
BRANCH   7  11
ATOM     11  O   UNL     1      -0.478   9.916  22.518  0.00  0.00    +0.000 OA
BRANCH  11  12
ATOM     12  C   UNL     1      -0.610  11.124  21.752  0.00  0.00    +0.000 C 
BRANCH  12  13
ATOM     13  O   UNL     1      -0.449  10.907  20.348  0.00  0.00    +0.000 OA
BRANCH  13  14
ATOM     14  C   UNL     1      -0.763  11.971  19.562  0.00  0.00    +0.000 C 
ATOM     15  O   UNL     1      -0.518  13.138  19.835  0.00  0.00    +0.000 OA
BRANCH  14  17
ATOM     16  C   UNL     1      -1.128  10.079  17.955  0.00  0.00    +0.000 C 
ATOM     17  C   UNL     1      -1.514  11.512  18.320  0.00  0.00    +0.000 C 
ATOM     18  C   UNL     1      -3.024  11.610  18.526  0.00  0.00    +0.000 C 
ENDBRANCH  14  17
ENDBRANCH  13  14
ENDBRANCH  12  13
ENDBRANCH  11  12
ENDBRANCH   7  11
ENDBRANCH   6   9
ENDBRANCH   1   6
BRANCH   5  19
ATOM     19  S   UNL     1       3.854   5.612  19.538  0.00  0.00    +0.000 S 
BRANCH  19  20
ATOM     20  C   UNL     1       5.096   5.142  18.410  0.00  0.00    +0.000 C 
ATOM     21  C   UNL     1       6.445   5.192  18.461  0.00  0.00    +0.000 C 
ATOM     22  N   UNL     1       7.018   4.678  17.309  0.00  0.00    +0.000 N 
ATOM     23  C   UNL     1       7.409   5.488  16.260  0.00  0.00    +0.000 C 
ATOM     24  O   UNL     1       7.794   6.624  16.194  0.00  0.00    +0.000 OA
ATOM     25  C   UNL     1       6.980   4.367  15.295  0.00  0.00    +0.000 C 
ATOM     26  C   UNL     1       5.983   4.014  16.478  0.00  0.00    +0.000 C 
ATOM     27  C   UNL     1       4.690   4.709  16.976  0.00  0.00    +0.000 C 
ATOM     28  C   UNL     1       3.508   3.762  16.835  0.00  0.00    +0.000 C 
BRANCH  21  29
ATOM     29  C   UNL     1       7.421   5.663  19.474  0.00  0.00    +0.000 C 
ATOM     30  O   UNL     1       7.651   5.204  20.574  0.00  0.00    +0.000 OA
BRANCH  29  31
ATOM     31  O   UNL     1       8.087   6.759  19.034  0.00  0.00    +0.000 OA
ATOM     32  H   UNL     1       7.639   7.018  18.206  0.00  0.00    +0.000 HD
ENDBRANCH  29  31
ENDBRANCH  21  29
BRANCH  25  33
ATOM     33  C   UNL     1       6.524   4.660  13.886  0.00  0.00    +0.000 C 
ATOM     34  C   UNL     1       6.120   3.379  13.158  0.00  0.00    +0.000 C 
BRANCH  33  35
ATOM     35  O   UNL     1       7.514   5.374  13.166  0.00  0.00    +0.000 OA
ATOM     36  H   UNL     1       8.342   5.357  13.680  0.00  0.00    +0.000 HD
ENDBRANCH  33  35
ENDBRANCH  25  33
ENDBRANCH  19  20
ENDBRANCH   5  19
TORSDOF 13
ENDMDL
MODEL 2
REMARK VINA RESULT:      -7.0      2.323      9.369
REMARK  Name = 
REMARK  17 active torsions:
REMARK  status: ('A' for Active; 'I' for Inactive)
REMARK    1  A    between atoms: C_1  and  C_2
REMARK    2  A    between atoms: C_2  and  C_3
REMARK    3  A    between atoms: C_2  and  C_4
REMARK    4  A    between atoms: C_4  and  O_6
REMARK    5  A    between atoms: O_6  and  C_7
REMARK    6  A    between atoms: C_7  and  O_8
REMARK    7  A    between atoms: O_8  and  C_9
REMARK    8  A    between atoms: N_11  and  C_12
REMARK    9  A    between atoms: C_12  and  C_13
REMARK   10  A    between atoms: C_17  and  S_18
REMARK   11  A    between atoms: S_18  and  C_19
REMARK   12  A    between atoms: C_20  and  C_21
REMARK   13  A    between atoms: C_21  and  O_23
REMARK   14  A    between atoms: C_27  and  C_28
REMARK   15  A    between atoms: C_28  and  C_29
REMARK   16  A    between atoms: C_28  and  O_30
REMARK   17  A    between atoms: C_32  and  C_33
REMARK                            x       y       z     vdW  Elec       q    Type
REMARK                         _______ _______ _______ _____ _____    ______ ____
ROOT
ATOM      1  C   UNL     1       3.015   4.733  19.335  0.00  0.00    +0.000 C 
ATOM      2  O   UNL     1       3.039   3.511  20.111  0.00  0.00    +0.000 OA
ATOM      3  C   UNL     1       1.889   3.474  20.954  0.00  0.00    +0.000 C 
ATOM      4  C   UNL     1       0.933   4.551  20.489  0.00  0.00    +0.000 C 
ATOM      5  C   UNL     1       1.819   5.593  19.832  0.00  0.00    +0.000 C 
ENDROOT
BRANCH   1   6
ATOM      6  C   UNL     1       4.425   5.344  19.343  0.00  0.00    +0.000 C 
BRANCH   6   9
ATOM      7  C   UNL     1       4.958   4.785  16.997  0.00  0.00    +0.000 C 
ATOM      8  O   UNL     1       4.817   3.575  17.151  0.00  0.00    +0.000 OA
ATOM      9  N   UNL     1       4.888   5.707  18.003  0.00  0.00    +0.000 N 
ATOM     10  H   UNL     1       4.814   6.670  17.703  0.00  0.00    +0.000 HD
BRANCH   7  11
ATOM     11  O   UNL     1       5.172   5.403  15.814  0.00  0.00    +0.000 OA
BRANCH  11  12
ATOM     12  C   UNL     1       5.991   4.677  14.885  0.00  0.00    +0.000 C 
BRANCH  12  13
ATOM     13  O   UNL     1       5.269   4.257  13.724  0.00  0.00    +0.000 OA
BRANCH  13  14
ATOM     14  C   UNL     1       6.034   3.741  12.726  0.00  0.00    +0.000 C 
ATOM     15  O   UNL     1       7.132   4.166  12.395  0.00  0.00    +0.000 OA
BRANCH  14  17
ATOM     16  C   UNL     1       4.173   3.121  11.161  0.00  0.00    +0.000 C 
ATOM     17  C   UNL     1       5.308   2.593  12.038  0.00  0.00    +0.000 C 
ATOM     18  C   UNL     1       6.272   1.760  11.196  0.00  0.00    +0.000 C 
ENDBRANCH  14  17
ENDBRANCH  13  14
ENDBRANCH  12  13
ENDBRANCH  11  12
ENDBRANCH   7  11
ENDBRANCH   6   9
ENDBRANCH   1   6
BRANCH   5  19
ATOM     19  S   UNL     1       2.171   7.035  20.910  0.00  0.00    +0.000 S 
BRANCH  19  20
ATOM     20  C   UNL     1       1.330   8.436  20.304  0.00  0.00    +0.000 C 
ATOM     21  C   UNL     1       1.396   9.109  19.135  0.00  0.00    +0.000 C 
ATOM     22  N   UNL     1       0.506  10.169  19.105  0.00  0.00    +0.000 N 
ATOM     23  C   UNL     1       0.888  11.457  19.428  0.00  0.00    +0.000 C 
ATOM     24  O   UNL     1       1.926  12.056  19.341  0.00  0.00    +0.000 OA
ATOM     25  C   UNL     1      -0.504  11.665  20.053  0.00  0.00    +0.000 C 
ATOM     26  C   UNL     1      -0.412  10.096  20.270  0.00  0.00    +0.000 C 
ATOM     27  C   UNL     1       0.414   9.241  21.264  0.00  0.00    +0.000 C 
ATOM     28  C   UNL     1      -0.522   8.453  22.169  0.00  0.00    +0.000 C 
BRANCH  21  29
ATOM     29  C   UNL     1       2.198   8.948  17.898  0.00  0.00    +0.000 C 
ATOM     30  O   UNL     1       2.857   7.991  17.542  0.00  0.00    +0.000 OA
BRANCH  29  31
ATOM     31  O   UNL     1       2.142  10.066  17.133  0.00  0.00    +0.000 OA
ATOM     32  H   UNL     1       2.989  10.089  16.648  0.00  0.00    +0.000 HD
ENDBRANCH  29  31
ENDBRANCH  21  29
BRANCH  25  33
ATOM     33  C   UNL     1      -0.733  12.645  21.179  0.00  0.00    +0.000 C 
ATOM     34  C   UNL     1      -1.456  13.897  20.684  0.00  0.00    +0.000 C 
BRANCH  33  35
ATOM     35  O   UNL     1       0.483  12.973  21.828  0.00  0.00    +0.000 OA
ATOM     36  H   UNL     1       0.483  13.928  22.020  0.00  0.00    +0.000 HD
ENDBRANCH  33  35
ENDBRANCH  25  33
ENDBRANCH  19  20
ENDBRANCH   5  19
TORSDOF 13
ENDMDL
MODEL 3
REMARK VINA RESULT:      -6.9      2.123      9.019
REMARK  Name = 
REMARK  17 active torsions:
REMARK  status: ('A' for Active; 'I' for Inactive)
REMARK    1  A    between atoms: C_1  and  C_2
REMARK    2  A    between atoms: C_2  and  C_3
REMARK    3  A    between atoms: C_2  and  C_4
REMARK    4  A    between atoms: C_4  and  O_6
REMARK    5  A    between atoms: O_6  and  C_7
REMARK    6  A    between atoms: C_7  and  O_8
REMARK    7  A    between atoms: O_8  and  C_9
REMARK    8  A    between atoms: N_11  and  C_12
REMARK    9  A    between atoms: C_12  and  C_13
REMARK   10  A    between atoms: C_17  and  S_18
REMARK   11  A    between atoms: S_18  and  C_19
REMARK   12  A    between atoms: C_20  and  C_21
REMARK   13  A    between atoms: C_21  and  O_23
REMARK   14  A    between atoms: C_27  and  C_28
REMARK   15  A    between atoms: C_28  and  C_29
REMARK   16  A    between atoms: C_28  and  O_30
REMARK   17  A    between atoms: C_32  and  C_33
REMARK                            x       y       z     vdW  Elec       q    Type
REMARK                         _______ _______ _______ _____ _____    ______ ____
ROOT
ATOM      1  C   UNL     1       3.179   4.814  19.305  0.00  0.00    +0.000 C 
ATOM      2  O   UNL     1       3.253   3.582  20.061  0.00  0.00    +0.000 OA
ATOM      3  C   UNL     1       2.094   3.472  20.885  0.00  0.00    +0.000 C 
ATOM      4  C   UNL     1       1.091   4.506  20.422  0.00  0.00    +0.000 C 
ATOM      5  C   UNL     1       1.933   5.604  19.797  0.00  0.00    +0.000 C 
ENDROOT
BRANCH   1   6
ATOM      6  C   UNL     1       4.556   5.496  19.346  0.00  0.00    +0.000 C 
BRANCH   6   9
ATOM      7  C   UNL     1       6.247   6.352  17.763  0.00  0.00    +0.000 C 
ATOM      8  O   UNL     1       7.161   6.344  18.583  0.00  0.00    +0.000 OA
ATOM      9  N   UNL     1       4.944   6.058  18.051  0.00  0.00    +0.000 N 
ATOM     10  H   UNL     1       4.348   5.900  17.250  0.00  0.00    +0.000 HD
BRANCH   7  11
ATOM     11  O   UNL     1       6.382   6.618  16.445  0.00  0.00    +0.000 OA
BRANCH  11  12
ATOM     12  C   UNL     1       5.234   6.310  15.638  0.00  0.00    +0.000 C 
BRANCH  12  13
ATOM     13  O   UNL     1       5.141   4.919  15.319  0.00  0.00    +0.000 OA
BRANCH  13  14
ATOM     14  C   UNL     1       6.287   4.360  14.846  0.00  0.00    +0.000 C 
ATOM     15  O   UNL     1       7.114   3.774  15.530  0.00  0.00    +0.000 OA
BRANCH  14  17
ATOM     16  C   UNL     1       7.845   5.071  13.012  0.00  0.00    +0.000 C 
ATOM     17  C   UNL     1       6.426   4.617  13.351  0.00  0.00    +0.000 C 
ATOM     18  C   UNL     1       6.071   3.369  12.546  0.00  0.00    +0.000 C 
ENDBRANCH  14  17
ENDBRANCH  13  14
ENDBRANCH  12  13
ENDBRANCH  11  12
ENDBRANCH   7  11
ENDBRANCH   6   9
ENDBRANCH   1   6
BRANCH   5  19
ATOM     19  S   UNL     1       2.195   7.043  20.905  0.00  0.00    +0.000 S 
BRANCH  19  20
ATOM     20  C   UNL     1       1.306   8.414  20.301  0.00  0.00    +0.000 C 
ATOM     21  C   UNL     1       1.362   9.102  19.140  0.00  0.00    +0.000 C 
ATOM     22  N   UNL     1       0.429  10.125  19.108  0.00  0.00    +0.000 N 
ATOM     23  C   UNL     1       0.753  11.424  19.450  0.00  0.00    +0.000 C 
ATOM     24  O   UNL     1       1.766  12.066  19.386  0.00  0.00    +0.000 OA
ATOM     25  C   UNL     1      -0.656  11.567  20.055  0.00  0.00    +0.000 C 
ATOM     26  C   UNL     1      -0.503  10.001  20.257  0.00  0.00    +0.000 C 
ATOM     27  C   UNL     1       0.343   9.170  21.255  0.00  0.00    +0.000 C 
ATOM     28  C   UNL     1      -0.574   8.334  22.136  0.00  0.00    +0.000 C 
BRANCH  21  29
ATOM     29  C   UNL     1       2.189   8.988  17.914  0.00  0.00    +0.000 C 
ATOM     30  O   UNL     1       2.845   8.041  17.529  0.00  0.00    +0.000 OA
BRANCH  29  31
ATOM     31  O   UNL     1       2.162  10.141  17.201  0.00  0.00    +0.000 OA
ATOM     32  H   UNL     1       1.223  10.284  16.978  0.00  0.00    +0.000 HD
ENDBRANCH  29  31
ENDBRANCH  21  29
BRANCH  25  33
ATOM     33  C   UNL     1      -0.943  12.525  21.187  0.00  0.00    +0.000 C 
ATOM     34  C   UNL     1      -2.446  12.720  21.379  0.00  0.00    +0.000 C 
BRANCH  33  35
ATOM     35  O   UNL     1      -0.281  13.763  20.991  0.00  0.00    +0.000 OA
ATOM     36  H   UNL     1      -0.553  14.124  20.128  0.00  0.00    +0.000 HD
ENDBRANCH  33  35
ENDBRANCH  25  33
ENDBRANCH  19  20
ENDBRANCH   5  19
TORSDOF 13
ENDMDL
MODEL 4
REMARK VINA RESULT:      -6.8      3.613      8.001
REMARK  Name = 
REMARK  17 active torsions:
REMARK  status: ('A' for Active; 'I' for Inactive)
REMARK    1  A    between atoms: C_1  and  C_2
REMARK    2  A    between atoms: C_2  and  C_3
REMARK    3  A    between atoms: C_2  and  C_4
REMARK    4  A    between atoms: C_4  and  O_6
REMARK    5  A    between atoms: O_6  and  C_7
REMARK    6  A    between atoms: C_7  and  O_8
REMARK    7  A    between atoms: O_8  and  C_9
REMARK    8  A    between atoms: N_11  and  C_12
REMARK    9  A    between atoms: C_12  and  C_13
REMARK   10  A    between atoms: C_17  and  S_18
REMARK   11  A    between atoms: S_18  and  C_19
REMARK   12  A    between atoms: C_20  and  C_21
REMARK   13  A    between atoms: C_21  and  O_23
REMARK   14  A    between atoms: C_27  and  C_28
REMARK   15  A    between atoms: C_28  and  C_29
REMARK   16  A    between atoms: C_28  and  O_30
REMARK   17  A    between atoms: C_32  and  C_33
REMARK                            x       y       z     vdW  Elec       q    Type
REMARK                         _______ _______ _______ _____ _____    ______ ____
ROOT
ATOM      1  C   UNL     1       6.697   5.503  16.254  0.00  0.00    +0.000 C 
ATOM      2  O   UNL     1       7.642   4.804  15.408  0.00  0.00    +0.000 OA
ATOM      3  C   UNL     1       6.938   4.207  14.320  0.00  0.00    +0.000 C 
ATOM      4  C   UNL     1       5.544   4.793  14.287  0.00  0.00    +0.000 C 
ATOM      5  C   UNL     1       5.267   5.205  15.722  0.00  0.00    +0.000 C 
ENDROOT
BRANCH   1   6
ATOM      6  C   UNL     1       7.026   5.184  17.720  0.00  0.00    +0.000 C 
BRANCH   6   9
ATOM      7  C   UNL     1       7.865   7.495  17.955  0.00  0.00    +0.000 C 
ATOM      8  O   UNL     1       7.237   7.925  16.990  0.00  0.00    +0.000 OA
ATOM      9  N   UNL     1       7.908   6.181  18.329  0.00  0.00    +0.000 N 
ATOM     10  H   UNL     1       8.285   6.005  19.250  0.00  0.00    +0.000 HD
BRANCH   7  11
ATOM     11  O   UNL     1       8.583   8.247  18.818  0.00  0.00    +0.000 OA
BRANCH  11  12
ATOM     12  C   UNL     1       8.719   9.630  18.456  0.00  0.00    +0.000 C 
BRANCH  12  13
ATOM     13  O   UNL     1       9.187  10.440  19.539  0.00  0.00    +0.000 OA
BRANCH  13  14
ATOM     14  C   UNL     1      10.165  11.326  19.214  0.00  0.00    +0.000 C 
ATOM     15  O   UNL     1      11.161  11.548  19.888  0.00  0.00    +0.000 OA
BRANCH  14  17
ATOM     16  C   UNL     1       8.849  13.198  18.184  0.00  0.00    +0.000 C 
ATOM     17  C   UNL     1       9.818  12.047  17.918  0.00  0.00    +0.000 C 
ATOM     18  C   UNL     1      11.076  12.573  17.230  0.00  0.00    +0.000 C 
ENDBRANCH  14  17
ENDBRANCH  13  14
ENDBRANCH  12  13
ENDBRANCH  11  12
ENDBRANCH   7  11
ENDBRANCH   6   9
ENDBRANCH   1   6
BRANCH   5  19
ATOM     19  S   UNL     1       4.228   4.003  16.638  0.00  0.00    +0.000 S 
BRANCH  19  20
ATOM     20  C   UNL     1       3.682   4.719  18.130  0.00  0.00    +0.000 C 
ATOM     21  C   UNL     1       3.544   4.232  19.382  0.00  0.00    +0.000 C 
ATOM     22  N   UNL     1       3.082   5.201  20.257  0.00  0.00    +0.000 N 
ATOM     23  C   UNL     1       1.741   5.328  20.569  0.00  0.00    +0.000 C 
ATOM     24  O   UNL     1       0.828   4.549  20.623  0.00  0.00    +0.000 OA
ATOM     25  C   UNL     1       1.950   6.853  20.639  0.00  0.00    +0.000 C 
ATOM     26  C   UNL     1       3.108   6.534  19.603  0.00  0.00    +0.000 C 
ATOM     27  C   UNL     1       3.069   6.144  18.103  0.00  0.00    +0.000 C 
ATOM     28  C   UNL     1       3.784   7.203  17.277  0.00  0.00    +0.000 C 
BRANCH  21  29
ATOM     29  C   UNL     1       3.786   2.909  20.006  0.00  0.00    +0.000 C 
ATOM     30  O   UNL     1       4.832   2.298  20.103  0.00  0.00    +0.000 OA
BRANCH  29  31
ATOM     31  O   UNL     1       2.635   2.381  20.490  0.00  0.00    +0.000 OA
ATOM     32  H   UNL     1       2.913   1.650  21.076  0.00  0.00    +0.000 HD
ENDBRANCH  29  31
ENDBRANCH  21  29
BRANCH  25  33
ATOM     33  C   UNL     1       0.829   7.824  20.356  0.00  0.00    +0.000 C 
ATOM     34  C   UNL     1       1.345   9.074  19.647  0.00  0.00    +0.000 C 
BRANCH  33  35
ATOM     35  O   UNL     1       0.127   8.155  21.542  0.00  0.00    +0.000 OA
ATOM     36  H   UNL     1      -0.621   8.734  21.307  0.00  0.00    +0.000 HD
ENDBRANCH  33  35
ENDBRANCH  25  33
ENDBRANCH  19  20
ENDBRANCH   5  19
TORSDOF 13
ENDMDL
MODEL 5
REMARK VINA RESULT:      -6.8      1.363      1.717
REMARK  Name = 
REMARK  17 active torsions:
REMARK  status: ('A' for Active; 'I' for Inactive)
REMARK    1  A    between atoms: C_1  and  C_2
REMARK    2  A    between atoms: C_2  and  C_3
REMARK    3  A    between atoms: C_2  and  C_4
REMARK    4  A    between atoms: C_4  and  O_6
REMARK    5  A    between atoms: O_6  and  C_7
REMARK    6  A    between atoms: C_7  and  O_8
REMARK    7  A    between atoms: O_8  and  C_9
REMARK    8  A    between atoms: N_11  and  C_12
REMARK    9  A    between atoms: C_12  and  C_13
REMARK   10  A    between atoms: C_17  and  S_18
REMARK   11  A    between atoms: S_18  and  C_19
REMARK   12  A    between atoms: C_20  and  C_21
REMARK   13  A    between atoms: C_21  and  O_23
REMARK   14  A    between atoms: C_27  and  C_28
REMARK   15  A    between atoms: C_28  and  C_29
REMARK   16  A    between atoms: C_28  and  O_30
REMARK   17  A    between atoms: C_32  and  C_33
REMARK                            x       y       z     vdW  Elec       q    Type
REMARK                         _______ _______ _______ _____ _____    ______ ____
ROOT
ATOM      1  C   UNL     1       1.630   7.222  19.550  0.00  0.00    +0.000 C 
ATOM      2  O   UNL     1       1.988   8.562  19.135  0.00  0.00    +0.000 OA
ATOM      3  C   UNL     1       2.914   8.482  18.053  0.00  0.00    +0.000 C 
ATOM      4  C   UNL     1       2.920   7.055  17.547  0.00  0.00    +0.000 C 
ATOM      5  C   UNL     1       2.509   6.221  18.747  0.00  0.00    +0.000 C 
ENDROOT
BRANCH   1   6
ATOM      6  C   UNL     1       1.650   7.164  21.085  0.00  0.00    +0.000 C 
BRANCH   6   9
ATOM      7  C   UNL     1       0.249   8.892  22.156  0.00  0.00    +0.000 C 
ATOM      8  O   UNL     1      -0.808   8.304  21.947  0.00  0.00    +0.000 OA
ATOM      9  N   UNL     1       1.469   8.480  21.700  0.00  0.00    +0.000 N 
ATOM     10  H   UNL     1       2.267   8.938  22.120  0.00  0.00    +0.000 HD
BRANCH   7  11
ATOM     11  O   UNL     1       0.385  10.017  22.893  0.00  0.00    +0.000 OA
BRANCH  11  12
ATOM     12  C   UNL     1      -0.816  10.785  23.064  0.00  0.00    +0.000 C 
BRANCH  12  13
ATOM     13  O   UNL     1      -0.575  12.195  23.056  0.00  0.00    +0.000 OA
BRANCH  13  14
ATOM     14  C   UNL     1      -0.788  12.808  21.862  0.00  0.00    +0.000 C 
ATOM     15  O   UNL     1      -1.877  12.914  21.314  0.00  0.00    +0.000 OA
BRANCH  14  17
ATOM     16  C   UNL     1       0.572  13.038  19.765  0.00  0.00    +0.000 C 
ATOM     17  C   UNL     1       0.529  13.295  21.271  0.00  0.00    +0.000 C 
ATOM     18  C   UNL     1       0.740  14.781  21.554  0.00  0.00    +0.000 C 
ENDBRANCH  14  17
ENDBRANCH  13  14
ENDBRANCH  12  13
ENDBRANCH  11  12
ENDBRANCH   7  11
ENDBRANCH   6   9
ENDBRANCH   1   6
BRANCH   5  19
ATOM     19  S   UNL     1       3.924   5.424  19.601  0.00  0.00    +0.000 S 
BRANCH  19  20
ATOM     20  C   UNL     1       5.171   5.053  18.442  0.00  0.00    +0.000 C 
ATOM     21  C   UNL     1       6.516   5.179  18.473  0.00  0.00    +0.000 C 
ATOM     22  N   UNL     1       7.097   4.726  17.300  0.00  0.00    +0.000 N 
ATOM     23  C   UNL     1       7.424   5.583  16.267  0.00  0.00    +0.000 C 
ATOM     24  O   UNL     1       7.744   6.741  16.223  0.00  0.00    +0.000 OA
ATOM     25  C   UNL     1       7.043   4.464  15.280  0.00  0.00    +0.000 C 
ATOM     26  C   UNL     1       6.087   4.026  16.468  0.00  0.00    +0.000 C 
ATOM     27  C   UNL     1       4.766   4.635  17.004  0.00  0.00    +0.000 C 
ATOM     28  C   UNL     1       3.637   3.626  16.857  0.00  0.00    +0.000 C 
BRANCH  21  29
ATOM     29  C   UNL     1       7.481   5.678  19.483  0.00  0.00    +0.000 C 
ATOM     30  O   UNL     1       7.696   5.253  20.600  0.00  0.00    +0.000 OA
BRANCH  29  31
ATOM     31  O   UNL     1       8.156   6.758  19.017  0.00  0.00    +0.000 OA
ATOM     32  H   UNL     1       7.559   7.174  18.365  0.00  0.00    +0.000 HD
ENDBRANCH  29  31
ENDBRANCH  21  29
BRANCH  25  33
ATOM     33  C   UNL     1       6.547   4.766  13.886  0.00  0.00    +0.000 C 
ATOM     34  C   UNL     1       6.013   3.508  13.204  0.00  0.00    +0.000 C 
BRANCH  33  35
ATOM     35  O   UNL     1       7.556   5.388  13.108  0.00  0.00    +0.000 OA
ATOM     36  H   UNL     1       8.138   4.695  12.747  0.00  0.00    +0.000 HD
ENDBRANCH  33  35
ENDBRANCH  25  33
ENDBRANCH  19  20
ENDBRANCH   5  19
TORSDOF 13
ENDMDL
MODEL 6
REMARK VINA RESULT:      -6.7      3.622      8.064
REMARK  Name = 
REMARK  17 active torsions:
REMARK  status: ('A' for Active; 'I' for Inactive)
REMARK    1  A    between atoms: C_1  and  C_2
REMARK    2  A    between atoms: C_2  and  C_3
REMARK    3  A    between atoms: C_2  and  C_4
REMARK    4  A    between atoms: C_4  and  O_6
REMARK    5  A    between atoms: O_6  and  C_7
REMARK    6  A    between atoms: C_7  and  O_8
REMARK    7  A    between atoms: O_8  and  C_9
REMARK    8  A    between atoms: N_11  and  C_12
REMARK    9  A    between atoms: C_12  and  C_13
REMARK   10  A    between atoms: C_17  and  S_18
REMARK   11  A    between atoms: S_18  and  C_19
REMARK   12  A    between atoms: C_20  and  C_21
REMARK   13  A    between atoms: C_21  and  O_23
REMARK   14  A    between atoms: C_27  and  C_28
REMARK   15  A    between atoms: C_28  and  C_29
REMARK   16  A    between atoms: C_28  and  O_30
REMARK   17  A    between atoms: C_32  and  C_33
REMARK                            x       y       z     vdW  Elec       q    Type
REMARK                         _______ _______ _______ _____ _____    ______ ____
ROOT
ATOM      1  C   UNL     1       6.636   5.524  16.323  0.00  0.00    +0.000 C 
ATOM      2  O   UNL     1       7.617   4.792  15.550  0.00  0.00    +0.000 OA
ATOM      3  C   UNL     1       6.961   4.140  14.464  0.00  0.00    +0.000 C 
ATOM      4  C   UNL     1       5.566   4.714  14.347  0.00  0.00    +0.000 C 
ATOM      5  C   UNL     1       5.229   5.192  15.748  0.00  0.00    +0.000 C 
ENDROOT
BRANCH   1   6
ATOM      6  C   UNL     1       6.907   5.278  17.815  0.00  0.00    +0.000 C 
BRANCH   6   9
ATOM      7  C   UNL     1       7.833   7.564  17.912  0.00  0.00    +0.000 C 
ATOM      8  O   UNL     1       7.302   7.929  16.866  0.00  0.00    +0.000 OA
ATOM      9  N   UNL     1       7.786   6.290  18.402  0.00  0.00    +0.000 N 
ATOM     10  H   UNL     1       8.083   6.184  19.363  0.00  0.00    +0.000 HD
BRANCH   7  11
ATOM     11  O   UNL     1       8.519   8.363  18.760  0.00  0.00    +0.000 OA
BRANCH  11  12
ATOM     12  C   UNL     1       8.621   9.738  18.357  0.00  0.00    +0.000 C 
BRANCH  12  13
ATOM     13  O   UNL     1       9.637  10.447  19.072  0.00  0.00    +0.000 OA
BRANCH  13  14
ATOM     14  C   UNL     1       9.707  11.778  18.802  0.00  0.00    +0.000 C 
ATOM     15  O   UNL     1       9.043  12.355  17.952  0.00  0.00    +0.000 OA
BRANCH  14  17
ATOM     16  C   UNL     1      10.277  12.593  21.106  0.00  0.00    +0.000 C 
ATOM     17  C   UNL     1      10.770  12.441  19.667  0.00  0.00    +0.000 C 
ATOM     18  C   UNL     1      12.072  11.644  19.643  0.00  0.00    +0.000 C 
ENDBRANCH  14  17
ENDBRANCH  13  14
ENDBRANCH  12  13
ENDBRANCH  11  12
ENDBRANCH   7  11
ENDBRANCH   6   9
ENDBRANCH   1   6
BRANCH   5  19
ATOM     19  S   UNL     1       4.160   4.027  16.679  0.00  0.00    +0.000 S 
BRANCH  19  20
ATOM     20  C   UNL     1       3.637   4.773  18.164  0.00  0.00    +0.000 C 
ATOM     21  C   UNL     1       3.540   4.318  19.432  0.00  0.00    +0.000 C 
ATOM     22  N   UNL     1       3.080   5.301  20.293  0.00  0.00    +0.000 N 
ATOM     23  C   UNL     1       1.745   5.409  20.635  0.00  0.00    +0.000 C 
ATOM     24  O   UNL     1       0.851   4.612  20.733  0.00  0.00    +0.000 OA
ATOM     25  C   UNL     1       1.923   6.938  20.658  0.00  0.00    +0.000 C 
ATOM     26  C   UNL     1       3.061   6.615  19.602  0.00  0.00    +0.000 C 
ATOM     27  C   UNL     1       2.993   6.183  18.115  0.00  0.00    +0.000 C 
ATOM     28  C   UNL     1       3.664   7.233  17.242  0.00  0.00    +0.000 C 
BRANCH  21  29
ATOM     29  C   UNL     1       3.827   3.017  20.085  0.00  0.00    +0.000 C 
ATOM     30  O   UNL     1       3.162   2.420  20.908  0.00  0.00    +0.000 OA
BRANCH  29  31
ATOM     31  O   UNL     1       5.010   2.509  19.659  0.00  0.00    +0.000 OA
ATOM     32  H   UNL     1       4.867   1.546  19.590  0.00  0.00    +0.000 HD
ENDBRANCH  29  31
ENDBRANCH  21  29
BRANCH  25  33
ATOM     33  C   UNL     1       0.774   7.878  20.378  0.00  0.00    +0.000 C 
ATOM     34  C   UNL     1       1.256   9.149  19.682  0.00  0.00    +0.000 C 
BRANCH  33  35
ATOM     35  O   UNL     1       0.057   8.177  21.563  0.00  0.00    +0.000 OA
ATOM     36  H   UNL     1      -0.308   7.347  21.921  0.00  0.00    +0.000 HD
ENDBRANCH  33  35
ENDBRANCH  25  33
ENDBRANCH  19  20
ENDBRANCH   5  19
TORSDOF 13
ENDMDL
MODEL 7
REMARK VINA RESULT:      -6.7      1.537      2.101
REMARK  Name = 
REMARK  17 active torsions:
REMARK  status: ('A' for Active; 'I' for Inactive)
REMARK    1  A    between atoms: C_1  and  C_2
REMARK    2  A    between atoms: C_2  and  C_3
REMARK    3  A    between atoms: C_2  and  C_4
REMARK    4  A    between atoms: C_4  and  O_6
REMARK    5  A    between atoms: O_6  and  C_7
REMARK    6  A    between atoms: C_7  and  O_8
REMARK    7  A    between atoms: O_8  and  C_9
REMARK    8  A    between atoms: N_11  and  C_12
REMARK    9  A    between atoms: C_12  and  C_13
REMARK   10  A    between atoms: C_17  and  S_18
REMARK   11  A    between atoms: S_18  and  C_19
REMARK   12  A    between atoms: C_20  and  C_21
REMARK   13  A    between atoms: C_21  and  O_23
REMARK   14  A    between atoms: C_27  and  C_28
REMARK   15  A    between atoms: C_28  and  C_29
REMARK   16  A    between atoms: C_28  and  O_30
REMARK   17  A    between atoms: C_32  and  C_33
REMARK                            x       y       z     vdW  Elec       q    Type
REMARK                         _______ _______ _______ _____ _____    ______ ____
ROOT
ATOM      1  C   UNL     1       1.638   7.293  19.508  0.00  0.00    +0.000 C 
ATOM      2  O   UNL     1       2.026   8.630  19.112  0.00  0.00    +0.000 OA
ATOM      3  C   UNL     1       2.968   8.544  18.045  0.00  0.00    +0.000 C 
ATOM      4  C   UNL     1       2.958   7.123  17.525  0.00  0.00    +0.000 C 
ATOM      5  C   UNL     1       2.512   6.284  18.710  0.00  0.00    +0.000 C 
ENDROOT
BRANCH   1   6
ATOM      6  C   UNL     1       1.632   7.220  21.043  0.00  0.00    +0.000 C 
BRANCH   6   9
ATOM      7  C   UNL     1       0.194   8.883  22.165  0.00  0.00    +0.000 C 
ATOM      8  O   UNL     1      -0.844   8.250  21.990  0.00  0.00    +0.000 OA
ATOM      9  N   UNL     1       1.415   8.525  21.667  0.00  0.00    +0.000 N 
ATOM     10  H   UNL     1       2.205   9.017  22.062  0.00  0.00    +0.000 HD
BRANCH   7  11
ATOM     11  O   UNL     1       0.306  10.012  22.901  0.00  0.00    +0.000 OA
BRANCH  11  12
ATOM     12  C   UNL     1       0.146  11.237  22.168  0.00  0.00    +0.000 C 
BRANCH  12  13
ATOM     13  O   UNL     1      -0.589  12.224  22.899  0.00  0.00    +0.000 OA
BRANCH  13  14
ATOM     14  C   UNL     1      -1.820  12.511  22.398  0.00  0.00    +0.000 C 
ATOM     15  O   UNL     1      -2.205  12.214  21.276  0.00  0.00    +0.000 OA
BRANCH  14  17
ATOM     16  C   UNL     1      -3.324  14.491  22.737  0.00  0.00    +0.000 C 
ATOM     17  C   UNL     1      -2.633  13.306  23.411  0.00  0.00    +0.000 C 
ATOM     18  C   UNL     1      -3.670  12.419  24.098  0.00  0.00    +0.000 C 
ENDBRANCH  14  17
ENDBRANCH  13  14
ENDBRANCH  12  13
ENDBRANCH  11  12
ENDBRANCH   7  11
ENDBRANCH   6   9
ENDBRANCH   1   6
BRANCH   5  19
ATOM     19  S   UNL     1       3.898   5.454  19.578  0.00  0.00    +0.000 S 
BRANCH  19  20
ATOM     20  C   UNL     1       5.147   5.050  18.432  0.00  0.00    +0.000 C 
ATOM     21  C   UNL     1       6.493   5.153  18.471  0.00  0.00    +0.000 C 
ATOM     22  N   UNL     1       7.075   4.679  17.307  0.00  0.00    +0.000 N 
ATOM     23  C   UNL     1       7.423   5.519  16.267  0.00  0.00    +0.000 C 
ATOM     24  O   UNL     1       7.762   6.671  16.213  0.00  0.00    +0.000 OA
ATOM     25  C   UNL     1       7.030   4.396  15.289  0.00  0.00    +0.000 C 
ATOM     26  C   UNL     1       6.059   3.986  16.475  0.00  0.00    +0.000 C 
ATOM     27  C   UNL     1       4.745   4.622  16.996  0.00  0.00    +0.000 C 
ATOM     28  C   UNL     1       3.600   3.631  16.852  0.00  0.00    +0.000 C 
BRANCH  21  29
ATOM     29  C   UNL     1       7.460   5.648  19.482  0.00  0.00    +0.000 C 
ATOM     30  O   UNL     1       7.688   5.207  20.590  0.00  0.00    +0.000 OA
BRANCH  29  31
ATOM     31  O   UNL     1       8.118   6.744  19.030  0.00  0.00    +0.000 OA
ATOM     32  H   UNL     1       8.349   7.254  19.830  0.00  0.00    +0.000 HD
ENDBRANCH  29  31
ENDBRANCH  21  29
BRANCH  25  33
ATOM     33  C   UNL     1       6.549   4.691  13.889  0.00  0.00    +0.000 C 
ATOM     34  C   UNL     1       6.151   3.410  13.159  0.00  0.00    +0.000 C 
BRANCH  33  35
ATOM     35  O   UNL     1       7.518   5.422  13.158  0.00  0.00    +0.000 OA
ATOM     36  H   UNL     1       7.326   6.372  13.256  0.00  0.00    +0.000 HD
ENDBRANCH  33  35
ENDBRANCH  25  33
ENDBRANCH  19  20
ENDBRANCH   5  19
TORSDOF 13
ENDMDL
MODEL 8
REMARK VINA RESULT:      -6.6      2.101      8.849
REMARK  Name = 
REMARK  17 active torsions:
REMARK  status: ('A' for Active; 'I' for Inactive)
REMARK    1  A    between atoms: C_1  and  C_2
REMARK    2  A    between atoms: C_2  and  C_3
REMARK    3  A    between atoms: C_2  and  C_4
REMARK    4  A    between atoms: C_4  and  O_6
REMARK    5  A    between atoms: O_6  and  C_7
REMARK    6  A    between atoms: C_7  and  O_8
REMARK    7  A    between atoms: O_8  and  C_9
REMARK    8  A    between atoms: N_11  and  C_12
REMARK    9  A    between atoms: C_12  and  C_13
REMARK   10  A    between atoms: C_17  and  S_18
REMARK   11  A    between atoms: S_18  and  C_19
REMARK   12  A    between atoms: C_20  and  C_21
REMARK   13  A    between atoms: C_21  and  O_23
REMARK   14  A    between atoms: C_27  and  C_28
REMARK   15  A    between atoms: C_28  and  C_29
REMARK   16  A    between atoms: C_28  and  O_30
REMARK   17  A    between atoms: C_32  and  C_33
REMARK                            x       y       z     vdW  Elec       q    Type
REMARK                         _______ _______ _______ _____ _____    ______ ____
ROOT
ATOM      1  C   UNL     1       3.103   4.600  19.535  0.00  0.00    +0.000 C 
ATOM      2  O   UNL     1       2.945   3.384  20.305  0.00  0.00    +0.000 OA
ATOM      3  C   UNL     1       1.671   3.402  20.945  0.00  0.00    +0.000 C 
ATOM      4  C   UNL     1       0.852   4.514  20.327  0.00  0.00    +0.000 C 
ATOM      5  C   UNL     1       1.879   5.514  19.827  0.00  0.00    +0.000 C 
ENDROOT
BRANCH   1   6
ATOM      6  C   UNL     1       4.517   5.152  19.777  0.00  0.00    +0.000 C 
BRANCH   6   9
ATOM      7  C   UNL     1       6.525   5.653  18.431  0.00  0.00    +0.000 C 
ATOM      8  O   UNL     1       7.308   5.508  19.366  0.00  0.00    +0.000 OA
ATOM      9  N   UNL     1       5.164   5.600  18.544  0.00  0.00    +0.000 N 
ATOM     10  H   UNL     1       4.660   5.527  17.671  0.00  0.00    +0.000 HD
BRANCH   7  11
ATOM     11  O   UNL     1       6.877   5.855  17.142  0.00  0.00    +0.000 OA
BRANCH  11  12
ATOM     12  C   UNL     1       5.908   6.556  16.346  0.00  0.00    +0.000 C 
BRANCH  12  13
ATOM     13  O   UNL     1       5.805   6.035  15.018  0.00  0.00    +0.000 OA
BRANCH  13  14
ATOM     14  C   UNL     1       6.818   5.210  14.644  0.00  0.00    +0.000 C 
ATOM     15  O   UNL     1       7.976   5.561  14.465  0.00  0.00    +0.000 OA
BRANCH  14  17
ATOM     16  C   UNL     1       5.377   3.375  15.567  0.00  0.00    +0.000 C 
ATOM     17  C   UNL     1       6.299   3.796  14.423  0.00  0.00    +0.000 C 
ATOM     18  C   UNL     1       5.562   3.684  13.091  0.00  0.00    +0.000 C 
ENDBRANCH  14  17
ENDBRANCH  13  14
ENDBRANCH  12  13
ENDBRANCH  11  12
ENDBRANCH   7  11
ENDBRANCH   6   9
ENDBRANCH   1   6
BRANCH   5  19
ATOM     19  S   UNL     1       2.108   6.947  20.949  0.00  0.00    +0.000 S 
BRANCH  19  20
ATOM     20  C   UNL     1       1.294   8.340  20.290  0.00  0.00    +0.000 C 
ATOM     21  C   UNL     1       1.423   9.009  19.123  0.00  0.00    +0.000 C 
ATOM     22  N   UNL     1       0.529  10.063  19.039  0.00  0.00    +0.000 N 
ATOM     23  C   UNL     1       0.885  11.355  19.377  0.00  0.00    +0.000 C 
ATOM     24  O   UNL     1       1.923  11.960  19.347  0.00  0.00    +0.000 OA
ATOM     25  C   UNL     1      -0.542  11.556  19.921  0.00  0.00    +0.000 C 
ATOM     26  C   UNL     1      -0.453   9.989  20.149  0.00  0.00    +0.000 C 
ATOM     27  C   UNL     1       0.320   9.143  21.193  0.00  0.00    +0.000 C 
ATOM     28  C   UNL     1      -0.661   8.353  22.045  0.00  0.00    +0.000 C 
BRANCH  21  29
ATOM     29  C   UNL     1       2.296   8.848  17.935  0.00  0.00    +0.000 C 
ATOM     30  O   UNL     1       2.989   7.899  17.628  0.00  0.00    +0.000 OA
BRANCH  29  31
ATOM     31  O   UNL     1       2.264   9.956  17.155  0.00  0.00    +0.000 OA
ATOM     32  H   UNL     1       1.754   9.699  16.363  0.00  0.00    +0.000 HD
ENDBRANCH  29  31
ENDBRANCH  21  29
BRANCH  25  33
ATOM     33  C   UNL     1      -0.841  12.540  21.027  0.00  0.00    +0.000 C 
ATOM     34  C   UNL     1      -1.142  13.928  20.467  0.00  0.00    +0.000 C 
BRANCH  33  35
ATOM     35  O   UNL     1       0.212  12.580  21.974  0.00  0.00    +0.000 OA
ATOM     36  H   UNL     1       0.625  11.699  22.015  0.00  0.00    +0.000 HD
ENDBRANCH  33  35
ENDBRANCH  25  33
ENDBRANCH  19  20
ENDBRANCH   5  19
TORSDOF 13
ENDMDL
MODEL 9
REMARK VINA RESULT:      -6.6      0.851      1.254
REMARK  Name = 
REMARK  17 active torsions:
REMARK  status: ('A' for Active; 'I' for Inactive)
REMARK    1  A    between atoms: C_1  and  C_2
REMARK    2  A    between atoms: C_2  and  C_3
REMARK    3  A    between atoms: C_2  and  C_4
REMARK    4  A    between atoms: C_4  and  O_6
REMARK    5  A    between atoms: O_6  and  C_7
REMARK    6  A    between atoms: C_7  and  O_8
REMARK    7  A    between atoms: O_8  and  C_9
REMARK    8  A    between atoms: N_11  and  C_12
REMARK    9  A    between atoms: C_12  and  C_13
REMARK   10  A    between atoms: C_17  and  S_18
REMARK   11  A    between atoms: S_18  and  C_19
REMARK   12  A    between atoms: C_20  and  C_21
REMARK   13  A    between atoms: C_21  and  O_23
REMARK   14  A    between atoms: C_27  and  C_28
REMARK   15  A    between atoms: C_28  and  C_29
REMARK   16  A    between atoms: C_28  and  O_30
REMARK   17  A    between atoms: C_32  and  C_33
REMARK                            x       y       z     vdW  Elec       q    Type
REMARK                         _______ _______ _______ _____ _____    ______ ____
ROOT
ATOM      1  C   UNL     1       1.562   7.750  19.322  0.00  0.00    +0.000 C 
ATOM      2  O   UNL     1       1.959   9.079  18.909  0.00  0.00    +0.000 OA
ATOM      3  C   UNL     1       2.920   8.972  17.860  0.00  0.00    +0.000 C 
ATOM      4  C   UNL     1       2.915   7.542  17.366  0.00  0.00    +0.000 C 
ATOM      5  C   UNL     1       2.448   6.726  18.557  0.00  0.00    +0.000 C 
ENDROOT
BRANCH   1   6
ATOM      6  C   UNL     1       1.530   7.704  20.858  0.00  0.00    +0.000 C 
BRANCH   6   9
ATOM      7  C   UNL     1       0.111   9.200  22.217  0.00  0.00    +0.000 C 
ATOM      8  O   UNL     1      -0.804   8.389  22.331  0.00  0.00    +0.000 OA
ATOM      9  N   UNL     1       1.228   9.006  21.453  0.00  0.00    +0.000 N 
ATOM     10  H   UNL     1       1.984   9.657  21.618  0.00  0.00    +0.000 HD
BRANCH   7  11
ATOM     11  O   UNL     1       0.181  10.393  22.847  0.00  0.00    +0.000 OA
BRANCH  11  12
ATOM     12  C   UNL     1      -0.251  11.521  22.071  0.00  0.00    +0.000 C 
BRANCH  12  13
ATOM     13  O   UNL     1       0.483  11.666  20.852  0.00  0.00    +0.000 OA
BRANCH  13  14
ATOM     14  C   UNL     1      -0.230  12.163  19.807  0.00  0.00    +0.000 C 
ATOM     15  O   UNL     1       0.002  13.222  19.241  0.00  0.00    +0.000 OA
BRANCH  14  17
ATOM     16  C   UNL     1      -2.673  12.051  19.243  0.00  0.00    +0.000 C 
ATOM     17  C   UNL     1      -1.398  11.242  19.475  0.00  0.00    +0.000 C 
ATOM     18  C   UNL     1      -1.091  10.388  18.247  0.00  0.00    +0.000 C 
ENDBRANCH  14  17
ENDBRANCH  13  14
ENDBRANCH  12  13
ENDBRANCH  11  12
ENDBRANCH   7  11
ENDBRANCH   6   9
ENDBRANCH   1   6
BRANCH   5  19
ATOM     19  S   UNL     1       3.817   5.909  19.464  0.00  0.00    +0.000 S 
BRANCH  19  20
ATOM     20  C   UNL     1       4.919   5.182  18.326  0.00  0.00    +0.000 C 
ATOM     21  C   UNL     1       6.266   5.191  18.223  0.00  0.00    +0.000 C 
ATOM     22  N   UNL     1       6.699   4.441  17.142  0.00  0.00    +0.000 N 
ATOM     23  C   UNL     1       6.983   5.015  15.918  0.00  0.00    +0.000 C 
ATOM     24  O   UNL     1       7.376   6.102  15.587  0.00  0.00    +0.000 OA
ATOM     25  C   UNL     1       6.432   3.744  15.245  0.00  0.00    +0.000 C 
ATOM     26  C   UNL     1       5.567   3.666  16.573  0.00  0.00    +0.000 C 
ATOM     27  C   UNL     1       4.349   4.493  17.058  0.00  0.00    +0.000 C 
ATOM     28  C   UNL     1       3.144   3.581  17.233  0.00  0.00    +0.000 C 
BRANCH  21  29
ATOM     29  C   UNL     1       7.356   5.813  19.013  0.00  0.00    +0.000 C 
ATOM     30  O   UNL     1       8.061   6.757  18.717  0.00  0.00    +0.000 OA
BRANCH  29  31
ATOM     31  O   UNL     1       7.526   5.173  20.196  0.00  0.00    +0.000 OA
ATOM     32  H   UNL     1       6.626   5.048  20.553  0.00  0.00    +0.000 HD
ENDBRANCH  29  31
ENDBRANCH  21  29
BRANCH  25  33
ATOM     33  C   UNL     1       5.827   3.773  13.862  0.00  0.00    +0.000 C 
ATOM     34  C   UNL     1       6.908   3.760  12.784  0.00  0.00    +0.000 C 
BRANCH  33  35
ATOM     35  O   UNL     1       4.956   4.882  13.708  0.00  0.00    +0.000 OA
ATOM     36  H   UNL     1       4.910   5.108  12.761  0.00  0.00    +0.000 HD
ENDBRANCH  33  35
ENDBRANCH  25  33
ENDBRANCH  19  20
ENDBRANCH   5  19
TORSDOF 13
ENDMDL
