MODEL 1
REMARK VINA RESULT:      -6.7      0.000      0.000
REMARK  Name = 
REMARK  6 active torsions:
REMARK  status: ('A' for Active; 'I' for Inactive)
REMARK    1  A    between atoms: C_1  and  C_2
REMARK    2  A    between atoms: C_2  and  O_3
REMARK    3  A    between atoms: C_2  and  C_4
REMARK    4  A    between atoms: C_4  and  C_5
REMARK    5  A    between atoms: C_5  and  N_6
REMARK    6  A    between atoms: C_12  and  C_13
REMARK                            x       y       z     vdW  Elec       q    Type
REMARK                         _______ _______ _______ _____ _____    ______ ____
ROOT
ATOM      1  N   UNL     1       3.082   5.498  19.948  0.00  0.00    +0.000 N 
ATOM      2  C   UNL     1       3.769   5.297  18.774  0.00  0.00    +0.000 C 
ATOM      3  O   UNL     1       3.193   4.939  17.750  0.00  0.00    +0.000 OA
ATOM      4  N   UNL     1       5.121   5.472  18.924  0.00  0.00    +0.000 N 
ATOM      5  C   UNL     1       5.940   5.248  17.853  0.00  0.00    +0.000 A 
ATOM      6  N   UNL     1       5.657   5.203  16.578  0.00  0.00    +0.000 NA
ATOM      7  C   UNL     1       6.775   4.725  15.900  0.00  0.00    +0.000 A 
ATOM      8  N   UNL     1       7.902   4.502  16.593  0.00  0.00    +0.000 NA
ATOM      9  S   UNL     1       7.574   4.907  18.182  0.00  0.00    +0.000 S 
ATOM     10  H   UNL     1       3.438   6.208  20.574  0.00  0.00    +0.000 HD
ATOM     11  H   UNL     1       5.513   5.344  19.843  0.00  0.00    +0.000 HD
ENDROOT
BRANCH   7  12
ATOM     12  C   UNL     1       6.680   4.450  14.426  0.00  0.00    +0.000 A 
ATOM     13  C   UNL     1       5.694   3.668  13.856  0.00  0.00    +0.000 A 
ATOM     14  C   UNL     1       5.853   3.545  12.444  0.00  0.00    +0.000 A 
ATOM     15  C   UNL     1       6.971   4.212  11.994  0.00  0.00    +0.000 A 
ATOM     16  S   UNL     1       7.773   5.044  13.257  0.00  0.00    +0.000 S 
ENDBRANCH   7  12
BRANCH   1  17
ATOM     17  C   UNL     1       1.648   5.260  19.982  0.00  0.00    +0.000 C 
BRANCH  17  18
ATOM     18  C   UNL     1       1.285   3.874  20.534  0.00  0.00    +0.000 C 
BRANCH  18  20
ATOM     19  C   UNL     1       2.212   1.872  19.258  0.00  0.00    +0.000 C 
ATOM     20  C   UNL     1       1.055   2.851  19.416  0.00  0.00    +0.000 C 
BRANCH  20  21
ATOM     21  O   UNL     1       0.865   3.534  18.177  0.00  0.00    +0.000 OA
ATOM     22  H   UNL     1       1.744   3.695  17.789  0.00  0.00    +0.000 HD
ENDBRANCH  20  21
ENDBRANCH  18  20
ENDBRANCH  17  18
ENDBRANCH   1  17
TORSDOF 5
ENDMDL
MODEL 2
REMARK VINA RESULT:      -6.6      1.292      1.448
REMARK  Name = 
REMARK  6 active torsions:
REMARK  status: ('A' for Active; 'I' for Inactive)
REMARK    1  A    between atoms: C_1  and  C_2
REMARK    2  A    between atoms: C_2  and  O_3
REMARK    3  A    between atoms: C_2  and  C_4
REMARK    4  A    between atoms: C_4  and  C_5
REMARK    5  A    between atoms: C_5  and  N_6
REMARK    6  A    between atoms: C_12  and  C_13
REMARK                            x       y       z     vdW  Elec       q    Type
REMARK                         _______ _______ _______ _____ _____    ______ ____
ROOT
ATOM      1  N   UNL     1       3.902   3.705  20.178  0.00  0.00    +0.000 N 
ATOM      2  C   UNL     1       4.412   3.862  18.911  0.00  0.00    +0.000 C 
ATOM      3  O   UNL     1       4.262   2.999  18.051  0.00  0.00    +0.000 OA
ATOM      4  N   UNL     1       5.133   5.021  18.778  0.00  0.00    +0.000 N 
ATOM      5  C   UNL     1       5.750   5.283  17.588  0.00  0.00    +0.000 A 
ATOM      6  N   UNL     1       5.525   4.786  16.400  0.00  0.00    +0.000 NA
ATOM      7  C   UNL     1       6.552   5.195  15.554  0.00  0.00    +0.000 A 
ATOM      8  N   UNL     1       7.477   6.043  16.027  0.00  0.00    +0.000 NA
ATOM      9  S   UNL     1       7.061   6.369  17.613  0.00  0.00    +0.000 S 
ATOM     10  H   UNL     1       3.615   4.543  20.665  0.00  0.00    +0.000 HD
ATOM     11  H   UNL     1       5.538   5.421  19.609  0.00  0.00    +0.000 HD
ENDROOT
BRANCH   7  12
ATOM     12  C   UNL     1       6.609   4.656  14.153  0.00  0.00    +0.000 A 
ATOM     13  C   UNL     1       5.713   3.731  13.652  0.00  0.00    +0.000 A 
ATOM     14  C   UNL     1       6.012   3.366  12.305  0.00  0.00    +0.000 A 
ATOM     15  C   UNL     1       7.142   4.002  11.841  0.00  0.00    +0.000 A 
ATOM     16  S   UNL     1       7.787   5.089  12.995  0.00  0.00    +0.000 S 
ENDBRANCH   7  12
BRANCH   1  17
ATOM     17  C   UNL     1       3.190   2.481  20.511  0.00  0.00    +0.000 C 
BRANCH  17  18
ATOM     18  C   UNL     1       1.857   2.742  21.227  0.00  0.00    +0.000 C 
BRANCH  18  20
ATOM     19  C   UNL     1       0.761   2.653  18.927  0.00  0.00    +0.000 C 
ATOM     20  C   UNL     1       0.807   3.342  20.286  0.00  0.00    +0.000 C 
BRANCH  20  21
ATOM     21  O   UNL     1       1.085   4.727  20.083  0.00  0.00    +0.000 OA
ATOM     22  H   UNL     1       1.207   4.869  19.127  0.00  0.00    +0.000 HD
ENDBRANCH  20  21
ENDBRANCH  18  20
ENDBRANCH  17  18
ENDBRANCH   1  17
TORSDOF 5
ENDMDL
MODEL 3
REMARK VINA RESULT:      -6.6      2.429      6.703
REMARK  Name = 
REMARK  6 active torsions:
REMARK  status: ('A' for Active; 'I' for Inactive)
REMARK    1  A    between atoms: C_1  and  C_2
REMARK    2  A    between atoms: C_2  and  O_3
REMARK    3  A    between atoms: C_2  and  C_4
REMARK    4  A    between atoms: C_4  and  C_5
REMARK    5  A    between atoms: C_5  and  N_6
REMARK    6  A    between atoms: C_12  and  C_13
REMARK                            x       y       z     vdW  Elec       q    Type
REMARK                         _______ _______ _______ _____ _____    ______ ____
ROOT
ATOM      1  N   UNL     1       7.709   5.045  13.948  0.00  0.00    +0.000 N 
ATOM      2  C   UNL     1       6.915   4.881  15.058  0.00  0.00    +0.000 C 
ATOM      3  O   UNL     1       5.697   4.759  14.961  0.00  0.00    +0.000 OA
ATOM      4  N   UNL     1       7.632   4.943  16.226  0.00  0.00    +0.000 N 
ATOM      5  C   UNL     1       6.966   4.854  17.416  0.00  0.00    +0.000 A 
ATOM      6  N   UNL     1       5.773   4.389  17.676  0.00  0.00    +0.000 NA
ATOM      7  C   UNL     1       5.453   4.716  18.990  0.00  0.00    +0.000 A 
ATOM      8  N   UNL     1       6.381   5.319  19.748  0.00  0.00    +0.000 NA
ATOM      9  S   UNL     1       7.741   5.493  18.790  0.00  0.00    +0.000 S 
ATOM     10  H   UNL     1       8.646   4.668  13.992  0.00  0.00    +0.000 HD
ATOM     11  H   UNL     1       8.502   5.451  16.218  0.00  0.00    +0.000 HD
ENDROOT
BRANCH   7  12
ATOM     12  C   UNL     1       4.077   4.411  19.511  0.00  0.00    +0.000 A 
ATOM     13  C   UNL     1       3.100   5.370  19.697  0.00  0.00    +0.000 A 
ATOM     14  C   UNL     1       1.897   4.817  20.228  0.00  0.00    +0.000 A 
ATOM     15  C   UNL     1       2.012   3.464  20.457  0.00  0.00    +0.000 A 
ATOM     16  S   UNL     1       3.532   2.856  19.958  0.00  0.00    +0.000 S 
ENDBRANCH   7  12
BRANCH   1  17
ATOM     17  C   UNL     1       7.089   5.098  12.633  0.00  0.00    +0.000 C 
BRANCH  17  18
ATOM     18  C   UNL     1       7.166   3.761  11.883  0.00  0.00    +0.000 C 
BRANCH  18  20
ATOM     19  C   UNL     1       5.855   1.664  11.268  0.00  0.00    +0.000 C 
ATOM     20  C   UNL     1       5.991   2.840  12.228  0.00  0.00    +0.000 C 
BRANCH  20  21
ATOM     21  O   UNL     1       4.776   3.588  12.204  0.00  0.00    +0.000 OA
ATOM     22  H   UNL     1       4.426   3.559  11.295  0.00  0.00    +0.000 HD
ENDBRANCH  20  21
ENDBRANCH  18  20
ENDBRANCH  17  18
ENDBRANCH   1  17
TORSDOF 5
ENDMDL
MODEL 4
REMARK VINA RESULT:      -6.4      3.498      4.611
REMARK  Name = 
REMARK  6 active torsions:
REMARK  status: ('A' for Active; 'I' for Inactive)
REMARK    1  A    between atoms: C_1  and  C_2
REMARK    2  A    between atoms: C_2  and  O_3
REMARK    3  A    between atoms: C_2  and  C_4
REMARK    4  A    between atoms: C_4  and  C_5
REMARK    5  A    between atoms: C_5  and  N_6
REMARK    6  A    between atoms: C_12  and  C_13
REMARK                            x       y       z     vdW  Elec       q    Type
REMARK                         _______ _______ _______ _____ _____    ______ ____
ROOT
ATOM      1  N   UNL     1       1.478   7.441  21.104  0.00  0.00    +0.000 N 
ATOM      2  C   UNL     1       2.330   6.882  20.181  0.00  0.00    +0.000 C 
ATOM      3  O   UNL     1       2.610   7.463  19.136  0.00  0.00    +0.000 OA
ATOM      4  N   UNL     1       2.739   5.624  20.542  0.00  0.00    +0.000 N 
ATOM      5  C   UNL     1       3.544   4.920  19.691  0.00  0.00    +0.000 A 
ATOM      6  N   UNL     1       4.290   5.341  18.704  0.00  0.00    +0.000 NA
ATOM      7  C   UNL     1       4.744   4.232  17.996  0.00  0.00    +0.000 A 
ATOM      8  N   UNL     1       4.451   3.007  18.460  0.00  0.00    +0.000 NA
ATOM      9  S   UNL     1       3.562   3.226  19.859  0.00  0.00    +0.000 S 
ATOM     10  H   UNL     1       1.644   7.217  22.077  0.00  0.00    +0.000 HD
ATOM     11  H   UNL     1       2.146   5.096  21.162  0.00  0.00    +0.000 HD
ENDROOT
BRANCH   7  12
ATOM     12  C   UNL     1       5.522   4.436  16.727  0.00  0.00    +0.000 A 
ATOM     13  C   UNL     1       4.994   4.237  15.466  0.00  0.00    +0.000 A 
ATOM     14  C   UNL     1       5.953   4.473  14.437  0.00  0.00    +0.000 A 
ATOM     15  C   UNL     1       7.184   4.812  14.952  0.00  0.00    +0.000 A 
ATOM     16  S   UNL     1       7.157   4.922  16.660  0.00  0.00    +0.000 S 
ENDBRANCH   7  12
BRANCH   1  17
ATOM     17  C   UNL     1       0.880   8.736  20.826  0.00  0.00    +0.000 C 
BRANCH  17  18
ATOM     18  C   UNL     1      -0.479   8.926  21.514  0.00  0.00    +0.000 C 
BRANCH  18  20
ATOM     19  C   UNL     1      -0.799  11.105  22.796  0.00  0.00    +0.000 C 
ATOM     20  C   UNL     1      -0.348   9.651  22.858  0.00  0.00    +0.000 C 
BRANCH  20  21
ATOM     21  O   UNL     1       1.012   9.614  23.288  0.00  0.00    +0.000 OA
ATOM     22  H   UNL     1       1.457   8.895  22.805  0.00  0.00    +0.000 HD
ENDBRANCH  20  21
ENDBRANCH  18  20
ENDBRANCH  17  18
ENDBRANCH   1  17
TORSDOF 5
ENDMDL
MODEL 5
REMARK VINA RESULT:      -6.3      1.110      1.182
REMARK  Name = 
REMARK  6 active torsions:
REMARK  status: ('A' for Active; 'I' for Inactive)
REMARK    1  A    between atoms: C_1  and  C_2
REMARK    2  A    between atoms: C_2  and  O_3
REMARK    3  A    between atoms: C_2  and  C_4
REMARK    4  A    between atoms: C_4  and  C_5
REMARK    5  A    between atoms: C_5  and  N_6
REMARK    6  A    between atoms: C_12  and  C_13
REMARK                            x       y       z     vdW  Elec       q    Type
REMARK                         _______ _______ _______ _____ _____    ______ ____
ROOT
ATOM      1  N   UNL     1       3.171   5.831  20.024  0.00  0.00    +0.000 N 
ATOM      2  C   UNL     1       3.832   5.565  18.848  0.00  0.00    +0.000 C 
ATOM      3  O   UNL     1       3.224   5.237  17.834  0.00  0.00    +0.000 OA
ATOM      4  N   UNL     1       5.195   5.643  18.987  0.00  0.00    +0.000 N 
ATOM      5  C   UNL     1       5.986   5.346  17.913  0.00  0.00    +0.000 A 
ATOM      6  N   UNL     1       5.691   5.305  16.641  0.00  0.00    +0.000 NA
ATOM      7  C   UNL     1       6.766   4.739  15.961  0.00  0.00    +0.000 A 
ATOM      8  N   UNL     1       7.879   4.442  16.649  0.00  0.00    +0.000 NA
ATOM      9  S   UNL     1       7.595   4.891  18.235  0.00  0.00    +0.000 S 
ATOM     10  H   UNL     1       3.583   6.521  20.638  0.00  0.00    +0.000 HD
ATOM     11  H   UNL     1       5.584   5.499  19.904  0.00  0.00    +0.000 HD
ENDROOT
BRANCH   7  12
ATOM     12  C   UNL     1       6.640   4.452  14.492  0.00  0.00    +0.000 A 
ATOM     13  C   UNL     1       5.609   3.714  13.943  0.00  0.00    +0.000 A 
ATOM     14  C   UNL     1       5.744   3.568  12.530  0.00  0.00    +0.000 A 
ATOM     15  C   UNL     1       6.889   4.172  12.060  0.00  0.00    +0.000 A 
ATOM     16  S   UNL     1       7.748   4.976  13.303  0.00  0.00    +0.000 S 
ENDBRANCH   7  12
BRANCH   1  17
ATOM     17  C   UNL     1       1.724   5.698  20.071  0.00  0.00    +0.000 C 
BRANCH  17  18
ATOM     18  C   UNL     1       1.266   4.324  20.578  0.00  0.00    +0.000 C 
BRANCH  18  20
ATOM     19  C   UNL     1       2.659   2.234  20.143  0.00  0.00    +0.000 C 
ATOM     20  C   UNL     1       2.446   3.455  21.029  0.00  0.00    +0.000 C 
BRANCH  20  21
ATOM     21  O   UNL     1       2.226   3.012  22.368  0.00  0.00    +0.000 OA
ATOM     22  H   UNL     1       2.102   2.046  22.344  0.00  0.00    +0.000 HD
ENDBRANCH  20  21
ENDBRANCH  18  20
ENDBRANCH  17  18
ENDBRANCH   1  17
TORSDOF 5
ENDMDL
MODEL 6
REMARK VINA RESULT:      -6.3      3.151      6.953
REMARK  Name = 
REMARK  6 active torsions:
REMARK  status: ('A' for Active; 'I' for Inactive)
REMARK    1  A    between atoms: C_1  and  C_2
REMARK    2  A    between atoms: C_2  and  O_3
REMARK    3  A    between atoms: C_2  and  C_4
REMARK    4  A    between atoms: C_4  and  C_5
REMARK    5  A    between atoms: C_5  and  N_6
REMARK    6  A    between atoms: C_12  and  C_13
REMARK                            x       y       z     vdW  Elec       q    Type
REMARK                         _______ _______ _______ _____ _____    ______ ____
ROOT
ATOM      1  N   UNL     1       6.545   4.170  14.567  0.00  0.00    +0.000 N 
ATOM      2  C   UNL     1       5.693   4.881  15.378  0.00  0.00    +0.000 C 
ATOM      3  O   UNL     1       5.365   6.033  15.107  0.00  0.00    +0.000 OA
ATOM      4  N   UNL     1       5.345   4.185  16.507  0.00  0.00    +0.000 N 
ATOM      5  C   UNL     1       4.547   4.789  17.438  0.00  0.00    +0.000 A 
ATOM      6  N   UNL     1       3.761   5.826  17.320  0.00  0.00    +0.000 NA
ATOM      7  C   UNL     1       3.333   6.197  18.592  0.00  0.00    +0.000 A 
ATOM      8  N   UNL     1       3.687   5.435  19.638  0.00  0.00    +0.000 NA
ATOM      9  S   UNL     1       4.601   4.176  19.025  0.00  0.00    +0.000 S 
ATOM     10  H   UNL     1       6.413   3.168  14.528  0.00  0.00    +0.000 HD
ATOM     11  H   UNL     1       5.973   3.467  16.831  0.00  0.00    +0.000 HD
ENDROOT
BRANCH   7  12
ATOM     12  C   UNL     1       2.517   7.447  18.759  0.00  0.00    +0.000 A 
ATOM     13  C   UNL     1       2.342   8.385  17.760  0.00  0.00    +0.000 A 
ATOM     14  C   UNL     1       1.548   9.489  18.191  0.00  0.00    +0.000 A 
ATOM     15  C   UNL     1       1.173   9.366  19.511  0.00  0.00    +0.000 A 
ATOM     16  S   UNL     1       1.710   7.892  20.196  0.00  0.00    +0.000 S 
ENDBRANCH   7  12
BRANCH   1  17
ATOM     17  C   UNL     1       7.085   4.803  13.374  0.00  0.00    +0.000 C 
BRANCH  17  18
ATOM     18  C   UNL     1       7.023   3.896  12.137  0.00  0.00    +0.000 C 
BRANCH  18  20
ATOM     19  C   UNL     1       6.037   1.724  11.242  0.00  0.00    +0.000 C 
ATOM     20  C   UNL     1       5.884   2.875  12.228  0.00  0.00    +0.000 C 
BRANCH  20  21
ATOM     21  O   UNL     1       4.639   3.526  11.977  0.00  0.00    +0.000 OA
ATOM     22  H   UNL     1       4.776   4.156  11.246  0.00  0.00    +0.000 HD
ENDBRANCH  20  21
ENDBRANCH  18  20
ENDBRANCH  17  18
ENDBRANCH   1  17
TORSDOF 5
ENDMDL
MODEL 7
REMARK VINA RESULT:      -6.2      1.034      1.065
REMARK  Name = 
REMARK  6 active torsions:
REMARK  status: ('A' for Active; 'I' for Inactive)
REMARK    1  A    between atoms: C_1  and  C_2
REMARK    2  A    between atoms: C_2  and  O_3
REMARK    3  A    between atoms: C_2  and  C_4
REMARK    4  A    between atoms: C_4  and  C_5
REMARK    5  A    between atoms: C_5  and  N_6
REMARK    6  A    between atoms: C_12  and  C_13
REMARK                            x       y       z     vdW  Elec       q    Type
REMARK                         _______ _______ _______ _____ _____    ______ ____
ROOT
ATOM      1  N   UNL     1       2.795   5.625  19.585  0.00  0.00    +0.000 N 
ATOM      2  C   UNL     1       3.504   5.422  18.425  0.00  0.00    +0.000 C 
ATOM      3  O   UNL     1       3.152   4.585  17.599  0.00  0.00    +0.000 OA
ATOM      4  N   UNL     1       4.638   6.192  18.365  0.00  0.00    +0.000 N 
ATOM      5  C   UNL     1       5.475   6.054  17.293  0.00  0.00    +0.000 A 
ATOM      6  N   UNL     1       5.247   5.542  16.113  0.00  0.00    +0.000 NA
ATOM      7  C   UNL     1       6.463   5.422  15.446  0.00  0.00    +0.000 A 
ATOM      8  N   UNL     1       7.569   5.902  16.034  0.00  0.00    +0.000 NA
ATOM      9  S   UNL     1       7.090   6.550  17.499  0.00  0.00    +0.000 S 
ATOM     10  H   UNL     1       2.797   6.561  19.967  0.00  0.00    +0.000 HD
ATOM     11  H   UNL     1       5.042   6.503  19.233  0.00  0.00    +0.000 HD
ENDROOT
BRANCH   7  12
ATOM     12  C   UNL     1       6.506   4.737  14.110  0.00  0.00    +0.000 A 
ATOM     13  C   UNL     1       5.568   3.813  13.694  0.00  0.00    +0.000 A 
ATOM     14  C   UNL     1       5.860   3.295  12.397  0.00  0.00    +0.000 A 
ATOM     15  C   UNL     1       7.026   3.821  11.886  0.00  0.00    +0.000 A 
ATOM     16  S   UNL     1       7.716   4.988  12.931  0.00  0.00    +0.000 S 
ENDBRANCH   7  12
BRANCH   1  17
ATOM     17  C   UNL     1       1.616   4.816  19.848  0.00  0.00    +0.000 C 
BRANCH  17  18
ATOM     18  C   UNL     1       1.851   3.749  20.927  0.00  0.00    +0.000 C 
BRANCH  18  20
ATOM     19  C   UNL     1       3.893   2.324  20.382  0.00  0.00    +0.000 C 
ATOM     20  C   UNL     1       2.374   2.436  20.333  0.00  0.00    +0.000 C 
BRANCH  20  21
ATOM     21  O   UNL     1       1.954   2.327  18.974  0.00  0.00    +0.000 OA
ATOM     22  H   UNL     1       1.489   1.477  18.874  0.00  0.00    +0.000 HD
ENDBRANCH  20  21
ENDBRANCH  18  20
ENDBRANCH  17  18
ENDBRANCH   1  17
TORSDOF 5
ENDMDL
MODEL 8
REMARK VINA RESULT:      -6.2      2.852      6.962
REMARK  Name = 
REMARK  6 active torsions:
REMARK  status: ('A' for Active; 'I' for Inactive)
REMARK    1  A    between atoms: C_1  and  C_2
REMARK    2  A    between atoms: C_2  and  O_3
REMARK    3  A    between atoms: C_2  and  C_4
REMARK    4  A    between atoms: C_4  and  C_5
REMARK    5  A    between atoms: C_5  and  N_6
REMARK    6  A    between atoms: C_12  and  C_13
REMARK                            x       y       z     vdW  Elec       q    Type
REMARK                         _______ _______ _______ _____ _____    ______ ____
ROOT
ATOM      1  N   UNL     1       6.760   3.820  13.445  0.00  0.00    +0.000 N 
ATOM      2  C   UNL     1       6.108   3.990  14.643  0.00  0.00    +0.000 C 
ATOM      3  O   UNL     1       4.888   4.121  14.694  0.00  0.00    +0.000 OA
ATOM      4  N   UNL     1       6.975   4.064  15.703  0.00  0.00    +0.000 N 
ATOM      5  C   UNL     1       6.474   4.291  16.954  0.00  0.00    +0.000 A 
ATOM      6  N   UNL     1       5.259   4.135  17.410  0.00  0.00    +0.000 NA
ATOM      7  C   UNL     1       5.192   4.708  18.677  0.00  0.00    +0.000 A 
ATOM      8  N   UNL     1       6.315   5.199  19.222  0.00  0.00    +0.000 NA
ATOM      9  S   UNL     1       7.539   4.939  18.113  0.00  0.00    +0.000 S 
ATOM     10  H   UNL     1       7.602   3.260  13.455  0.00  0.00    +0.000 HD
ATOM     11  H   UNL     1       7.919   4.366  15.520  0.00  0.00    +0.000 HD
ENDROOT
BRANCH   7  12
ATOM     12  C   UNL     1       3.867   4.784  19.381  0.00  0.00    +0.000 A 
ATOM     13  C   UNL     1       3.181   5.964  19.594  0.00  0.00    +0.000 A 
ATOM     14  C   UNL     1       1.964   5.758  20.311  0.00  0.00    +0.000 A 
ATOM     15  C   UNL     1       1.785   4.434  20.645  0.00  0.00    +0.000 A 
ATOM     16  S   UNL     1       3.034   3.440  20.027  0.00  0.00    +0.000 S 
ENDBRANCH   7  12
BRANCH   1  17
ATOM     17  C   UNL     1       5.990   3.816  12.211  0.00  0.00    +0.000 C 
BRANCH  17  18
ATOM     18  C   UNL     1       5.394   2.439  11.884  0.00  0.00    +0.000 C 
BRANCH  18  20
ATOM     19  C   UNL     1       6.161   0.091  11.259  0.00  0.00    +0.000 C 
ATOM     20  C   UNL     1       6.344   1.587  11.036  0.00  0.00    +0.000 C 
BRANCH  20  21
ATOM     21  O   UNL     1       7.695   1.930  11.345  0.00  0.00    +0.000 OA
ATOM     22  H   UNL     1       7.697   2.837  11.701  0.00  0.00    +0.000 HD
ENDBRANCH  20  21
ENDBRANCH  18  20
ENDBRANCH  17  18
ENDBRANCH   1  17
TORSDOF 5
ENDMDL
MODEL 9
REMARK VINA RESULT:      -6.2      2.742      7.011
REMARK  Name = 
REMARK  6 active torsions:
REMARK  status: ('A' for Active; 'I' for Inactive)
REMARK    1  A    between atoms: C_1  and  C_2
REMARK    2  A    between atoms: C_2  and  O_3
REMARK    3  A    between atoms: C_2  and  C_4
REMARK    4  A    between atoms: C_4  and  C_5
REMARK    5  A    between atoms: C_5  and  N_6
REMARK    6  A    between atoms: C_12  and  C_13
REMARK                            x       y       z     vdW  Elec       q    Type
REMARK                         _______ _______ _______ _____ _____    ______ ____
ROOT
ATOM      1  N   UNL     1       6.349   5.758  14.767  0.00  0.00    +0.000 N 
ATOM      2  C   UNL     1       5.614   5.391  15.869  0.00  0.00    +0.000 C 
ATOM      3  O   UNL     1       5.472   4.211  16.178  0.00  0.00    +0.000 OA
ATOM      4  N   UNL     1       5.035   6.466  16.493  0.00  0.00    +0.000 N 
ATOM      5  C   UNL     1       4.226   6.247  17.572  0.00  0.00    +0.000 A 
ATOM      6  N   UNL     1       4.137   5.205  18.355  0.00  0.00    +0.000 NA
ATOM      7  C   UNL     1       3.019   5.364  19.169  0.00  0.00    +0.000 A 
ATOM      8  N   UNL     1       2.327   6.511  19.096  0.00  0.00    +0.000 NA
ATOM      9  S   UNL     1       3.098   7.462  17.958  0.00  0.00    +0.000 S 
ATOM     10  H   UNL     1       6.835   6.644  14.813  0.00  0.00    +0.000 HD
ATOM     11  H   UNL     1       4.863   7.292  15.944  0.00  0.00    +0.000 HD
ENDROOT
BRANCH   7  12
ATOM     12  C   UNL     1       2.606   4.243  20.081  0.00  0.00    +0.000 A 
ATOM     13  C   UNL     1       1.408   4.218  20.767  0.00  0.00    +0.000 A 
ATOM     14  C   UNL     1       1.280   3.055  21.584  0.00  0.00    +0.000 A 
ATOM     15  C   UNL     1       2.398   2.253  21.513  0.00  0.00    +0.000 A 
ATOM     16  S   UNL     1       3.555   2.862  20.409  0.00  0.00    +0.000 S 
ENDBRANCH   7  12
BRANCH   1  17
ATOM     17  C   UNL     1       6.951   4.727  13.938  0.00  0.00    +0.000 C 
BRANCH  17  18
ATOM     18  C   UNL     1       5.965   3.613  13.560  0.00  0.00    +0.000 C 
BRANCH  18  20
ATOM     19  C   UNL     1       4.510   3.244  11.500  0.00  0.00    +0.000 C 
ATOM     20  C   UNL     1       5.927   3.367  12.047  0.00  0.00    +0.000 C 
BRANCH  20  21
ATOM     21  O   UNL     1       6.639   2.168  11.742  0.00  0.00    +0.000 OA
ATOM     22  H   UNL     1       6.896   1.753  12.585  0.00  0.00    +0.000 HD
ENDBRANCH  20  21
ENDBRANCH  18  20
ENDBRANCH  17  18
ENDBRANCH   1  17
TORSDOF 5
ENDMDL
