MODEL 1
REMARK VINA RESULT:      -8.4      0.000      0.000
REMARK  Name = 
REMARK  11 active torsions:
REMARK  status: ('A' for Active; 'I' for Inactive)
REMARK    1  A    between atoms: C_1  and  N_2
REMARK    2  A    between atoms: N_2  and  C_3
REMARK    3  A    between atoms: C_3  and  C_4
REMARK    4  A    between atoms: C_4  and  C_5
REMARK    5  A    between atoms: C_5  and  N_6
REMARK    6  A    between atoms: C_7  and  C_9
REMARK    7  A    between atoms: C_14  and  C_15
REMARK    8  A    between atoms: C_15  and  C_16
REMARK    9  A    between atoms: C_16  and  N_17
REMARK   10  A    between atoms: N_17  and  C_18
REMARK   11  A    between atoms: C_25  and  C_26
REMARK                            x       y       z     vdW  Elec       q    Type
REMARK                         _______ _______ _______ _____ _____    ______ ____
ROOT
ATOM      1  C   UNL     1       1.277   9.997  19.053  0.00  0.00    +0.000 A 
ATOM      2  C   UNL     1       1.984   9.694  17.888  0.00  0.00    +0.000 A 
ATOM      3  C   UNL     1       2.383   8.384  17.623  0.00  0.00    +0.000 A 
ATOM      4  C   UNL     1       2.193   7.378  18.574  0.00  0.00    +0.000 A 
ATOM      5  C   UNL     1       2.637   6.068  18.341  0.00  0.00    +0.000 A 
ATOM      6  C   UNL     1       2.542   5.082  19.333  0.00  0.00    +0.000 A 
ATOM      7  C   UNL     1       1.959   5.427  20.562  0.00  0.00    +0.000 A 
ATOM      8  C   UNL     1       1.472   6.713  20.790  0.00  0.00    +0.000 A 
ATOM      9  C   UNL     1       1.582   7.698  19.805  0.00  0.00    +0.000 A 
ATOM     10  C   UNL     1       1.106   8.998  20.022  0.00  0.00    +0.000 A 
ENDROOT
BRANCH   1  13
ATOM     11  C   UNL     1      -1.040  12.998  19.490  0.00  0.00    +0.000 C 
ATOM     12  N   UNL     1      -0.660  11.620  19.204  0.00  0.00    +0.000 N 
ATOM     13  C   UNL     1       0.707  11.339  19.348  0.00  0.00    +0.000 C 
ATOM     14  O   UNL     1       1.495  12.190  19.769  0.00  0.00    +0.000 OA
BRANCH  12  15
ATOM     15  C   UNL     1      -1.744  10.695  18.842  0.00  0.00    +0.000 C 
BRANCH  15  16
ATOM     16  C   UNL     1      -1.708  10.172  17.405  0.00  0.00    +0.000 C 
BRANCH  16  17
ATOM     17  C   UNL     1      -2.443  11.131  16.470  0.00  0.00    +0.000 C 
BRANCH  17  18
ATOM     18  N   UNL     1      -3.019  10.401  15.348  0.00  0.00    +0.000 NA
ATOM     19  H   UNL     1      -3.829   9.866  15.662  0.00  0.00    +0.000 HD
ATOM     20  H   UNL     1      -2.346   9.720  14.998  0.00  0.00    +0.000 HD
ENDBRANCH  17  18
ENDBRANCH  16  17
ENDBRANCH  15  16
ENDBRANCH  12  15
ENDBRANCH   1  13
BRANCH   6  21
ATOM     21  C   UNL     1       3.096   3.706  19.030  0.00  0.00    +0.000 C 
BRANCH  21  22
ATOM     22  C   UNL     1       3.464   3.483  17.562  0.00  0.00    +0.000 C 
BRANCH  22  23
ATOM     23  N   UNL     1       4.889   3.202  17.402  0.00  0.00    +0.000 N 
ATOM     24  H   UNL     1       5.042   2.360  16.858  0.00  0.00    +0.000 HD
BRANCH  23  25
ATOM     25  C   UNL     1       5.713   4.277  16.985  0.00  0.00    +0.000 A 
ATOM     26  C   UNL     1       6.260   5.167  17.918  0.00  0.00    +0.000 A 
ATOM     27  C   UNL     1       7.157   6.130  17.498  0.00  0.00    +0.000 A 
ATOM     28  N   UNL     1       7.578   6.253  16.233  0.00  0.00    +0.000 NA
ATOM     29  C   UNL     1       7.097   5.395  15.327  0.00  0.00    +0.000 A 
ATOM     30  C   UNL     1       7.573   5.509  14.031  0.00  0.00    +0.000 A 
ATOM     31  C   UNL     1       7.129   4.679  13.002  0.00  0.00    +0.000 A 
ATOM     32  C   UNL     1       6.168   3.712  13.268  0.00  0.00    +0.000 A 
ATOM     33  C   UNL     1       5.682   3.567  14.571  0.00  0.00    +0.000 A 
ATOM     34  C   UNL     1       6.146   4.388  15.631  0.00  0.00    +0.000 A 
BRANCH  32  35
ATOM     35  C   UNL     1       5.676   2.872  12.218  0.00  0.00    +0.000 C 
ATOM     36  N   UNL     1       5.266   2.198  11.364  0.00  0.00    +0.000 NA
ENDBRANCH  32  35
ENDBRANCH  23  25
ENDBRANCH  22  23
ENDBRANCH  21  22
ENDBRANCH   6  21
TORSDOF 10
ENDMDL
MODEL 2
REMARK VINA RESULT:      -8.0      0.732      1.464
REMARK  Name = 
REMARK  11 active torsions:
REMARK  status: ('A' for Active; 'I' for Inactive)
REMARK    1  A    between atoms: C_1  and  N_2
REMARK    2  A    between atoms: N_2  and  C_3
REMARK    3  A    between atoms: C_3  and  C_4
REMARK    4  A    between atoms: C_4  and  C_5
REMARK    5  A    between atoms: C_5  and  N_6
REMARK    6  A    between atoms: C_7  and  C_9
REMARK    7  A    between atoms: C_14  and  C_15
REMARK    8  A    between atoms: C_15  and  C_16
REMARK    9  A    between atoms: C_16  and  N_17
REMARK   10  A    between atoms: N_17  and  C_18
REMARK   11  A    between atoms: C_25  and  C_26
REMARK                            x       y       z     vdW  Elec       q    Type
REMARK                         _______ _______ _______ _____ _____    ______ ____
ROOT
ATOM      1  C   UNL     1       0.839   9.753  20.353  0.00  0.00    +0.000 A 
ATOM      2  C   UNL     1       0.534   8.906  21.420  0.00  0.00    +0.000 A 
ATOM      3  C   UNL     1       0.971   7.580  21.418  0.00  0.00    +0.000 A 
ATOM      4  C   UNL     1       1.610   7.045  20.296  0.00  0.00    +0.000 A 
ATOM      5  C   UNL     1       2.006   5.700  20.262  0.00  0.00    +0.000 A 
ATOM      6  C   UNL     1       2.553   5.134  19.102  0.00  0.00    +0.000 A 
ATOM      7  C   UNL     1       2.727   5.955  17.978  0.00  0.00    +0.000 A 
ATOM      8  C   UNL     1       2.380   7.305  18.014  0.00  0.00    +0.000 A 
ATOM      9  C   UNL     1       1.821   7.864  19.166  0.00  0.00    +0.000 A 
ATOM     10  C   UNL     1       1.458   9.216  19.215  0.00  0.00    +0.000 A 
ENDROOT
BRANCH   1  13
ATOM     11  C   UNL     1      -0.772  13.163  19.770  0.00  0.00    +0.000 C 
ATOM     12  N   UNL     1      -0.643  11.712  19.739  0.00  0.00    +0.000 N 
ATOM     13  C   UNL     1       0.522  11.207  20.336  0.00  0.00    +0.000 C 
ATOM     14  O   UNL     1       1.321  11.949  20.912  0.00  0.00    +0.000 OA
BRANCH  12  15
ATOM     15  C   UNL     1      -1.750  10.960  19.131  0.00  0.00    +0.000 C 
BRANCH  15  16
ATOM     16  C   UNL     1      -1.549  10.564  17.667  0.00  0.00    +0.000 C 
BRANCH  16  17
ATOM     17  C   UNL     1      -2.897  10.446  16.956  0.00  0.00    +0.000 C 
BRANCH  17  18
ATOM     18  N   UNL     1      -3.376  11.763  16.558  0.00  0.00    +0.000 NA
ATOM     19  H   UNL     1      -4.167  11.666  15.920  0.00  0.00    +0.000 HD
ATOM     20  H   UNL     1      -2.649  12.252  16.036  0.00  0.00    +0.000 HD
ENDBRANCH  17  18
ENDBRANCH  16  17
ENDBRANCH  15  16
ENDBRANCH  12  15
ENDBRANCH   1  13
BRANCH   6  21
ATOM     21  C   UNL     1       2.903   3.661  19.121  0.00  0.00    +0.000 C 
BRANCH  21  22
ATOM     22  C   UNL     1       4.393   3.364  18.939  0.00  0.00    +0.000 C 
BRANCH  22  23
ATOM     23  N   UNL     1       4.775   3.373  17.528  0.00  0.00    +0.000 N 
ATOM     24  H   UNL     1       3.963   3.318  16.924  0.00  0.00    +0.000 HD
BRANCH  23  25
ATOM     25  C   UNL     1       5.693   4.372  17.117  0.00  0.00    +0.000 A 
ATOM     26  C   UNL     1       6.333   5.189  18.057  0.00  0.00    +0.000 A 
ATOM     27  C   UNL     1       7.313   6.070  17.640  0.00  0.00    +0.000 A 
ATOM     28  N   UNL     1       7.729   6.173  16.371  0.00  0.00    +0.000 NA
ATOM     29  C   UNL     1       7.157   5.380  15.458  0.00  0.00    +0.000 A 
ATOM     30  C   UNL     1       7.627   5.470  14.158  0.00  0.00    +0.000 A 
ATOM     31  C   UNL     1       7.093   4.704  13.123  0.00  0.00    +0.000 A 
ATOM     32  C   UNL     1       6.047   3.828  13.386  0.00  0.00    +0.000 A 
ATOM     33  C   UNL     1       5.565   3.709  14.693  0.00  0.00    +0.000 A 
ATOM     34  C   UNL     1       6.118   4.463  15.759  0.00  0.00    +0.000 A 
BRANCH  32  35
ATOM     35  C   UNL     1       5.465   3.057  12.330  0.00  0.00    +0.000 C 
ATOM     36  N   UNL     1       5.000   2.436  11.463  0.00  0.00    +0.000 NA
ENDBRANCH  32  35
ENDBRANCH  23  25
ENDBRANCH  22  23
ENDBRANCH  21  22
ENDBRANCH   6  21
TORSDOF 10
ENDMDL
MODEL 3
REMARK VINA RESULT:      -7.9      2.681     10.117
REMARK  Name = 
REMARK  11 active torsions:
REMARK  status: ('A' for Active; 'I' for Inactive)
REMARK    1  A    between atoms: C_1  and  N_2
REMARK    2  A    between atoms: N_2  and  C_3
REMARK    3  A    between atoms: C_3  and  C_4
REMARK    4  A    between atoms: C_4  and  C_5
REMARK    5  A    between atoms: C_5  and  N_6
REMARK    6  A    between atoms: C_7  and  C_9
REMARK    7  A    between atoms: C_14  and  C_15
REMARK    8  A    between atoms: C_15  and  C_16
REMARK    9  A    between atoms: C_16  and  N_17
REMARK   10  A    between atoms: N_17  and  C_18
REMARK   11  A    between atoms: C_25  and  C_26
REMARK                            x       y       z     vdW  Elec       q    Type
REMARK                         _______ _______ _______ _____ _____    ______ ____
ROOT
ATOM      1  C   UNL     1       2.639   5.744  18.606  0.00  0.00    +0.000 A 
ATOM      2  C   UNL     1       2.401   5.478  19.956  0.00  0.00    +0.000 A 
ATOM      3  C   UNL     1       1.751   6.416  20.758  0.00  0.00    +0.000 A 
ATOM      4  C   UNL     1       1.440   7.684  20.258  0.00  0.00    +0.000 A 
ATOM      5  C   UNL     1       0.833   8.653  21.070  0.00  0.00    +0.000 A 
ATOM      6  C   UNL     1       0.615   9.957  20.603  0.00  0.00    +0.000 A 
ATOM      7  C   UNL     1       0.988  10.265  19.286  0.00  0.00    +0.000 A 
ATOM      8  C   UNL     1       1.549   9.297  18.454  0.00  0.00    +0.000 A 
ATOM      9  C   UNL     1       1.780   8.003  18.926  0.00  0.00    +0.000 A 
ATOM     10  C   UNL     1       2.352   7.022  18.105  0.00  0.00    +0.000 A 
ENDROOT
BRANCH   1  13
ATOM     11  C   UNL     1       4.953   3.720  16.344  0.00  0.00    +0.000 C 
ATOM     12  N   UNL     1       4.573   4.727  17.327  0.00  0.00    +0.000 N 
ATOM     13  C   UNL     1       3.209   4.751  17.656  0.00  0.00    +0.000 C 
ATOM     14  O   UNL     1       2.425   3.916  17.198  0.00  0.00    +0.000 OA
BRANCH  12  15
ATOM     15  C   UNL     1       5.653   5.559  17.877  0.00  0.00    +0.000 C 
BRANCH  15  16
ATOM     16  C   UNL     1       6.437   4.937  19.034  0.00  0.00    +0.000 C 
BRANCH  16  17
ATOM     17  C   UNL     1       7.714   5.733  19.303  0.00  0.00    +0.000 C 
BRANCH  17  18
ATOM     18  N   UNL     1       8.277   5.363  20.594  0.00  0.00    +0.000 NA
ATOM     19  H   UNL     1       9.213   4.975  20.466  0.00  0.00    +0.000 HD
ATOM     20  H   UNL     1       7.718   4.622  21.016  0.00  0.00    +0.000 HD
ENDBRANCH  17  18
ENDBRANCH  16  17
ENDBRANCH  15  16
ENDBRANCH  12  15
ENDBRANCH   1  13
BRANCH   6  21
ATOM     21  C   UNL     1       0.009  10.966  21.556  0.00  0.00    +0.000 C 
BRANCH  21  22
ATOM     22  C   UNL     1       0.136  12.420  21.098  0.00  0.00    +0.000 C 
BRANCH  22  23
ATOM     23  N   UNL     1      -0.760  12.712  19.982  0.00  0.00    +0.000 N 
ATOM     24  H   UNL     1      -0.463  12.241  19.134  0.00  0.00    +0.000 HD
BRANCH  23  25
ATOM     25  C   UNL     1      -2.150  12.577  20.220  0.00  0.00    +0.000 A 
ATOM     26  C   UNL     1      -2.723  13.042  21.411  0.00  0.00    +0.000 A 
ATOM     27  C   UNL     1      -4.096  13.009  21.567  0.00  0.00    +0.000 A 
ATOM     28  N   UNL     1      -4.942  12.586  20.619  0.00  0.00    +0.000 NA
ATOM     29  C   UNL     1      -4.423  12.167  19.459  0.00  0.00    +0.000 A 
ATOM     30  C   UNL     1      -5.313  11.770  18.474  0.00  0.00    +0.000 A 
ATOM     31  C   UNL     1      -4.885  11.300  17.233  0.00  0.00    +0.000 A 
ATOM     32  C   UNL     1      -3.524  11.208  16.968  0.00  0.00    +0.000 A 
ATOM     33  C   UNL     1      -2.606  11.616  17.940  0.00  0.00    +0.000 A 
ATOM     34  C   UNL     1      -3.031  12.121  19.196  0.00  0.00    +0.000 A 
BRANCH  32  35
ATOM     35  C   UNL     1      -3.064  10.698  15.712  0.00  0.00    +0.000 C 
ATOM     36  N   UNL     1      -2.679  10.279  14.697  0.00  0.00    +0.000 NA
ENDBRANCH  32  35
ENDBRANCH  23  25
ENDBRANCH  22  23
ENDBRANCH  21  22
ENDBRANCH   6  21
TORSDOF 10
ENDMDL
MODEL 4
REMARK VINA RESULT:      -7.9      3.285     10.314
REMARK  Name = 
REMARK  11 active torsions:
REMARK  status: ('A' for Active; 'I' for Inactive)
REMARK    1  A    between atoms: C_1  and  N_2
REMARK    2  A    between atoms: N_2  and  C_3
REMARK    3  A    between atoms: C_3  and  C_4
REMARK    4  A    between atoms: C_4  and  C_5
REMARK    5  A    between atoms: C_5  and  N_6
REMARK    6  A    between atoms: C_7  and  C_9
REMARK    7  A    between atoms: C_14  and  C_15
REMARK    8  A    between atoms: C_15  and  C_16
REMARK    9  A    between atoms: C_16  and  N_17
REMARK   10  A    between atoms: N_17  and  C_18
REMARK   11  A    between atoms: C_25  and  C_26
REMARK                            x       y       z     vdW  Elec       q    Type
REMARK                         _______ _______ _______ _____ _____    ______ ____
ROOT
ATOM      1  C   UNL     1       2.816   6.998  18.402  0.00  0.00    +0.000 A 
ATOM      2  C   UNL     1       2.527   8.023  17.498  0.00  0.00    +0.000 A 
ATOM      3  C   UNL     1       1.841   9.164  17.918  0.00  0.00    +0.000 A 
ATOM      4  C   UNL     1       1.324   9.245  19.213  0.00  0.00    +0.000 A 
ATOM      5  C   UNL     1       0.588  10.363  19.630  0.00  0.00    +0.000 A 
ATOM      6  C   UNL     1      -0.020  10.403  20.893  0.00  0.00    +0.000 A 
ATOM      7  C   UNL     1       0.152   9.306  21.750  0.00  0.00    +0.000 A 
ATOM      8  C   UNL     1       0.919   8.207  21.365  0.00  0.00    +0.000 A 
ATOM      9  C   UNL     1       1.511   8.163  20.100  0.00  0.00    +0.000 A 
ATOM     10  C   UNL     1       2.278   7.062  19.696  0.00  0.00    +0.000 A 
ENDROOT
BRANCH   1  13
ATOM     11  C   UNL     1       4.055   3.485  17.572  0.00  0.00    +0.000 C 
ATOM     12  N   UNL     1       3.091   4.545  17.840  0.00  0.00    +0.000 N 
ATOM     13  C   UNL     1       3.649   5.812  18.067  0.00  0.00    +0.000 C 
ATOM     14  O   UNL     1       4.862   6.006  17.958  0.00  0.00    +0.000 OA
BRANCH  12  15
ATOM     15  C   UNL     1       1.669   4.173  17.803  0.00  0.00    +0.000 C 
BRANCH  15  16
ATOM     16  C   UNL     1       1.340   2.779  18.340  0.00  0.00    +0.000 C 
BRANCH  16  17
ATOM     17  C   UNL     1       1.378   2.774  19.868  0.00  0.00    +0.000 C 
BRANCH  17  18
ATOM     18  N   UNL     1       0.652   3.921  20.396  0.00  0.00    +0.000 NA
ATOM     19  H   UNL     1       0.940   4.101  21.359  0.00  0.00    +0.000 HD
ATOM     20  H   UNL     1      -0.346   3.711  20.433  0.00  0.00    +0.000 HD
ENDBRANCH  17  18
ENDBRANCH  16  17
ENDBRANCH  15  16
ENDBRANCH  12  15
ENDBRANCH   1  13
BRANCH   6  21
ATOM     21  C   UNL     1      -0.848  11.619  21.251  0.00  0.00    +0.000 C 
BRANCH  21  22
ATOM     22  C   UNL     1      -1.096  12.579  20.086  0.00  0.00    +0.000 C 
BRANCH  22  23
ATOM     23  N   UNL     1      -2.143  13.548  20.402  0.00  0.00    +0.000 N 
ATOM     24  H   UNL     1      -2.207  14.270  19.692  0.00  0.00    +0.000 HD
BRANCH  23  25
ATOM     25  C   UNL     1      -3.410  13.030  20.767  0.00  0.00    +0.000 A 
ATOM     26  C   UNL     1      -3.968  13.312  22.020  0.00  0.00    +0.000 A 
ATOM     27  C   UNL     1      -5.255  12.896  22.304  0.00  0.00    +0.000 A 
ATOM     28  N   UNL     1      -6.040  12.258  21.428  0.00  0.00    +0.000 NA
ATOM     29  C   UNL     1      -5.544  12.004  20.211  0.00  0.00    +0.000 A 
ATOM     30  C   UNL     1      -6.383  11.379  19.303  0.00  0.00    +0.000 A 
ATOM     31  C   UNL     1      -5.967  11.051  18.014  0.00  0.00    +0.000 A 
ATOM     32  C   UNL     1      -4.667  11.344  17.617  0.00  0.00    +0.000 A 
ATOM     33  C   UNL     1      -3.806  11.988  18.511  0.00  0.00    +0.000 A 
ATOM     34  C   UNL     1      -4.227  12.350  19.816  0.00  0.00    +0.000 A 
BRANCH  32  35
ATOM     35  C   UNL     1      -4.211  10.987  16.308  0.00  0.00    +0.000 C 
ATOM     36  N   UNL     1      -3.830  10.691  15.250  0.00  0.00    +0.000 NA
ENDBRANCH  32  35
ENDBRANCH  23  25
ENDBRANCH  22  23
ENDBRANCH  21  22
ENDBRANCH   6  21
TORSDOF 10
ENDMDL
MODEL 5
REMARK VINA RESULT:      -7.8      3.056     10.891
REMARK  Name = 
REMARK  11 active torsions:
REMARK  status: ('A' for Active; 'I' for Inactive)
REMARK    1  A    between atoms: C_1  and  N_2
REMARK    2  A    between atoms: N_2  and  C_3
REMARK    3  A    between atoms: C_3  and  C_4
REMARK    4  A    between atoms: C_4  and  C_5
REMARK    5  A    between atoms: C_5  and  N_6
REMARK    6  A    between atoms: C_7  and  C_9
REMARK    7  A    between atoms: C_14  and  C_15
REMARK    8  A    between atoms: C_15  and  C_16
REMARK    9  A    between atoms: C_16  and  N_17
REMARK   10  A    between atoms: N_17  and  C_18
REMARK   11  A    between atoms: C_25  and  C_26
REMARK                            x       y       z     vdW  Elec       q    Type
REMARK                         _______ _______ _______ _____ _____    ______ ____
ROOT
ATOM      1  C   UNL     1       2.406   6.000  18.944  0.00  0.00    +0.000 A 
ATOM      2  C   UNL     1       2.011   6.070  20.281  0.00  0.00    +0.000 A 
ATOM      3  C   UNL     1       1.454   7.242  20.795  0.00  0.00    +0.000 A 
ATOM      4  C   UNL     1       1.399   8.401  20.016  0.00  0.00    +0.000 A 
ATOM      5  C   UNL     1       0.890   9.599  20.538  0.00  0.00    +0.000 A 
ATOM      6  C   UNL     1       0.929  10.788  19.796  0.00  0.00    +0.000 A 
ATOM      7  C   UNL     1       1.461  10.748  18.499  0.00  0.00    +0.000 A 
ATOM      8  C   UNL     1       1.928   9.553  17.951  0.00  0.00    +0.000 A 
ATOM      9  C   UNL     1       1.903   8.373  18.698  0.00  0.00    +0.000 A 
ATOM     10  C   UNL     1       2.377   7.167  18.166  0.00  0.00    +0.000 A 
ENDROOT
BRANCH   1  13
ATOM     11  C   UNL     1       4.515   3.323  17.226  0.00  0.00    +0.000 C 
ATOM     12  N   UNL     1       4.225   4.584  17.897  0.00  0.00    +0.000 N 
ATOM     13  C   UNL     1       2.889   4.755  18.288  0.00  0.00    +0.000 C 
ATOM     14  O   UNL     1       2.058   3.855  18.141  0.00  0.00    +0.000 OA
BRANCH  12  15
ATOM     15  C   UNL     1       5.358   5.495  18.115  0.00  0.00    +0.000 C 
BRANCH  15  16
ATOM     16  C   UNL     1       6.077   5.340  19.456  0.00  0.00    +0.000 C 
BRANCH  16  17
ATOM     17  C   UNL     1       7.534   5.785  19.335  0.00  0.00    +0.000 C 
BRANCH  17  18
ATOM     18  N   UNL     1       8.298   5.332  20.489  0.00  0.00    +0.000 NA
ATOM     19  H   UNL     1       9.091   4.767  20.180  0.00  0.00    +0.000 HD
ATOM     20  H   UNL     1       7.722   4.721  21.067  0.00  0.00    +0.000 HD
ENDBRANCH  17  18
ENDBRANCH  16  17
ENDBRANCH  15  16
ENDBRANCH  12  15
ENDBRANCH   1  13
BRANCH   6  21
ATOM     21  C   UNL     1       0.414  12.055  20.447  0.00  0.00    +0.000 C 
BRANCH  21  22
ATOM     22  C   UNL     1      -1.102  12.093  20.644  0.00  0.00    +0.000 C 
BRANCH  22  23
ATOM     23  N   UNL     1      -1.757  12.899  19.616  0.00  0.00    +0.000 N 
ATOM     24  H   UNL     1      -1.099  13.514  19.151  0.00  0.00    +0.000 HD
BRANCH  23  25
ATOM     25  C   UNL     1      -2.603  12.218  18.706  0.00  0.00    +0.000 A 
ATOM     26  C   UNL     1      -2.086  11.639  17.541  0.00  0.00    +0.000 A 
ATOM     27  C   UNL     1      -2.909  10.877  16.734  0.00  0.00    +0.000 A 
ATOM     28  N   UNL     1      -4.191  10.616  17.015  0.00  0.00    +0.000 NA
ATOM     29  C   UNL     1      -4.703  11.130  18.139  0.00  0.00    +0.000 A 
ATOM     30  C   UNL     1      -6.019  10.818  18.437  0.00  0.00    +0.000 A 
ATOM     31  C   UNL     1      -6.660  11.311  19.572  0.00  0.00    +0.000 A 
ATOM     32  C   UNL     1      -5.972  12.154  20.436  0.00  0.00    +0.000 A 
ATOM     33  C   UNL     1      -4.637  12.473  20.166  0.00  0.00    +0.000 A 
ATOM     34  C   UNL     1      -3.967  11.955  19.027  0.00  0.00    +0.000 A 
BRANCH  32  35
ATOM     35  C   UNL     1      -6.622  12.696  21.590  0.00  0.00    +0.000 C 
ATOM     36  N   UNL     1      -7.141  13.147  22.529  0.00  0.00    +0.000 NA
ENDBRANCH  32  35
ENDBRANCH  23  25
ENDBRANCH  22  23
ENDBRANCH  21  22
ENDBRANCH   6  21
TORSDOF 10
ENDMDL
MODEL 6
REMARK VINA RESULT:      -7.8      3.863     11.616
REMARK  Name = 
REMARK  11 active torsions:
REMARK  status: ('A' for Active; 'I' for Inactive)
REMARK    1  A    between atoms: C_1  and  N_2
REMARK    2  A    between atoms: N_2  and  C_3
REMARK    3  A    between atoms: C_3  and  C_4
REMARK    4  A    between atoms: C_4  and  C_5
REMARK    5  A    between atoms: C_5  and  N_6
REMARK    6  A    between atoms: C_7  and  C_9
REMARK    7  A    between atoms: C_14  and  C_15
REMARK    8  A    between atoms: C_15  and  C_16
REMARK    9  A    between atoms: C_16  and  N_17
REMARK   10  A    between atoms: N_17  and  C_18
REMARK   11  A    between atoms: C_25  and  C_26
REMARK                            x       y       z     vdW  Elec       q    Type
REMARK                         _______ _______ _______ _____ _____    ______ ____
ROOT
ATOM      1  C   UNL     1       3.078   6.604  18.960  0.00  0.00    +0.000 A 
ATOM      2  C   UNL     1       2.987   7.385  17.806  0.00  0.00    +0.000 A 
ATOM      3  C   UNL     1       2.276   8.586  17.819  0.00  0.00    +0.000 A 
ATOM      4  C   UNL     1       1.542   8.964  18.947  0.00  0.00    +0.000 A 
ATOM      5  C   UNL     1       0.782  10.142  18.953  0.00  0.00    +0.000 A 
ATOM      6  C   UNL     1      -0.037  10.472  20.042  0.00  0.00    +0.000 A 
ATOM      7  C   UNL     1      -0.056   9.608  21.148  0.00  0.00    +0.000 A 
ATOM      8  C   UNL     1       0.731   8.457  21.173  0.00  0.00    +0.000 A 
ATOM      9  C   UNL     1       1.535   8.123  20.080  0.00  0.00    +0.000 A 
ATOM     10  C   UNL     1       2.324   6.965  20.086  0.00  0.00    +0.000 A 
ENDROOT
BRANCH   1  13
ATOM     11  C   UNL     1       4.328   3.007  19.218  0.00  0.00    +0.000 C 
ATOM     12  N   UNL     1       3.366   4.090  19.058  0.00  0.00    +0.000 N 
ATOM     13  C   UNL     1       3.918   5.380  19.065  0.00  0.00    +0.000 C 
ATOM     14  O   UNL     1       5.138   5.555  19.118  0.00  0.00    +0.000 OA
BRANCH  12  15
ATOM     15  C   UNL     1       1.959   3.707  18.872  0.00  0.00    +0.000 C 
BRANCH  15  16
ATOM     16  C   UNL     1       1.479   2.535  19.730  0.00  0.00    +0.000 C 
BRANCH  16  17
ATOM     17  C   UNL     1       1.105   3.017  21.132  0.00  0.00    +0.000 C 
BRANCH  17  18
ATOM     18  N   UNL     1       2.101   2.576  22.100  0.00  0.00    +0.000 NA
ATOM     19  H   UNL     1       1.641   2.097  22.876  0.00  0.00    +0.000 HD
ATOM     20  H   UNL     1       2.572   3.385  22.504  0.00  0.00    +0.000 HD
ENDBRANCH  17  18
ENDBRANCH  16  17
ENDBRANCH  15  16
ENDBRANCH  12  15
ENDBRANCH   1  13
BRANCH   6  21
ATOM     21  C   UNL     1      -0.875  11.730  19.954  0.00  0.00    +0.000 C 
BRANCH  21  22
ATOM     22  C   UNL     1      -2.181  11.565  19.176  0.00  0.00    +0.000 C 
BRANCH  22  23
ATOM     23  N   UNL     1      -3.024  12.754  19.284  0.00  0.00    +0.000 N 
ATOM     24  H   UNL     1      -2.902  13.369  18.487  0.00  0.00    +0.000 HD
BRANCH  23  25
ATOM     25  C   UNL     1      -4.388  12.547  19.607  0.00  0.00    +0.000 A 
ATOM     26  C   UNL     1      -5.270  11.981  18.678  0.00  0.00    +0.000 A 
ATOM     27  C   UNL     1      -6.563  11.678  19.060  0.00  0.00    +0.000 A 
ATOM     28  N   UNL     1      -7.034  11.860  20.300  0.00  0.00    +0.000 NA
ATOM     29  C   UNL     1      -6.203  12.369  21.217  0.00  0.00    +0.000 A 
ATOM     30  C   UNL     1      -6.693  12.513  22.504  0.00  0.00    +0.000 A 
ATOM     31  C   UNL     1      -5.922  13.048  23.535  0.00  0.00    +0.000 A 
ATOM     32  C   UNL     1      -4.623  13.466  23.274  0.00  0.00    +0.000 A 
ATOM     33  C   UNL     1      -4.100  13.318  21.985  0.00  0.00    +0.000 A 
ATOM     34  C   UNL     1      -4.867  12.751  20.935  0.00  0.00    +0.000 A 
BRANCH  32  35
ATOM     35  C   UNL     1      -3.826  14.048  24.312  0.00  0.00    +0.000 C 
ATOM     36  N   UNL     1      -3.171  14.509  25.155  0.00  0.00    +0.000 NA
ENDBRANCH  32  35
ENDBRANCH  23  25
ENDBRANCH  22  23
ENDBRANCH  21  22
ENDBRANCH   6  21
TORSDOF 10
ENDMDL
MODEL 7
REMARK VINA RESULT:      -7.7      3.725     11.349
REMARK  Name = 
REMARK  11 active torsions:
REMARK  status: ('A' for Active; 'I' for Inactive)
REMARK    1  A    between atoms: C_1  and  N_2
REMARK    2  A    between atoms: N_2  and  C_3
REMARK    3  A    between atoms: C_3  and  C_4
REMARK    4  A    between atoms: C_4  and  C_5
REMARK    5  A    between atoms: C_5  and  N_6
REMARK    6  A    between atoms: C_7  and  C_9
REMARK    7  A    between atoms: C_14  and  C_15
REMARK    8  A    between atoms: C_15  and  C_16
REMARK    9  A    between atoms: C_16  and  N_17
REMARK   10  A    between atoms: N_17  and  C_18
REMARK   11  A    between atoms: C_25  and  C_26
REMARK                            x       y       z     vdW  Elec       q    Type
REMARK                         _______ _______ _______ _____ _____    ______ ____
ROOT
ATOM      1  C   UNL     1       2.710   6.570  18.977  0.00  0.00    +0.000 A 
ATOM      2  C   UNL     1       2.235   6.490  20.287  0.00  0.00    +0.000 A 
ATOM      3  C   UNL     1       1.454   7.516  20.821  0.00  0.00    +0.000 A 
ATOM      4  C   UNL     1       1.240   8.694  20.099  0.00  0.00    +0.000 A 
ATOM      5  C   UNL     1       0.501   9.753  20.646  0.00  0.00    +0.000 A 
ATOM      6  C   UNL     1       0.371  10.973  19.968  0.00  0.00    +0.000 A 
ATOM      7  C   UNL     1       0.973  11.103  18.707  0.00  0.00    +0.000 A 
ATOM      8  C   UNL     1       1.671  10.041  18.133  0.00  0.00    +0.000 A 
ATOM      9  C   UNL     1       1.812   8.831  18.817  0.00  0.00    +0.000 A 
ATOM     10  C   UNL     1       2.519   7.759  18.257  0.00  0.00    +0.000 A 
ENDROOT
BRANCH   1  13
ATOM     11  C   UNL     1       3.670   3.294  17.272  0.00  0.00    +0.000 C 
ATOM     12  N   UNL     1       2.797   4.289  17.883  0.00  0.00    +0.000 N 
ATOM     13  C   UNL     1       3.438   5.468  18.293  0.00  0.00    +0.000 C 
ATOM     14  O   UNL     1       4.635   5.660  18.065  0.00  0.00    +0.000 OA
BRANCH  12  15
ATOM     15  C   UNL     1       1.367   3.959  17.961  0.00  0.00    +0.000 C 
BRANCH  15  16
ATOM     16  C   UNL     1       1.026   2.696  18.752  0.00  0.00    +0.000 C 
BRANCH  16  17
ATOM     17  C   UNL     1       1.797   2.668  20.072  0.00  0.00    +0.000 C 
BRANCH  17  18
ATOM     18  N   UNL     1       0.910   2.992  21.182  0.00  0.00    +0.000 NA
ATOM     19  H   UNL     1      -0.063   2.907  20.884  0.00  0.00    +0.000 HD
ATOM     20  H   UNL     1       1.039   3.966  21.455  0.00  0.00    +0.000 HD
ENDBRANCH  17  18
ENDBRANCH  16  17
ENDBRANCH  15  16
ENDBRANCH  12  15
ENDBRANCH   1  13
BRANCH   6  21
ATOM     21  C   UNL     1      -0.392  12.092  20.646  0.00  0.00    +0.000 C 
BRANCH  21  22
ATOM     22  C   UNL     1      -1.828  11.732  21.032  0.00  0.00    +0.000 C 
BRANCH  22  23
ATOM     23  N   UNL     1      -2.782  12.721  20.534  0.00  0.00    +0.000 N 
ATOM     24  H   UNL     1      -2.311  13.550  20.188  0.00  0.00    +0.000 HD
BRANCH  23  25
ATOM     25  C   UNL     1      -3.786  12.257  19.649  0.00  0.00    +0.000 A 
ATOM     26  C   UNL     1      -3.462  11.822  18.358  0.00  0.00    +0.000 A 
ATOM     27  C   UNL     1      -4.441  11.261  17.560  0.00  0.00    +0.000 A 
ATOM     28  N   UNL     1      -5.703  11.064  17.960  0.00  0.00    +0.000 NA
ATOM     29  C   UNL     1      -6.033  11.440  19.201  0.00  0.00    +0.000 A 
ATOM     30  C   UNL     1      -7.332  11.192  19.614  0.00  0.00    +0.000 A 
ATOM     31  C   UNL     1      -7.790  11.556  20.879  0.00  0.00    +0.000 A 
ATOM     32  C   UNL     1      -6.930  12.200  21.760  0.00  0.00    +0.000 A 
ATOM     33  C   UNL     1      -5.610  12.448  21.373  0.00  0.00    +0.000 A 
ATOM     34  C   UNL     1      -5.125  12.058  20.098  0.00  0.00    +0.000 A 
BRANCH  32  35
ATOM     35  C   UNL     1      -7.390  12.610  23.052  0.00  0.00    +0.000 C 
ATOM     36  N   UNL     1      -7.757  12.933  24.108  0.00  0.00    +0.000 NA
ENDBRANCH  32  35
ENDBRANCH  23  25
ENDBRANCH  22  23
ENDBRANCH  21  22
ENDBRANCH   6  21
TORSDOF 10
ENDMDL
MODEL 8
REMARK VINA RESULT:      -7.7      3.887     10.987
REMARK  Name = 
REMARK  11 active torsions:
REMARK  status: ('A' for Active; 'I' for Inactive)
REMARK    1  A    between atoms: C_1  and  N_2
REMARK    2  A    between atoms: N_2  and  C_3
REMARK    3  A    between atoms: C_3  and  C_4
REMARK    4  A    between atoms: C_4  and  C_5
REMARK    5  A    between atoms: C_5  and  N_6
REMARK    6  A    between atoms: C_7  and  C_9
REMARK    7  A    between atoms: C_14  and  C_15
REMARK    8  A    between atoms: C_15  and  C_16
REMARK    9  A    between atoms: C_16  and  N_17
REMARK   10  A    between atoms: N_17  and  C_18
REMARK   11  A    between atoms: C_25  and  C_26
REMARK                            x       y       z     vdW  Elec       q    Type
REMARK                         _______ _______ _______ _____ _____    ______ ____
ROOT
ATOM      1  C   UNL     1       1.907   8.117  19.361  0.00  0.00    +0.000 A 
ATOM      2  C   UNL     1       1.513   9.214  18.593  0.00  0.00    +0.000 A 
ATOM      3  C   UNL     1       0.868  10.299  19.187  0.00  0.00    +0.000 A 
ATOM      4  C   UNL     1       0.494  10.252  20.533  0.00  0.00    +0.000 A 
ATOM      5  C   UNL     1      -0.202  11.314  21.128  0.00  0.00    +0.000 A 
ATOM      6  C   UNL     1      -0.669  11.227  22.447  0.00  0.00    +0.000 A 
ATOM      7  C   UNL     1      -0.397  10.060  23.175  0.00  0.00    +0.000 A 
ATOM      8  C   UNL     1       0.334   9.015  22.610  0.00  0.00    +0.000 A 
ATOM      9  C   UNL     1       0.785   9.097  21.290  0.00  0.00    +0.000 A 
ATOM     10  C   UNL     1       1.512   8.052  20.705  0.00  0.00    +0.000 A 
ENDROOT
BRANCH   1  13
ATOM     11  C   UNL     1       3.514   4.708  18.761  0.00  0.00    +0.000 C 
ATOM     12  N   UNL     1       2.624   5.689  19.369  0.00  0.00    +0.000 N 
ATOM     13  C   UNL     1       2.709   6.981  18.830  0.00  0.00    +0.000 C 
ATOM     14  O   UNL     1       3.428   7.225  17.858  0.00  0.00    +0.000 OA
BRANCH  12  15
ATOM     15  C   UNL     1       1.730   5.205  20.431  0.00  0.00    +0.000 C 
BRANCH  15  16
ATOM     16  C   UNL     1       0.960   3.923  20.108  0.00  0.00    +0.000 C 
BRANCH  16  17
ATOM     17  C   UNL     1       1.207   2.867  21.185  0.00  0.00    +0.000 C 
BRANCH  17  18
ATOM     18  N   UNL     1       2.335   3.253  22.022  0.00  0.00    +0.000 NA
ATOM     19  H   UNL     1       3.211   3.052  21.536  0.00  0.00    +0.000 HD
ATOM     20  H   UNL     1       2.345   2.688  22.871  0.00  0.00    +0.000 HD
ENDBRANCH  17  18
ENDBRANCH  16  17
ENDBRANCH  15  16
ENDBRANCH  12  15
ENDBRANCH   1  13
BRANCH   6  21
ATOM     21  C   UNL     1      -1.464  12.390  23.003  0.00  0.00    +0.000 C 
BRANCH  21  22
ATOM     22  C   UNL     1      -2.980  12.233  22.884  0.00  0.00    +0.000 C 
BRANCH  22  23
ATOM     23  N   UNL     1      -3.473  12.729  21.600  0.00  0.00    +0.000 N 
ATOM     24  H   UNL     1      -2.974  12.309  20.824  0.00  0.00    +0.000 HD
BRANCH  23  25
ATOM     25  C   UNL     1      -4.877  12.731  21.408  0.00  0.00    +0.000 A 
ATOM     26  C   UNL     1      -5.741  13.155  22.426  0.00  0.00    +0.000 A 
ATOM     27  C   UNL     1      -7.094  13.263  22.171  0.00  0.00    +0.000 A 
ATOM     28  N   UNL     1      -7.648  13.020  20.976  0.00  0.00    +0.000 NA
ATOM     29  C   UNL     1      -6.841  12.645  19.977  0.00  0.00    +0.000 A 
ATOM     30  C   UNL     1      -7.423  12.437  18.737  0.00  0.00    +0.000 A 
ATOM     31  C   UNL     1      -6.682  12.028  17.630  0.00  0.00    +0.000 A 
ATOM     32  C   UNL     1      -5.317  11.806  17.762  0.00  0.00    +0.000 A 
ATOM     33  C   UNL     1      -4.703  12.024  18.999  0.00  0.00    +0.000 A 
ATOM     34  C   UNL     1      -5.443  12.466  20.126  0.00  0.00    +0.000 A 
BRANCH  32  35
ATOM     35  C   UNL     1      -4.544  11.356  16.644  0.00  0.00    +0.000 C 
ATOM     36  N   UNL     1      -3.907  10.984  15.745  0.00  0.00    +0.000 NA
ENDBRANCH  32  35
ENDBRANCH  23  25
ENDBRANCH  22  23
ENDBRANCH  21  22
ENDBRANCH   6  21
TORSDOF 10
ENDMDL
MODEL 9
REMARK VINA RESULT:      -7.7      3.372     10.332
REMARK  Name = 
REMARK  11 active torsions:
REMARK  status: ('A' for Active; 'I' for Inactive)
REMARK    1  A    between atoms: C_1  and  N_2
REMARK    2  A    between atoms: N_2  and  C_3
REMARK    3  A    between atoms: C_3  and  C_4
REMARK    4  A    between atoms: C_4  and  C_5
REMARK    5  A    between atoms: C_5  and  N_6
REMARK    6  A    between atoms: C_7  and  C_9
REMARK    7  A    between atoms: C_14  and  C_15
REMARK    8  A    between atoms: C_15  and  C_16
REMARK    9  A    between atoms: C_16  and  N_17
REMARK   10  A    between atoms: N_17  and  C_18
REMARK   11  A    between atoms: C_25  and  C_26
REMARK                            x       y       z     vdW  Elec       q    Type
REMARK                         _______ _______ _______ _____ _____    ______ ____
ROOT
ATOM      1  C   UNL     1       3.833   5.147  18.608  0.00  0.00    +0.000 A 
ATOM      2  C   UNL     1       3.984   5.772  17.368  0.00  0.00    +0.000 A 
ATOM      3  C   UNL     1       3.515   7.071  17.168  0.00  0.00    +0.000 A 
ATOM      4  C   UNL     1       2.777   7.720  18.162  0.00  0.00    +0.000 A 
ATOM      5  C   UNL     1       2.256   9.005  17.953  0.00  0.00    +0.000 A 
ATOM      6  C   UNL     1       1.429   9.616  18.906  0.00  0.00    +0.000 A 
ATOM      7  C   UNL     1       1.158   8.924  20.096  0.00  0.00    +0.000 A 
ATOM      8  C   UNL     1       1.709   7.665  20.336  0.00  0.00    +0.000 A 
ATOM      9  C   UNL     1       2.520   7.052  19.378  0.00  0.00    +0.000 A 
ATOM     10  C   UNL     1       3.072   5.783  19.600  0.00  0.00    +0.000 A 
ENDROOT
BRANCH   1  13
ATOM     11  C   UNL     1       4.477   1.408  19.015  0.00  0.00    +0.000 C 
ATOM     12  N   UNL     1       3.797   2.616  18.566  0.00  0.00    +0.000 N 
ATOM     13  C   UNL     1       4.414   3.819  18.940  0.00  0.00    +0.000 C 
ATOM     14  O   UNL     1       5.497   3.826  19.531  0.00  0.00    +0.000 OA
BRANCH  12  15
ATOM     15  C   UNL     1       2.584   2.433  17.754  0.00  0.00    +0.000 C 
BRANCH  15  16
ATOM     16  C   UNL     1       1.286   2.931  18.392  0.00  0.00    +0.000 C 
BRANCH  16  17
ATOM     17  C   UNL     1       1.132   2.363  19.803  0.00  0.00    +0.000 C 
BRANCH  17  18
ATOM     18  N   UNL     1       0.834   3.431  20.747  0.00  0.00    +0.000 NA
ATOM     19  H   UNL     1       1.300   3.247  21.637  0.00  0.00    +0.000 HD
ATOM     20  H   UNL     1      -0.166   3.446  20.948  0.00  0.00    +0.000 HD
ENDBRANCH  17  18
ENDBRANCH  16  17
ENDBRANCH  15  16
ENDBRANCH  12  15
ENDBRANCH   1  13
BRANCH   6  21
ATOM     21  C   UNL     1       0.855  10.981  18.586  0.00  0.00    +0.000 C 
BRANCH  21  22
ATOM     22  C   UNL     1      -0.240  11.445  19.547  0.00  0.00    +0.000 C 
BRANCH  22  23
ATOM     23  N   UNL     1      -1.452  10.640  19.411  0.00  0.00    +0.000 N 
ATOM     24  H   UNL     1      -2.016  10.673  20.253  0.00  0.00    +0.000 HD
BRANCH  23  25
ATOM     25  C   UNL     1      -2.219  10.827  18.234  0.00  0.00    +0.000 A 
ATOM     26  C   UNL     1      -1.845  10.219  17.029  0.00  0.00    +0.000 A 
ATOM     27  C   UNL     1      -2.675  10.318  15.928  0.00  0.00    +0.000 A 
ATOM     28  N   UNL     1      -3.861  10.940  15.945  0.00  0.00    +0.000 NA
ATOM     29  C   UNL     1      -4.258  11.502  17.092  0.00  0.00    +0.000 A 
ATOM     30  C   UNL     1      -5.504  12.106  17.104  0.00  0.00    +0.000 A 
ATOM     31  C   UNL     1      -6.012  12.737  18.238  0.00  0.00    +0.000 A 
ATOM     32  C   UNL     1      -5.248  12.780  19.398  0.00  0.00    +0.000 A 
ATOM     33  C   UNL     1      -3.993  12.164  19.417  0.00  0.00    +0.000 A 
ATOM     34  C   UNL     1      -3.478  11.497  18.276  0.00  0.00    +0.000 A 
BRANCH  32  35
ATOM     35  C   UNL     1      -5.738  13.450  20.564  0.00  0.00    +0.000 C 
ATOM     36  N   UNL     1      -6.124  13.994  21.517  0.00  0.00    +0.000 NA
ENDBRANCH  32  35
ENDBRANCH  23  25
ENDBRANCH  22  23
ENDBRANCH  21  22
ENDBRANCH   6  21
TORSDOF 10
ENDMDL
