MODEL 1
REMARK VINA RESULT:      -6.4      0.000      0.000
REMARK  Name = 
REMARK  5 active torsions:
REMARK  status: ('A' for Active; 'I' for Inactive)
REMARK    1  A    between atoms: C_4  and  C_5
REMARK    2  A    between atoms: C_5  and  O_6
REMARK    3  A    between atoms: C_8  and  C_9
REMARK    4  A    between atoms: C_9  and  N_10
REMARK    5  A    between atoms: C_15  and  O_16
REMARK                            x       y       z     vdW  Elec       q    Type
REMARK                         _______ _______ _______ _____ _____    ______ ____
ROOT
ATOM      1  O   UNL     1       6.403   3.960  15.463  0.00  0.00    +0.000 OA
ATOM      2  C   UNL     1       6.254   4.299  16.631  0.00  0.00    +0.000 A 
ATOM      3  C   UNL     1       7.391   4.855  17.384  0.00  0.00    +0.000 A 
ATOM      4  C   UNL     1       7.233   5.155  18.678  0.00  0.00    +0.000 A 
ATOM      5  O   UNL     1       6.036   4.970  19.347  0.00  0.00    +0.000 OA
ATOM      6  C   UNL     1       4.900   4.581  18.640  0.00  0.00    +0.000 A 
ATOM      7  C   UNL     1       4.942   4.218  17.340  0.00  0.00    +0.000 A 
ENDROOT
BRANCH   7   8
ATOM      8  O   UNL     1       3.850   3.824  16.590  0.00  0.00    +0.000 OA
ATOM      9  H   UNL     1       3.350   4.594  16.280  0.00  0.00    +0.000 HD
ENDBRANCH   7   8
BRANCH   4  10
ATOM     10  C   UNL     1       8.322   5.766  19.507  0.00  0.00    +0.000 C 
BRANCH  10  11
ATOM     11  O   UNL     1       8.185   5.374  20.864  0.00  0.00    +0.000 OA
ATOM     12  H   UNL     1       7.999   4.420  20.866  0.00  0.00    +0.000 HD
ENDBRANCH  10  11
ENDBRANCH   4  10
BRANCH   6  13
ATOM     13  C   UNL     1       3.655   4.582  19.500  0.00  0.00    +0.000 C 
BRANCH  13  14
ATOM     14  N   UNL     1       2.885   3.335  19.594  0.00  0.00    +0.000 NA
ATOM     15  C   UNL     1       1.482   3.427  19.184  0.00  0.00    +0.000 C 
ATOM     16  C   UNL     1       0.694   3.642  20.463  0.00  0.00    +0.000 C 
ATOM     17  C   UNL     1       1.497   2.907  21.519  0.00  0.00    +0.000 C 
ATOM     18  C   UNL     1       2.890   2.716  20.922  0.00  0.00    +0.000 C 
ENDBRANCH  13  14
ENDBRANCH   6  13
TORSDOF 5
ENDMDL
MODEL 2
REMARK VINA RESULT:      -6.4      1.409      3.242
REMARK  Name = 
REMARK  5 active torsions:
REMARK  status: ('A' for Active; 'I' for Inactive)
REMARK    1  A    between atoms: C_4  and  C_5
REMARK    2  A    between atoms: C_5  and  O_6
REMARK    3  A    between atoms: C_8  and  C_9
REMARK    4  A    between atoms: C_9  and  N_10
REMARK    5  A    between atoms: C_15  and  O_16
REMARK                            x       y       z     vdW  Elec       q    Type
REMARK                         _______ _______ _______ _____ _____    ______ ____
ROOT
ATOM      1  O   UNL     1       8.268   4.532  18.127  0.00  0.00    +0.000 OA
ATOM      2  C   UNL     1       7.165   4.545  17.593  0.00  0.00    +0.000 A 
ATOM      3  C   UNL     1       7.057   4.410  16.131  0.00  0.00    +0.000 A 
ATOM      4  C   UNL     1       5.854   4.497  15.554  0.00  0.00    +0.000 A 
ATOM      5  O   UNL     1       4.692   4.704  16.277  0.00  0.00    +0.000 OA
ATOM      6  C   UNL     1       4.733   4.695  17.670  0.00  0.00    +0.000 A 
ATOM      7  C   UNL     1       5.890   4.649  18.364  0.00  0.00    +0.000 A 
ENDROOT
BRANCH   7   8
ATOM      8  O   UNL     1       5.990   4.638  19.743  0.00  0.00    +0.000 OA
ATOM      9  H   UNL     1       6.750   4.109  20.027  0.00  0.00    +0.000 HD
ENDBRANCH   7   8
BRANCH   4  10
ATOM     10  C   UNL     1       5.647   4.327  14.080  0.00  0.00    +0.000 C 
BRANCH  10  11
ATOM     11  O   UNL     1       6.383   3.209  13.606  0.00  0.00    +0.000 OA
ATOM     12  H   UNL     1       6.179   2.464  14.197  0.00  0.00    +0.000 HD
ENDBRANCH  10  11
ENDBRANCH   4  10
BRANCH   6  13
ATOM     13  C   UNL     1       3.354   4.778  18.290  0.00  0.00    +0.000 C 
BRANCH  13  14
ATOM     14  N   UNL     1       3.063   3.909  19.437  0.00  0.00    +0.000 NA
ATOM     15  C   UNL     1       2.490   2.602  19.110  0.00  0.00    +0.000 C 
ATOM     16  C   UNL     1       0.988   2.765  19.253  0.00  0.00    +0.000 C 
ATOM     17  C   UNL     1       0.834   3.804  20.348  0.00  0.00    +0.000 C 
ATOM     18  C   UNL     1       2.186   4.506  20.446  0.00  0.00    +0.000 C 
ENDBRANCH  13  14
ENDBRANCH   6  13
TORSDOF 5
ENDMDL
MODEL 3
REMARK VINA RESULT:      -6.3      0.940      1.074
REMARK  Name = 
REMARK  5 active torsions:
REMARK  status: ('A' for Active; 'I' for Inactive)
REMARK    1  A    between atoms: C_4  and  C_5
REMARK    2  A    between atoms: C_5  and  O_6
REMARK    3  A    between atoms: C_8  and  C_9
REMARK    4  A    between atoms: C_9  and  N_10
REMARK    5  A    between atoms: C_15  and  O_16
REMARK                            x       y       z     vdW  Elec       q    Type
REMARK                         _______ _______ _______ _____ _____    ______ ____
ROOT
ATOM      1  O   UNL     1       6.332   5.508  15.180  0.00  0.00    +0.000 OA
ATOM      2  C   UNL     1       6.270   5.270  16.381  0.00  0.00    +0.000 A 
ATOM      3  C   UNL     1       7.280   5.832  17.294  0.00  0.00    +0.000 A 
ATOM      4  C   UNL     1       7.241   5.506  18.590  0.00  0.00    +0.000 A 
ATOM      5  O   UNL     1       6.281   4.662  19.121  0.00  0.00    +0.000 OA
ATOM      6  C   UNL     1       5.227   4.223  18.322  0.00  0.00    +0.000 A 
ATOM      7  C   UNL     1       5.176   4.457  16.993  0.00  0.00    +0.000 A 
ENDROOT
BRANCH   7   8
ATOM      8  O   UNL     1       4.157   4.047  16.153  0.00  0.00    +0.000 OA
ATOM      9  H   UNL     1       4.196   4.521  15.309  0.00  0.00    +0.000 HD
ENDBRANCH   7   8
BRANCH   4  10
ATOM     10  C   UNL     1       8.201   6.067  19.595  0.00  0.00    +0.000 C 
BRANCH  10  11
ATOM     11  O   UNL     1       8.213   5.263  20.765  0.00  0.00    +0.000 OA
ATOM     12  H   UNL     1       8.837   4.535  20.602  0.00  0.00    +0.000 HD
ENDBRANCH  10  11
ENDBRANCH   4  10
BRANCH   6  13
ATOM     13  C   UNL     1       4.195   3.441  19.104  0.00  0.00    +0.000 C 
BRANCH  13  14
ATOM     14  N   UNL     1       2.777   3.698  18.819  0.00  0.00    +0.000 NA
ATOM     15  C   UNL     1       2.273   5.004  19.249  0.00  0.00    +0.000 C 
ATOM     16  C   UNL     1       1.634   4.769  20.605  0.00  0.00    +0.000 C 
ATOM     17  C   UNL     1       1.111   3.347  20.525  0.00  0.00    +0.000 C 
ATOM     18  C   UNL     1       1.856   2.697  19.362  0.00  0.00    +0.000 C 
ENDBRANCH  13  14
ENDBRANCH   6  13
TORSDOF 5
ENDMDL
MODEL 4
REMARK VINA RESULT:      -6.2      0.987      1.345
REMARK  Name = 
REMARK  5 active torsions:
REMARK  status: ('A' for Active; 'I' for Inactive)
REMARK    1  A    between atoms: C_4  and  C_5
REMARK    2  A    between atoms: C_5  and  O_6
REMARK    3  A    between atoms: C_8  and  C_9
REMARK    4  A    between atoms: C_9  and  N_10
REMARK    5  A    between atoms: C_15  and  O_16
REMARK                            x       y       z     vdW  Elec       q    Type
REMARK                         _______ _______ _______ _____ _____    ______ ____
ROOT
ATOM      1  O   UNL     1       5.155   4.556  15.386  0.00  0.00    +0.000 OA
ATOM      2  C   UNL     1       5.360   4.477  16.592  0.00  0.00    +0.000 A 
ATOM      3  C   UNL     1       6.465   5.239  17.199  0.00  0.00    +0.000 A 
ATOM      4  C   UNL     1       6.722   5.089  18.503  0.00  0.00    +0.000 A 
ATOM      5  O   UNL     1       5.986   4.247  19.319  0.00  0.00    +0.000 OA
ATOM      6  C   UNL     1       4.847   3.620  18.817  0.00  0.00    +0.000 A 
ATOM      7  C   UNL     1       4.506   3.667  17.511  0.00  0.00    +0.000 A 
ENDROOT
BRANCH   7   8
ATOM      8  O   UNL     1       3.391   3.064  16.959  0.00  0.00    +0.000 OA
ATOM      9  H   UNL     1       3.168   3.470  16.108  0.00  0.00    +0.000 HD
ENDBRANCH   7   8
BRANCH   4  10
ATOM     10  C   UNL     1       7.796   5.858  19.210  0.00  0.00    +0.000 C 
BRANCH  10  11
ATOM     11  O   UNL     1       7.948   5.382  20.539  0.00  0.00    +0.000 OA
ATOM     12  H   UNL     1       7.221   4.756  20.701  0.00  0.00    +0.000 HD
ENDBRANCH  10  11
ENDBRANCH   4  10
BRANCH   6  13
ATOM     13  C   UNL     1       4.083   2.867  19.885  0.00  0.00    +0.000 C 
BRANCH  13  14
ATOM     14  N   UNL     1       3.268   3.648  20.824  0.00  0.00    +0.000 NA
ATOM     15  C   UNL     1       2.336   2.873  21.646  0.00  0.00    +0.000 C 
ATOM     16  C   UNL     1       1.003   2.935  20.925  0.00  0.00    +0.000 C 
ATOM     17  C   UNL     1       1.018   4.288  20.239  0.00  0.00    +0.000 C 
ATOM     18  C   UNL     1       2.483   4.719  20.205  0.00  0.00    +0.000 C 
ENDBRANCH  13  14
ENDBRANCH   6  13
TORSDOF 5
ENDMDL
MODEL 5
REMARK VINA RESULT:      -6.2      1.561      3.152
REMARK  Name = 
REMARK  5 active torsions:
REMARK  status: ('A' for Active; 'I' for Inactive)
REMARK    1  A    between atoms: C_4  and  C_5
REMARK    2  A    between atoms: C_5  and  O_6
REMARK    3  A    between atoms: C_8  and  C_9
REMARK    4  A    between atoms: C_9  and  N_10
REMARK    5  A    between atoms: C_15  and  O_16
REMARK                            x       y       z     vdW  Elec       q    Type
REMARK                         _______ _______ _______ _____ _____    ______ ____
ROOT
ATOM      1  O   UNL     1       6.965   5.372  19.922  0.00  0.00    +0.000 OA
ATOM      2  C   UNL     1       6.280   5.171  18.926  0.00  0.00    +0.000 A 
ATOM      3  C   UNL     1       6.929   4.880  17.636  0.00  0.00    +0.000 A 
ATOM      4  C   UNL     1       6.173   4.733  16.543  0.00  0.00    +0.000 A 
ATOM      5  O   UNL     1       4.793   4.835  16.569  0.00  0.00    +0.000 OA
ATOM      6  C   UNL     1       4.132   4.967  17.789  0.00  0.00    +0.000 A 
ATOM      7  C   UNL     1       4.786   5.160  18.954  0.00  0.00    +0.000 A 
ENDROOT
BRANCH   7   8
ATOM      8  O   UNL     1       4.184   5.298  20.191  0.00  0.00    +0.000 OA
ATOM      9  H   UNL     1       3.232   5.448  20.094  0.00  0.00    +0.000 HD
ENDBRANCH   7   8
BRANCH   4  10
ATOM     10  C   UNL     1       6.747   4.392  15.201  0.00  0.00    +0.000 C 
BRANCH  10  11
ATOM     11  O   UNL     1       7.644   5.407  14.778  0.00  0.00    +0.000 OA
ATOM     12  H   UNL     1       7.296   6.251  15.112  0.00  0.00    +0.000 HD
ENDBRANCH  10  11
ENDBRANCH   4  10
BRANCH   6  13
ATOM     13  C   UNL     1       2.627   4.906  17.640  0.00  0.00    +0.000 C 
BRANCH  13  14
ATOM     14  N   UNL     1       1.992   3.583  17.623  0.00  0.00    +0.000 NA
ATOM     15  C   UNL     1       1.103   3.295  18.750  0.00  0.00    +0.000 C 
ATOM     16  C   UNL     1       1.946   2.530  19.753  0.00  0.00    +0.000 C 
ATOM     17  C   UNL     1       2.936   1.765  18.895  0.00  0.00    +0.000 C 
ATOM     18  C   UNL     1       2.928   2.459  17.535  0.00  0.00    +0.000 C 
ENDBRANCH  13  14
ENDBRANCH   6  13
TORSDOF 5
ENDMDL
MODEL 6
REMARK VINA RESULT:      -6.2      1.531      3.108
REMARK  Name = 
REMARK  5 active torsions:
REMARK  status: ('A' for Active; 'I' for Inactive)
REMARK    1  A    between atoms: C_4  and  C_5
REMARK    2  A    between atoms: C_5  and  O_6
REMARK    3  A    between atoms: C_8  and  C_9
REMARK    4  A    between atoms: C_9  and  N_10
REMARK    5  A    between atoms: C_15  and  O_16
REMARK                            x       y       z     vdW  Elec       q    Type
REMARK                         _______ _______ _______ _____ _____    ______ ____
ROOT
ATOM      1  O   UNL     1       6.756   5.101  19.724  0.00  0.00    +0.000 OA
ATOM      2  C   UNL     1       6.117   4.716  18.752  0.00  0.00    +0.000 A 
ATOM      3  C   UNL     1       6.489   5.171  17.401  0.00  0.00    +0.000 A 
ATOM      4  C   UNL     1       5.740   4.800  16.358  0.00  0.00    +0.000 A 
ATOM      5  O   UNL     1       4.622   3.994  16.488  0.00  0.00    +0.000 OA
ATOM      6  C   UNL     1       4.319   3.427  17.725  0.00  0.00    +0.000 A 
ATOM      7  C   UNL     1       4.979   3.753  18.856  0.00  0.00    +0.000 A 
ENDROOT
BRANCH   7   8
ATOM      8  O   UNL     1       4.722   3.223  20.107  0.00  0.00    +0.000 OA
ATOM      9  H   UNL     1       4.145   3.810  20.616  0.00  0.00    +0.000 HD
ENDBRANCH   7   8
BRANCH   4  10
ATOM     10  C   UNL     1       6.071   5.181  14.947  0.00  0.00    +0.000 C 
BRANCH  10  11
ATOM     11  O   UNL     1       7.462   5.432  14.819  0.00  0.00    +0.000 OA
ATOM     12  H   UNL     1       7.894   5.039  15.596  0.00  0.00    +0.000 HD
ENDBRANCH  10  11
ENDBRANCH   4  10
BRANCH   6  13
ATOM     13  C   UNL     1       3.162   2.454  17.647  0.00  0.00    +0.000 C 
BRANCH  13  14
ATOM     14  N   UNL     1       1.802   2.992  17.781  0.00  0.00    +0.000 NA
ATOM     15  C   UNL     1       1.716   4.413  18.124  0.00  0.00    +0.000 C 
ATOM     16  C   UNL     1       1.546   4.461  19.631  0.00  0.00    +0.000 C 
ATOM     17  C   UNL     1       0.783   3.191  19.956  0.00  0.00    +0.000 C 
ATOM     18  C   UNL     1       0.958   2.280  18.744  0.00  0.00    +0.000 C 
ENDBRANCH  13  14
ENDBRANCH   6  13
TORSDOF 5
ENDMDL
MODEL 7
REMARK VINA RESULT:      -6.1      0.748      1.110
REMARK  Name = 
REMARK  5 active torsions:
REMARK  status: ('A' for Active; 'I' for Inactive)
REMARK    1  A    between atoms: C_4  and  C_5
REMARK    2  A    between atoms: C_5  and  O_6
REMARK    3  A    between atoms: C_8  and  C_9
REMARK    4  A    between atoms: C_9  and  N_10
REMARK    5  A    between atoms: C_15  and  O_16
REMARK                            x       y       z     vdW  Elec       q    Type
REMARK                         _______ _______ _______ _____ _____    ______ ____
ROOT
ATOM      1  O   UNL     1       6.062   3.589  15.639  0.00  0.00    +0.000 OA
ATOM      2  C   UNL     1       5.922   4.162  16.713  0.00  0.00    +0.000 A 
ATOM      3  C   UNL     1       7.095   4.721  17.405  0.00  0.00    +0.000 A 
ATOM      4  C   UNL     1       6.938   5.281  18.609  0.00  0.00    +0.000 A 
ATOM      5  O   UNL     1       5.709   5.365  19.240  0.00  0.00    +0.000 OA
ATOM      6  C   UNL     1       4.555   4.978  18.561  0.00  0.00    +0.000 A 
ATOM      7  C   UNL     1       4.590   4.368  17.357  0.00  0.00    +0.000 A 
ENDROOT
BRANCH   7   8
ATOM      8  O   UNL     1       3.480   3.963  16.639  0.00  0.00    +0.000 OA
ATOM      9  H   UNL     1       2.867   4.702  16.508  0.00  0.00    +0.000 HD
ENDBRANCH   7   8
BRANCH   4  10
ATOM     10  C   UNL     1       8.069   5.913  19.363  0.00  0.00    +0.000 C 
BRANCH  10  11
ATOM     11  O   UNL     1       8.131   5.393  20.682  0.00  0.00    +0.000 OA
ATOM     12  H   UNL     1       8.109   4.424  20.607  0.00  0.00    +0.000 HD
ENDBRANCH  10  11
ENDBRANCH   4  10
BRANCH   6  13
ATOM     13  C   UNL     1       3.295   5.285  19.341  0.00  0.00    +0.000 C 
BRANCH  13  14
ATOM     14  N   UNL     1       2.884   4.337  20.384  0.00  0.00    +0.000 NA
ATOM     15  C   UNL     1       3.239   2.937  20.140  0.00  0.00    +0.000 C 
ATOM     16  C   UNL     1       2.007   2.304  19.520  0.00  0.00    +0.000 C 
ATOM     17  C   UNL     1       0.850   3.066  20.139  0.00  0.00    +0.000 C 
ATOM     18  C   UNL     1       1.452   4.355  20.694  0.00  0.00    +0.000 C 
ENDBRANCH  13  14
ENDBRANCH   6  13
TORSDOF 5
ENDMDL
MODEL 8
REMARK VINA RESULT:      -6.0      1.302      1.377
REMARK  Name = 
REMARK  5 active torsions:
REMARK  status: ('A' for Active; 'I' for Inactive)
REMARK    1  A    between atoms: C_4  and  C_5
REMARK    2  A    between atoms: C_5  and  O_6
REMARK    3  A    between atoms: C_8  and  C_9
REMARK    4  A    between atoms: C_9  and  N_10
REMARK    5  A    between atoms: C_15  and  O_16
REMARK                            x       y       z     vdW  Elec       q    Type
REMARK                         _______ _______ _______ _____ _____    ______ ____
ROOT
ATOM      1  O   UNL     1       6.223   3.700  15.250  0.00  0.00    +0.000 OA
ATOM      2  C   UNL     1       6.106   4.331  16.293  0.00  0.00    +0.000 A 
ATOM      3  C   UNL     1       7.075   5.390  16.623  0.00  0.00    +0.000 A 
ATOM      4  C   UNL     1       6.976   6.023  17.797  0.00  0.00    +0.000 A 
ATOM      5  O   UNL     1       5.992   5.729  18.724  0.00  0.00    +0.000 OA
ATOM      6  C   UNL     1       4.974   4.837  18.394  0.00  0.00    +0.000 A 
ATOM      7  C   UNL     1       4.984   4.112  17.255  0.00  0.00    +0.000 A 
ENDROOT
BRANCH   7   8
ATOM      8  O   UNL     1       4.003   3.214  16.875  0.00  0.00    +0.000 OA
ATOM      9  H   UNL     1       4.265   2.738  16.073  0.00  0.00    +0.000 HD
ENDBRANCH   7   8
BRANCH   4  10
ATOM     10  C   UNL     1       7.891   7.142  18.194  0.00  0.00    +0.000 C 
BRANCH  10  11
ATOM     11  O   UNL     1       7.798   8.207  17.261  0.00  0.00    +0.000 OA
ATOM     12  H   UNL     1       8.442   8.882  17.535  0.00  0.00    +0.000 HD
ENDBRANCH  10  11
ENDBRANCH   4  10
BRANCH   6  13
ATOM     13  C   UNL     1       3.905   4.757  19.462  0.00  0.00    +0.000 C 
BRANCH  13  14
ATOM     14  N   UNL     1       3.036   3.574  19.477  0.00  0.00    +0.000 NA
ATOM     15  C   UNL     1       1.605   3.839  19.314  0.00  0.00    +0.000 C 
ATOM     16  C   UNL     1       1.034   3.888  20.719  0.00  0.00    +0.000 C 
ATOM     17  C   UNL     1       1.904   2.923  21.503  0.00  0.00    +0.000 C 
ATOM     18  C   UNL     1       3.170   2.735  20.671  0.00  0.00    +0.000 C 
ENDBRANCH  13  14
ENDBRANCH   6  13
TORSDOF 5
ENDMDL
MODEL 9
REMARK VINA RESULT:      -6.0      1.438      3.223
REMARK  Name = 
REMARK  5 active torsions:
REMARK  status: ('A' for Active; 'I' for Inactive)
REMARK    1  A    between atoms: C_4  and  C_5
REMARK    2  A    between atoms: C_5  and  O_6
REMARK    3  A    between atoms: C_8  and  C_9
REMARK    4  A    between atoms: C_9  and  N_10
REMARK    5  A    between atoms: C_15  and  O_16
REMARK                            x       y       z     vdW  Elec       q    Type
REMARK                         _______ _______ _______ _____ _____    ______ ____
ROOT
ATOM      1  O   UNL     1       7.983   6.828  18.070  0.00  0.00    +0.000 OA
ATOM      2  C   UNL     1       7.137   6.000  17.754  0.00  0.00    +0.000 A 
ATOM      3  C   UNL     1       6.857   5.742  16.332  0.00  0.00    +0.000 A 
ATOM      4  C   UNL     1       5.882   4.887  16.003  0.00  0.00    +0.000 A 
ATOM      5  O   UNL     1       5.120   4.222  16.947  0.00  0.00    +0.000 OA
ATOM      6  C   UNL     1       5.445   4.329  18.298  0.00  0.00    +0.000 A 
ATOM      7  C   UNL     1       6.384   5.185  18.755  0.00  0.00    +0.000 A 
ENDROOT
BRANCH   7   8
ATOM      8  O   UNL     1       6.747   5.332  20.081  0.00  0.00    +0.000 OA
ATOM      9  H   UNL     1       6.076   5.833  20.567  0.00  0.00    +0.000 HD
ENDBRANCH   7   8
BRANCH   4  10
ATOM     10  C   UNL     1       5.561   4.533  14.582  0.00  0.00    +0.000 C 
BRANCH  10  11
ATOM     11  O   UNL     1       6.349   3.431  14.160  0.00  0.00    +0.000 OA
ATOM     12  H   UNL     1       6.153   2.694  14.764  0.00  0.00    +0.000 HD
ENDBRANCH  10  11
ENDBRANCH   4  10
BRANCH   6  13
ATOM     13  C   UNL     1       4.609   3.415  19.168  0.00  0.00    +0.000 C 
BRANCH  13  14
ATOM     14  N   UNL     1       3.148   3.553  19.104  0.00  0.00    +0.000 NA
ATOM     15  C   UNL     1       2.614   4.833  19.572  0.00  0.00    +0.000 C 
ATOM     16  C   UNL     1       2.214   4.606  21.018  0.00  0.00    +0.000 C 
ATOM     17  C   UNL     1       1.802   3.147  21.062  0.00  0.00    +0.000 C 
ATOM     18  C   UNL     1       2.407   2.508  19.814  0.00  0.00    +0.000 C 
ENDBRANCH  13  14
ENDBRANCH   6  13
TORSDOF 5
ENDMDL
