MODEL 1
REMARK VINA RESULT:      -8.0      0.000      0.000
REMARK  Name = 
REMARK  8 active torsions:
REMARK  status: ('A' for Active; 'I' for Inactive)
REMARK    1  A    between atoms: C_1  and  O_2
REMARK    2  A    between atoms: O_2  and  C_3
REMARK    3  A    between atoms: C_3  and  C_4
REMARK    4  A    between atoms: C_9  and  C_10
REMARK    5  A    between atoms: C_13  and  C_14
REMARK    6  A    between atoms: C_14  and  C_15
REMARK    7  A    between atoms: C_14  and  C_16
REMARK    8  A    between atoms: C_20  and  C_21
REMARK                            x       y       z     vdW  Elec       q    Type
REMARK                         _______ _______ _______ _____ _____    ______ ____
ROOT
ATOM      1  C   UNL     1       6.371   4.548  14.149  0.00  0.00    +0.000 A 
ATOM      2  N   UNL     1       7.523   4.924  14.790  0.00  0.00    +0.000 NA
ATOM      3  C   UNL     1       7.088   5.680  15.762  0.00  0.00    +0.000 A 
ATOM      4  N   UNL     1       5.720   5.746  15.722  0.00  0.00    +0.000 N 
ATOM      5  N   UNL     1       5.231   5.047  14.672  0.00  0.00    +0.000 NA
ATOM      6  C   UNL     1       4.901   6.552  16.634  0.00  0.00    +0.000 C 
ATOM      7  C   UNL     1       5.805   7.410  17.552  0.00  0.00    +0.000 C 
ATOM      8  C   UNL     1       7.156   6.753  17.910  0.00  0.00    +0.000 C 
ATOM      9  C   UNL     1       7.082   5.576  18.879  0.00  0.00    +0.000 C 
ATOM     10  N   UNL     1       7.812   6.337  16.679  0.00  0.00    +0.000 N 
ATOM     11  H   UNL     1       8.779   6.026  16.768  0.00  0.00    +0.000 HD
ENDROOT
BRANCH   6  12
ATOM     12  C   UNL     1       3.849   5.777  17.432  0.00  0.00    +0.000 A 
ATOM     13  C   UNL     1       3.641   4.402  17.287  0.00  0.00    +0.000 A 
ATOM     14  C   UNL     1       2.755   3.710  18.123  0.00  0.00    +0.000 A 
ATOM     15  C   UNL     1       2.011   4.369  19.115  0.00  0.00    +0.000 A 
ATOM     16  C   UNL     1       2.170   5.754  19.231  0.00  0.00    +0.000 A 
ATOM     17  C   UNL     1       3.077   6.445  18.407  0.00  0.00    +0.000 A 
BRANCH  15  18
ATOM     18  C   UNL     1       1.109   3.534  20.013  0.00  0.00    +0.000 C 
ATOM     19  C   UNL     1       0.617   2.278  19.284  0.00  0.00    +0.000 C 
ATOM     20  C   UNL     1       1.717   3.150  21.364  0.00  0.00    +0.000 C 
ENDBRANCH  15  18
ENDBRANCH   6  12
BRANCH   1  21
ATOM     21  C   UNL     1       6.423   3.621  12.975  0.00  0.00    +0.000 C 
BRANCH  21  23
ATOM     22  C   UNL     1       5.177   2.326  11.437  0.00  0.00    +0.000 C 
ATOM     23  O   UNL     1       5.178   3.478  12.268  0.00  0.00    +0.000 OA
ENDBRANCH  21  23
ENDBRANCH   1  21
TORSDOF 4
ENDMDL
MODEL 2
REMARK VINA RESULT:      -7.9      0.430      1.068
REMARK  Name = 
REMARK  8 active torsions:
REMARK  status: ('A' for Active; 'I' for Inactive)
REMARK    1  A    between atoms: C_1  and  O_2
REMARK    2  A    between atoms: O_2  and  C_3
REMARK    3  A    between atoms: C_3  and  C_4
REMARK    4  A    between atoms: C_9  and  C_10
REMARK    5  A    between atoms: C_13  and  C_14
REMARK    6  A    between atoms: C_14  and  C_15
REMARK    7  A    between atoms: C_14  and  C_16
REMARK    8  A    between atoms: C_20  and  C_21
REMARK                            x       y       z     vdW  Elec       q    Type
REMARK                         _______ _______ _______ _____ _____    ______ ____
ROOT
ATOM      1  C   UNL     1       6.211   4.338  14.110  0.00  0.00    +0.000 A 
ATOM      2  N   UNL     1       7.395   4.802  14.621  0.00  0.00    +0.000 NA
ATOM      3  C   UNL     1       7.010   5.597  15.583  0.00  0.00    +0.000 A 
ATOM      4  N   UNL     1       5.643   5.600  15.664  0.00  0.00    +0.000 N 
ATOM      5  N   UNL     1       5.098   4.817  14.705  0.00  0.00    +0.000 NA
ATOM      6  C   UNL     1       4.869   6.424  16.600  0.00  0.00    +0.000 C 
ATOM      7  C   UNL     1       5.806   7.376  17.381  0.00  0.00    +0.000 C 
ATOM      8  C   UNL     1       7.215   6.802  17.652  0.00  0.00    +0.000 C 
ATOM      9  C   UNL     1       7.284   5.685  18.690  0.00  0.00    +0.000 C 
ATOM     10  N   UNL     1       7.779   6.341  16.393  0.00  0.00    +0.000 N 
ATOM     11  H   UNL     1       8.764   6.078  16.411  0.00  0.00    +0.000 HD
ENDROOT
BRANCH   6  12
ATOM     12  C   UNL     1       3.930   5.654  17.533  0.00  0.00    +0.000 A 
ATOM     13  C   UNL     1       2.839   6.245  18.175  0.00  0.00    +0.000 A 
ATOM     14  C   UNL     1       1.934   5.479  18.922  0.00  0.00    +0.000 A 
ATOM     15  C   UNL     1       2.103   4.096  19.089  0.00  0.00    +0.000 A 
ATOM     16  C   UNL     1       3.223   3.503  18.497  0.00  0.00    +0.000 A 
ATOM     17  C   UNL     1       4.119   4.269  17.727  0.00  0.00    +0.000 A 
BRANCH  15  18
ATOM     18  C   UNL     1       1.046   3.330  19.874  0.00  0.00    +0.000 C 
ATOM     19  C   UNL     1       0.547   2.116  19.083  0.00  0.00    +0.000 C 
ATOM     20  C   UNL     1       1.469   2.902  21.281  0.00  0.00    +0.000 C 
ENDBRANCH  15  18
ENDBRANCH   6  12
BRANCH   1  21
ATOM     21  C   UNL     1       6.205   3.344  12.992  0.00  0.00    +0.000 C 
BRANCH  21  23
ATOM     22  C   UNL     1       4.404   3.121  11.474  0.00  0.00    +0.000 C 
ATOM     23  O   UNL     1       5.606   3.818  11.772  0.00  0.00    +0.000 OA
ENDBRANCH  21  23
ENDBRANCH   1  21
TORSDOF 4
ENDMDL
MODEL 3
REMARK VINA RESULT:      -7.7      3.278      5.547
REMARK  Name = 
REMARK  8 active torsions:
REMARK  status: ('A' for Active; 'I' for Inactive)
REMARK    1  A    between atoms: C_1  and  O_2
REMARK    2  A    between atoms: O_2  and  C_3
REMARK    3  A    between atoms: C_3  and  C_4
REMARK    4  A    between atoms: C_9  and  C_10
REMARK    5  A    between atoms: C_13  and  C_14
REMARK    6  A    between atoms: C_14  and  C_15
REMARK    7  A    between atoms: C_14  and  C_16
REMARK    8  A    between atoms: C_20  and  C_21
REMARK                            x       y       z     vdW  Elec       q    Type
REMARK                         _______ _______ _______ _____ _____    ______ ____
ROOT
ATOM      1  C   UNL     1       6.037   4.785  18.501  0.00  0.00    +0.000 A 
ATOM      2  N   UNL     1       5.359   3.679  18.057  0.00  0.00    +0.000 NA
ATOM      3  C   UNL     1       4.173   3.828  18.582  0.00  0.00    +0.000 A 
ATOM      4  N   UNL     1       4.128   4.990  19.305  0.00  0.00    +0.000 N 
ATOM      5  N   UNL     1       5.327   5.616  19.294  0.00  0.00    +0.000 NA
ATOM      6  C   UNL     1       2.964   5.445  20.074  0.00  0.00    +0.000 C 
ATOM      7  C   UNL     1       1.854   4.366  20.058  0.00  0.00    +0.000 C 
ATOM      8  C   UNL     1       1.796   3.532  18.759  0.00  0.00    +0.000 C 
ATOM      9  C   UNL     1       1.270   4.264  17.527  0.00  0.00    +0.000 C 
ATOM     10  N   UNL     1       3.122   2.999  18.488  0.00  0.00    +0.000 N 
ATOM     11  H   UNL     1       3.185   2.308  17.742  0.00  0.00    +0.000 HD
ENDROOT
BRANCH   6  12
ATOM     12  C   UNL     1       2.423   6.826  19.694  0.00  0.00    +0.000 A 
ATOM     13  C   UNL     1       2.564   7.376  18.417  0.00  0.00    +0.000 A 
ATOM     14  C   UNL     1       1.948   8.587  18.076  0.00  0.00    +0.000 A 
ATOM     15  C   UNL     1       1.196   9.319  19.008  0.00  0.00    +0.000 A 
ATOM     16  C   UNL     1       1.095   8.806  20.305  0.00  0.00    +0.000 A 
ATOM     17  C   UNL     1       1.694   7.577  20.641  0.00  0.00    +0.000 A 
BRANCH  15  18
ATOM     18  C   UNL     1       0.519  10.601  18.541  0.00  0.00    +0.000 C 
ATOM     19  C   UNL     1      -0.991  10.396  18.377  0.00  0.00    +0.000 C 
ATOM     20  C   UNL     1       0.789  11.829  19.412  0.00  0.00    +0.000 C 
ENDBRANCH  15  18
ENDBRANCH   6  12
BRANCH   1  21
ATOM     21  C   UNL     1       7.453   5.026  18.083  0.00  0.00    +0.000 C 
BRANCH  21  23
ATOM     22  C   UNL     1       7.627   7.311  17.493  0.00  0.00    +0.000 C 
ATOM     23  O   UNL     1       7.608   5.974  17.011  0.00  0.00    +0.000 OA
ENDBRANCH  21  23
ENDBRANCH   1  21
TORSDOF 4
ENDMDL
MODEL 4
REMARK VINA RESULT:      -7.6      3.001      4.991
REMARK  Name = 
REMARK  8 active torsions:
REMARK  status: ('A' for Active; 'I' for Inactive)
REMARK    1  A    between atoms: C_1  and  O_2
REMARK    2  A    between atoms: O_2  and  C_3
REMARK    3  A    between atoms: C_3  and  C_4
REMARK    4  A    between atoms: C_9  and  C_10
REMARK    5  A    between atoms: C_13  and  C_14
REMARK    6  A    between atoms: C_14  and  C_15
REMARK    7  A    between atoms: C_14  and  C_16
REMARK    8  A    between atoms: C_20  and  C_21
REMARK                            x       y       z     vdW  Elec       q    Type
REMARK                         _______ _______ _______ _____ _____    ______ ____
ROOT
ATOM      1  C   UNL     1       5.933   5.269  17.250  0.00  0.00    +0.000 A 
ATOM      2  N   UNL     1       5.355   4.033  17.119  0.00  0.00    +0.000 NA
ATOM      3  C   UNL     1       4.388   4.064  17.997  0.00  0.00    +0.000 A 
ATOM      4  N   UNL     1       4.370   5.282  18.624  0.00  0.00    +0.000 N 
ATOM      5  N   UNL     1       5.376   6.071  18.182  0.00  0.00    +0.000 NA
ATOM      6  C   UNL     1       3.447   5.644  19.706  0.00  0.00    +0.000 C 
ATOM      7  C   UNL     1       2.596   4.419  20.120  0.00  0.00    +0.000 C 
ATOM      8  C   UNL     1       2.278   3.445  18.964  0.00  0.00    +0.000 C 
ATOM      9  C   UNL     1       1.271   3.949  17.933  0.00  0.00    +0.000 C 
ATOM     10  N   UNL     1       3.523   3.086  18.303  0.00  0.00    +0.000 N 
ATOM     11  H   UNL     1       3.468   2.332  17.619  0.00  0.00    +0.000 HD
ENDROOT
BRANCH   6  12
ATOM     12  C   UNL     1       2.581   6.879  19.445  0.00  0.00    +0.000 A 
ATOM     13  C   UNL     1       1.866   7.537  20.450  0.00  0.00    +0.000 A 
ATOM     14  C   UNL     1       1.185   8.733  20.193  0.00  0.00    +0.000 A 
ATOM     15  C   UNL     1       1.159   9.305  18.911  0.00  0.00    +0.000 A 
ATOM     16  C   UNL     1       1.824   8.626  17.885  0.00  0.00    +0.000 A 
ATOM     17  C   UNL     1       2.527   7.435  18.149  0.00  0.00    +0.000 A 
BRANCH  15  18
ATOM     18  C   UNL     1       0.438  10.634  18.729  0.00  0.00    +0.000 C 
ATOM     19  C   UNL     1      -0.995  10.417  18.230  0.00  0.00    +0.000 C 
ATOM     20  C   UNL     1       0.432  11.541  19.961  0.00  0.00    +0.000 C 
ENDBRANCH  15  18
ENDBRANCH   6  12
BRANCH   1  21
ATOM     21  C   UNL     1       7.079   5.667  16.375  0.00  0.00    +0.000 C 
BRANCH  21  23
ATOM     22  C   UNL     1       6.957   4.822  14.168  0.00  0.00    +0.000 C 
ATOM     23  O   UNL     1       7.519   4.646  15.461  0.00  0.00    +0.000 OA
ENDBRANCH  21  23
ENDBRANCH   1  21
TORSDOF 4
ENDMDL
MODEL 5
REMARK VINA RESULT:      -7.6      3.061      4.996
REMARK  Name = 
REMARK  8 active torsions:
REMARK  status: ('A' for Active; 'I' for Inactive)
REMARK    1  A    between atoms: C_1  and  O_2
REMARK    2  A    between atoms: O_2  and  C_3
REMARK    3  A    between atoms: C_3  and  C_4
REMARK    4  A    between atoms: C_9  and  C_10
REMARK    5  A    between atoms: C_13  and  C_14
REMARK    6  A    between atoms: C_14  and  C_15
REMARK    7  A    between atoms: C_14  and  C_16
REMARK    8  A    between atoms: C_20  and  C_21
REMARK                            x       y       z     vdW  Elec       q    Type
REMARK                         _______ _______ _______ _____ _____    ______ ____
ROOT
ATOM      1  C   UNL     1       5.937   5.181  17.370  0.00  0.00    +0.000 A 
ATOM      2  N   UNL     1       5.262   4.008  17.153  0.00  0.00    +0.000 NA
ATOM      3  C   UNL     1       4.238   4.103  17.957  0.00  0.00    +0.000 A 
ATOM      4  N   UNL     1       4.280   5.298  18.625  0.00  0.00    +0.000 N 
ATOM      5  N   UNL     1       5.384   6.004  18.287  0.00  0.00    +0.000 NA
ATOM      6  C   UNL     1       3.313   5.712  19.648  0.00  0.00    +0.000 C 
ATOM      7  C   UNL     1       2.327   4.559  19.953  0.00  0.00    +0.000 C 
ATOM      8  C   UNL     1       2.013   3.652  18.742  0.00  0.00    +0.000 C 
ATOM      9  C   UNL     1       1.137   4.276  17.659  0.00  0.00    +0.000 C 
ATOM     10  N   UNL     1       3.268   3.199  18.162  0.00  0.00    +0.000 N 
ATOM     11  H   UNL     1       3.197   2.474  17.450  0.00  0.00    +0.000 HD
ENDROOT
BRANCH   6  12
ATOM     12  C   UNL     1       2.584   7.029  19.368  0.00  0.00    +0.000 A 
ATOM     13  C   UNL     1       2.539   7.623  18.104  0.00  0.00    +0.000 A 
ATOM     14  C   UNL     1       1.759   8.762  17.865  0.00  0.00    +0.000 A 
ATOM     15  C   UNL     1       1.020   9.377  18.887  0.00  0.00    +0.000 A 
ATOM     16  C   UNL     1       1.101   8.822  20.168  0.00  0.00    +0.000 A 
ATOM     17  C   UNL     1       1.866   7.665  20.403  0.00  0.00    +0.000 A 
BRANCH  15  18
ATOM     18  C   UNL     1       0.158  10.581  18.529  0.00  0.00    +0.000 C 
ATOM     19  C   UNL     1      -1.173  10.140  17.910  0.00  0.00    +0.000 C 
ATOM     20  C   UNL     1      -0.097  11.557  19.680  0.00  0.00    +0.000 C 
ENDBRANCH  15  18
ENDBRANCH   6  12
BRANCH   1  21
ATOM     21  C   UNL     1       7.178   5.497  16.597  0.00  0.00    +0.000 C 
BRANCH  21  23
ATOM     22  C   UNL     1       7.081   4.960  14.295  0.00  0.00    +0.000 C 
ATOM     23  O   UNL     1       7.512   4.535  15.580  0.00  0.00    +0.000 OA
ENDBRANCH  21  23
ENDBRANCH   1  21
TORSDOF 4
ENDMDL
MODEL 6
REMARK VINA RESULT:      -7.6      3.471      5.755
REMARK  Name = 
REMARK  8 active torsions:
REMARK  status: ('A' for Active; 'I' for Inactive)
REMARK    1  A    between atoms: C_1  and  O_2
REMARK    2  A    between atoms: O_2  and  C_3
REMARK    3  A    between atoms: C_3  and  C_4
REMARK    4  A    between atoms: C_9  and  C_10
REMARK    5  A    between atoms: C_13  and  C_14
REMARK    6  A    between atoms: C_14  and  C_15
REMARK    7  A    between atoms: C_14  and  C_16
REMARK    8  A    between atoms: C_20  and  C_21
REMARK                            x       y       z     vdW  Elec       q    Type
REMARK                         _______ _______ _______ _____ _____    ______ ____
ROOT
ATOM      1  C   UNL     1       6.167   4.987  18.731  0.00  0.00    +0.000 A 
ATOM      2  N   UNL     1       5.602   3.801  18.339  0.00  0.00    +0.000 NA
ATOM      3  C   UNL     1       4.397   3.870  18.836  0.00  0.00    +0.000 A 
ATOM      4  N   UNL     1       4.231   5.062  19.490  0.00  0.00    +0.000 N 
ATOM      5  N   UNL     1       5.369   5.793  19.463  0.00  0.00    +0.000 NA
ATOM      6  C   UNL     1       3.014   5.450  20.213  0.00  0.00    +0.000 C 
ATOM      7  C   UNL     1       2.008   4.275  20.241  0.00  0.00    +0.000 C 
ATOM      8  C   UNL     1       2.053   3.368  18.991  0.00  0.00    +0.000 C 
ATOM      9  C   UNL     1       1.489   3.980  17.710  0.00  0.00    +0.000 C 
ATOM     10  N   UNL     1       3.427   2.945  18.772  0.00  0.00    +0.000 N 
ATOM     11  H   UNL     1       3.568   2.222  18.067  0.00  0.00    +0.000 HD
ENDROOT
BRANCH   6  12
ATOM     12  C   UNL     1       2.359   6.753  19.746  0.00  0.00    +0.000 A 
ATOM     13  C   UNL     1       1.618   7.581  20.593  0.00  0.00    +0.000 A 
ATOM     14  C   UNL     1       1.139   8.823  20.157  0.00  0.00    +0.000 A 
ATOM     15  C   UNL     1       1.350   9.275  18.846  0.00  0.00    +0.000 A 
ATOM     16  C   UNL     1       2.044   8.430  17.973  0.00  0.00    +0.000 A 
ATOM     17  C   UNL     1       2.544   7.191  18.418  0.00  0.00    +0.000 A 
BRANCH  15  18
ATOM     18  C   UNL     1       0.841  10.659  18.469  0.00  0.00    +0.000 C 
ATOM     19  C   UNL     1      -0.691  10.710  18.506  0.00  0.00    +0.000 C 
ATOM     20  C   UNL     1       1.423  11.809  19.294  0.00  0.00    +0.000 C 
ENDBRANCH  15  18
ENDBRANCH   6  12
BRANCH   1  21
ATOM     21  C   UNL     1       7.565   5.334  18.322  0.00  0.00    +0.000 C 
BRANCH  21  23
ATOM     22  C   UNL     1       7.740   7.592  17.638  0.00  0.00    +0.000 C 
ATOM     23  O   UNL     1       7.983   6.662  18.684  0.00  0.00    +0.000 OA
ENDBRANCH  21  23
ENDBRANCH   1  21
TORSDOF 4
ENDMDL
MODEL 7
REMARK VINA RESULT:      -7.6      1.061      1.664
REMARK  Name = 
REMARK  8 active torsions:
REMARK  status: ('A' for Active; 'I' for Inactive)
REMARK    1  A    between atoms: C_1  and  O_2
REMARK    2  A    between atoms: O_2  and  C_3
REMARK    3  A    between atoms: C_3  and  C_4
REMARK    4  A    between atoms: C_9  and  C_10
REMARK    5  A    between atoms: C_13  and  C_14
REMARK    6  A    between atoms: C_14  and  C_15
REMARK    7  A    between atoms: C_14  and  C_16
REMARK    8  A    between atoms: C_20  and  C_21
REMARK                            x       y       z     vdW  Elec       q    Type
REMARK                         _______ _______ _______ _____ _____    ______ ____
ROOT
ATOM      1  C   UNL     1       5.932   4.075  13.473  0.00  0.00    +0.000 A 
ATOM      2  N   UNL     1       7.162   4.541  13.858  0.00  0.00    +0.000 NA
ATOM      3  C   UNL     1       6.891   5.247  14.922  0.00  0.00    +0.000 A 
ATOM      4  N   UNL     1       5.547   5.197  15.183  0.00  0.00    +0.000 N 
ATOM      5  N   UNL     1       4.898   4.469  14.245  0.00  0.00    +0.000 NA
ATOM      6  C   UNL     1       4.886   5.921  16.275  0.00  0.00    +0.000 C 
ATOM      7  C   UNL     1       5.897   6.844  16.997  0.00  0.00    +0.000 C 
ATOM      8  C   UNL     1       7.342   6.300  17.033  0.00  0.00    +0.000 C 
ATOM      9  C   UNL     1       7.578   5.112  17.962  0.00  0.00    +0.000 C 
ATOM     10  N   UNL     1       7.743   5.955  15.678  0.00  0.00    +0.000 N 
ATOM     11  H   UNL     1       8.728   5.726  15.546  0.00  0.00    +0.000 HD
ENDROOT
BRANCH   6  12
ATOM     12  C   UNL     1       4.101   5.051  17.260  0.00  0.00    +0.000 A 
ATOM     13  C   UNL     1       3.051   5.540  18.041  0.00  0.00    +0.000 A 
ATOM     14  C   UNL     1       2.280   4.684  18.839  0.00  0.00    +0.000 A 
ATOM     15  C   UNL     1       2.548   3.309  18.917  0.00  0.00    +0.000 A 
ATOM     16  C   UNL     1       3.632   2.818  18.182  0.00  0.00    +0.000 A 
ATOM     17  C   UNL     1       4.393   3.674  17.363  0.00  0.00    +0.000 A 
BRANCH  15  18
ATOM     18  C   UNL     1       1.629   2.442  19.768  0.00  0.00    +0.000 C 
ATOM     19  C   UNL     1       1.312   3.124  21.103  0.00  0.00    +0.000 C 
ATOM     20  C   UNL     1       0.333   2.007  19.081  0.00  0.00    +0.000 C 
ENDBRANCH  15  18
ENDBRANCH   6  12
BRANCH   1  21
ATOM     21  C   UNL     1       5.800   3.168  12.290  0.00  0.00    +0.000 C 
BRANCH  21  23
ATOM     22  C   UNL     1       6.930   1.514  11.029  0.00  0.00    +0.000 C 
ATOM     23  O   UNL     1       7.051   2.758  11.707  0.00  0.00    +0.000 OA
ENDBRANCH  21  23
ENDBRANCH   1  21
TORSDOF 4
ENDMDL
MODEL 8
REMARK VINA RESULT:      -7.3      3.745      6.783
REMARK  Name = 
REMARK  8 active torsions:
REMARK  status: ('A' for Active; 'I' for Inactive)
REMARK    1  A    between atoms: C_1  and  O_2
REMARK    2  A    between atoms: O_2  and  C_3
REMARK    3  A    between atoms: C_3  and  C_4
REMARK    4  A    between atoms: C_9  and  C_10
REMARK    5  A    between atoms: C_13  and  C_14
REMARK    6  A    between atoms: C_14  and  C_15
REMARK    7  A    between atoms: C_14  and  C_16
REMARK    8  A    between atoms: C_20  and  C_21
REMARK                            x       y       z     vdW  Elec       q    Type
REMARK                         _______ _______ _______ _____ _____    ______ ____
ROOT
ATOM      1  C   UNL     1       4.587   2.140  20.378  0.00  0.00    +0.000 A 
ATOM      2  N   UNL     1       3.281   2.446  20.656  0.00  0.00    +0.000 NA
ATOM      3  C   UNL     1       3.114   3.598  20.063  0.00  0.00    +0.000 A 
ATOM      4  N   UNL     1       4.273   3.967  19.433  0.00  0.00    +0.000 N 
ATOM      5  N   UNL     1       5.252   3.057  19.644  0.00  0.00    +0.000 NA
ATOM      6  C   UNL     1       4.460   5.232  18.713  0.00  0.00    +0.000 C 
ATOM      7  C   UNL     1       3.214   6.135  18.880  0.00  0.00    +0.000 C 
ATOM      8  C   UNL     1       1.880   5.364  19.000  0.00  0.00    +0.000 C 
ATOM      9  C   UNL     1       1.380   4.705  17.718  0.00  0.00    +0.000 C 
ATOM     10  N   UNL     1       2.014   4.364  20.049  0.00  0.00    +0.000 N 
ATOM     11  H   UNL     1       1.156   3.891  20.330  0.00  0.00    +0.000 HD
ENDROOT
BRANCH   6  12
ATOM     12  C   UNL     1       4.875   5.098  17.245  0.00  0.00    +0.000 A 
ATOM     13  C   UNL     1       5.024   6.194  16.391  0.00  0.00    +0.000 A 
ATOM     14  C   UNL     1       5.523   6.038  15.091  0.00  0.00    +0.000 A 
ATOM     15  C   UNL     1       5.861   4.777  14.578  0.00  0.00    +0.000 A 
ATOM     16  C   UNL     1       5.663   3.666  15.405  0.00  0.00    +0.000 A 
ATOM     17  C   UNL     1       5.182   3.825  16.719  0.00  0.00    +0.000 A 
BRANCH  15  18
ATOM     18  C   UNL     1       6.444   4.702  13.173  0.00  0.00    +0.000 C 
ATOM     19  C   UNL     1       7.912   5.145  13.164  0.00  0.00    +0.000 C 
ATOM     20  C   UNL     1       6.304   3.342  12.486  0.00  0.00    +0.000 C 
ENDBRANCH  15  18
ENDBRANCH   6  12
BRANCH   1  21
ATOM     21  C   UNL     1       5.181   0.850  20.850  0.00  0.00    +0.000 C 
BRANCH  21  23
ATOM     22  C   UNL     1       6.570  -0.285  22.393  0.00  0.00    +0.000 C 
ATOM     23  O   UNL     1       5.967   0.956  22.051  0.00  0.00    +0.000 OA
ENDBRANCH  21  23
ENDBRANCH   1  21
TORSDOF 4
ENDMDL
MODEL 9
REMARK VINA RESULT:      -7.0      6.430      8.246
REMARK  Name = 
REMARK  8 active torsions:
REMARK  status: ('A' for Active; 'I' for Inactive)
REMARK    1  A    between atoms: C_1  and  O_2
REMARK    2  A    between atoms: O_2  and  C_3
REMARK    3  A    between atoms: C_3  and  C_4
REMARK    4  A    between atoms: C_9  and  C_10
REMARK    5  A    between atoms: C_13  and  C_14
REMARK    6  A    between atoms: C_14  and  C_15
REMARK    7  A    between atoms: C_14  and  C_16
REMARK    8  A    between atoms: C_20  and  C_21
REMARK                            x       y       z     vdW  Elec       q    Type
REMARK                         _______ _______ _______ _____ _____    ______ ____
ROOT
ATOM      1  C   UNL     1      -2.351  10.956  17.727  0.00  0.00    +0.000 A 
ATOM      2  N   UNL     1      -1.821  12.220  17.718  0.00  0.00    +0.000 NA
ATOM      3  C   UNL     1      -0.815  12.126  18.545  0.00  0.00    +0.000 A 
ATOM      4  N   UNL     1      -0.728  10.846  19.026  0.00  0.00    +0.000 N 
ATOM      5  N   UNL     1      -1.726  10.074  18.536  0.00  0.00    +0.000 NA
ATOM      6  C   UNL     1       0.255  10.397  20.019  0.00  0.00    +0.000 C 
ATOM      7  C   UNL     1       1.081  11.599  20.538  0.00  0.00    +0.000 C 
ATOM      8  C   UNL     1       1.314  12.711  19.491  0.00  0.00    +0.000 C 
ATOM      9  C   UNL     1       2.290  12.368  18.368  0.00  0.00    +0.000 C 
ATOM     10  N   UNL     1       0.029  13.095  18.927  0.00  0.00    +0.000 N 
ATOM     11  H   UNL     1       0.029  13.925  18.334  0.00  0.00    +0.000 HD
ENDROOT
BRANCH   6  12
ATOM     12  C   UNL     1       1.149   9.235  19.581  0.00  0.00    +0.000 A 
ATOM     13  C   UNL     1       1.515   8.190  20.434  0.00  0.00    +0.000 A 
ATOM     14  C   UNL     1       2.233   7.084  19.960  0.00  0.00    +0.000 A 
ATOM     15  C   UNL     1       2.647   6.992  18.623  0.00  0.00    +0.000 A 
ATOM     16  C   UNL     1       2.334   8.059  17.773  0.00  0.00    +0.000 A 
ATOM     17  C   UNL     1       1.593   9.159  18.244  0.00  0.00    +0.000 A 
BRANCH  15  18
ATOM     18  C   UNL     1       3.378   5.733  18.179  0.00  0.00    +0.000 C 
ATOM     19  C   UNL     1       4.405   5.294  19.229  0.00  0.00    +0.000 C 
ATOM     20  C   UNL     1       2.473   4.556  17.808  0.00  0.00    +0.000 C 
ENDBRANCH  15  18
ENDBRANCH   6  12
BRANCH   1  21
ATOM     21  C   UNL     1      -3.522  10.617  16.859  0.00  0.00    +0.000 C 
BRANCH  21  23
ATOM     22  C   UNL     1      -3.021  10.126  14.600  0.00  0.00    +0.000 C 
ATOM     23  O   UNL     1      -3.440  11.128  15.516  0.00  0.00    +0.000 OA
ENDBRANCH  21  23
ENDBRANCH   1  21
TORSDOF 4
ENDMDL
