MODEL 1
REMARK VINA RESULT:      -8.7      0.000      0.000
REMARK  Name = 
REMARK  7 active torsions:
REMARK  status: ('A' for Active; 'I' for Inactive)
REMARK    1  A    between atoms: C_1  and  C_2
REMARK    2  A    between atoms: C_2  and  C_3
REMARK    3  A    between atoms: C_7  and  N_8
REMARK    4  A    between atoms: C_9  and  C_11
REMARK    5  A    between atoms: C_11  and  N_12
REMARK    6  A    between atoms: C_14  and  C_15
REMARK    7  A    between atoms: C_17  and  C_18
REMARK                            x       y       z     vdW  Elec       q    Type
REMARK                         _______ _______ _______ _____ _____    ______ ____
ROOT
ATOM      1  C   UNL     1       6.090   4.750  18.242  0.00  0.00    +0.000 C 
ENDROOT
BRANCH   1   2
ATOM      2  N   UNL     1       4.656   4.935  18.008  0.00  0.00    +0.000 N 
ATOM      3  C   UNL     1       4.066   6.158  18.312  0.00  0.00    +0.000 A 
ATOM      4  C   UNL     1       2.727   6.313  18.363  0.00  0.00    +0.000 A 
ATOM      5  C   UNL     1       1.902   5.160  18.026  0.00  0.00    +0.000 A 
ATOM      6  C   UNL     1       2.438   3.976  17.702  0.00  0.00    +0.000 A 
ATOM      7  C   UNL     1       3.912   3.800  17.708  0.00  0.00    +0.000 A 
ATOM      8  O   UNL     1       4.404   2.693  17.510  0.00  0.00    +0.000 OA
BRANCH   4   9
ATOM      9  C   UNL     1       2.191   7.561  18.832  0.00  0.00    +0.000 A 
ATOM     10  N   UNL     1       1.878   8.609  18.081  0.00  0.00    +0.000 NA
ATOM     11  C   UNL     1       1.323   9.491  18.967  0.00  0.00    +0.000 A 
ATOM     12  C   UNL     1       0.753  10.787  18.555  0.00  0.00    +0.000 C 
ATOM     13  N   UNL     1       1.301   9.072  20.233  0.00  0.00    +0.000 NA
ATOM     14  O   UNL     1       1.870   7.806  20.158  0.00  0.00    +0.000 OA
ENDBRANCH   4   9
ENDBRANCH   1   2
BRANCH   1  16
ATOM     15  N   UNL     1       5.965   4.720  15.779  0.00  0.00    +0.000 N 
ATOM     16  C   UNL     1       6.790   4.575  16.896  0.00  0.00    +0.000 C 
ATOM     17  O   UNL     1       7.972   4.215  16.878  0.00  0.00    +0.000 OA
ATOM     18  H   UNL     1       4.962   4.756  15.958  0.00  0.00    +0.000 HD
BRANCH  15  23
ATOM     19  C   UNL     1       6.193   3.403  12.293  0.00  0.00    +0.000 A 
ATOM     20  C   UNL     1       7.226   4.199  11.774  0.00  0.00    +0.000 A 
ATOM     21  C   UNL     1       7.825   5.160  12.568  0.00  0.00    +0.000 A 
ATOM     22  C   UNL     1       7.412   5.336  13.891  0.00  0.00    +0.000 A 
ATOM     23  C   UNL     1       6.378   4.568  14.431  0.00  0.00    +0.000 A 
ATOM     24  C   UNL     1       5.756   3.618  13.617  0.00  0.00    +0.000 A 
BRANCH  19  26
ATOM     25  C   UNL     1       6.774   1.349  11.024  0.00  0.00    +0.000 C 
ATOM     26  C   UNL     1       5.640   2.249  11.491  0.00  0.00    +0.000 C 
ENDBRANCH  19  26
ENDBRANCH  15  23
ENDBRANCH   1  16
TORSDOF 5
ENDMDL
MODEL 2
REMARK VINA RESULT:      -8.7      1.294      1.496
REMARK  Name = 
REMARK  7 active torsions:
REMARK  status: ('A' for Active; 'I' for Inactive)
REMARK    1  A    between atoms: C_1  and  C_2
REMARK    2  A    between atoms: C_2  and  C_3
REMARK    3  A    between atoms: C_7  and  N_8
REMARK    4  A    between atoms: C_9  and  C_11
REMARK    5  A    between atoms: C_11  and  N_12
REMARK    6  A    between atoms: C_14  and  C_15
REMARK    7  A    between atoms: C_17  and  C_18
REMARK                            x       y       z     vdW  Elec       q    Type
REMARK                         _______ _______ _______ _____ _____    ______ ____
ROOT
ATOM      1  C   UNL     1       6.388   5.260  18.364  0.00  0.00    +0.000 C 
ENDROOT
BRANCH   1   2
ATOM      2  N   UNL     1       4.953   5.210  18.652  0.00  0.00    +0.000 N 
ATOM      3  C   UNL     1       4.172   6.341  18.438  0.00  0.00    +0.000 A 
ATOM      4  C   UNL     1       2.914   6.443  18.916  0.00  0.00    +0.000 A 
ATOM      5  C   UNL     1       2.367   5.293  19.624  0.00  0.00    +0.000 A 
ATOM      6  C   UNL     1       3.083   4.178  19.824  0.00  0.00    +0.000 A 
ATOM      7  C   UNL     1       4.485   4.099  19.346  0.00  0.00    +0.000 A 
ATOM      8  O   UNL     1       5.177   3.119  19.613  0.00  0.00    +0.000 OA
BRANCH   4   9
ATOM      9  C   UNL     1       2.224   7.697  18.788  0.00  0.00    +0.000 A 
ATOM     10  N   UNL     1       1.619   8.359  19.764  0.00  0.00    +0.000 NA
ATOM     11  C   UNL     1       1.212   9.521  19.167  0.00  0.00    +0.000 A 
ATOM     12  C   UNL     1       0.549  10.611  19.906  0.00  0.00    +0.000 C 
ATOM     13  N   UNL     1       1.495   9.609  17.867  0.00  0.00    +0.000 NA
ATOM     14  O   UNL     1       2.158   8.416  17.605  0.00  0.00    +0.000 OA
ENDBRANCH   4   9
ENDBRANCH   1   2
BRANCH   1  16
ATOM     15  N   UNL     1       6.499   4.415  16.050  0.00  0.00    +0.000 N 
ATOM     16  C   UNL     1       6.581   5.537  16.875  0.00  0.00    +0.000 C 
ATOM     17  O   UNL     1       6.900   6.676  16.514  0.00  0.00    +0.000 OA
ATOM     18  H   UNL     1       6.492   3.508  16.517  0.00  0.00    +0.000 HD
BRANCH  15  23
ATOM     19  C   UNL     1       6.058   3.562  12.441  0.00  0.00    +0.000 A 
ATOM     20  C   UNL     1       7.064   4.348  11.856  0.00  0.00    +0.000 A 
ATOM     21  C   UNL     1       7.864   5.151  12.650  0.00  0.00    +0.000 A 
ATOM     22  C   UNL     1       7.680   5.177  14.035  0.00  0.00    +0.000 A 
ATOM     23  C   UNL     1       6.680   4.416  14.643  0.00  0.00    +0.000 A 
ATOM     24  C   UNL     1       5.855   3.628  13.836  0.00  0.00    +0.000 A 
BRANCH  19  26
ATOM     25  C   UNL     1       3.975   3.184  11.144  0.00  0.00    +0.000 C 
ATOM     26  C   UNL     1       5.285   2.567  11.610  0.00  0.00    +0.000 C 
ENDBRANCH  19  26
ENDBRANCH  15  23
ENDBRANCH   1  16
TORSDOF 5
ENDMDL
MODEL 3
REMARK VINA RESULT:      -8.5      1.321      1.415
REMARK  Name = 
REMARK  7 active torsions:
REMARK  status: ('A' for Active; 'I' for Inactive)
REMARK    1  A    between atoms: C_1  and  C_2
REMARK    2  A    between atoms: C_2  and  C_3
REMARK    3  A    between atoms: C_7  and  N_8
REMARK    4  A    between atoms: C_9  and  C_11
REMARK    5  A    between atoms: C_11  and  N_12
REMARK    6  A    between atoms: C_14  and  C_15
REMARK    7  A    between atoms: C_17  and  C_18
REMARK                            x       y       z     vdW  Elec       q    Type
REMARK                         _______ _______ _______ _____ _____    ______ ____
ROOT
ATOM      1  C   UNL     1       6.101   5.588  18.306  0.00  0.00    +0.000 C 
ENDROOT
BRANCH   1   2
ATOM      2  N   UNL     1       4.725   5.384  18.762  0.00  0.00    +0.000 N 
ATOM      3  C   UNL     1       3.884   6.482  18.914  0.00  0.00    +0.000 A 
ATOM      4  C   UNL     1       2.705   6.396  19.564  0.00  0.00    +0.000 A 
ATOM      5  C   UNL     1       2.302   5.086  20.058  0.00  0.00    +0.000 A 
ATOM      6  C   UNL     1       3.075   4.002  19.905  0.00  0.00    +0.000 A 
ATOM      7  C   UNL     1       4.397   4.120  19.241  0.00  0.00    +0.000 A 
ATOM      8  O   UNL     1       5.151   3.152  19.187  0.00  0.00    +0.000 OA
BRANCH   4   9
ATOM      9  C   UNL     1       1.963   7.601  19.815  0.00  0.00    +0.000 A 
ATOM     10  N   UNL     1       1.845   8.632  18.989  0.00  0.00    +0.000 NA
ATOM     11  C   UNL     1       0.971   9.466  19.633  0.00  0.00    +0.000 A 
ATOM     12  C   UNL     1       0.483  10.724  19.040  0.00  0.00    +0.000 C 
ATOM     13  N   UNL     1       0.564   9.034  20.826  0.00  0.00    +0.000 NA
ATOM     14  O   UNL     1       1.209   7.811  20.959  0.00  0.00    +0.000 OA
ENDBRANCH   4   9
ENDBRANCH   1   2
BRANCH   1  16
ATOM     15  N   UNL     1       6.616   4.641  16.088  0.00  0.00    +0.000 N 
ATOM     16  C   UNL     1       6.101   5.734  16.787  0.00  0.00    +0.000 C 
ATOM     17  O   UNL     1       5.764   6.814  16.288  0.00  0.00    +0.000 OA
ATOM     18  H   UNL     1       7.096   3.933  16.644  0.00  0.00    +0.000 HD
BRANCH  15  23
ATOM     19  C   UNL     1       6.057   3.578  12.553  0.00  0.00    +0.000 A 
ATOM     20  C   UNL     1       7.047   4.323  11.891  0.00  0.00    +0.000 A 
ATOM     21  C   UNL     1       7.874   5.168  12.610  0.00  0.00    +0.000 A 
ATOM     22  C   UNL     1       7.735   5.276  13.995  0.00  0.00    +0.000 A 
ATOM     23  C   UNL     1       6.752   4.558  14.680  0.00  0.00    +0.000 A 
ATOM     24  C   UNL     1       5.899   3.728  13.947  0.00  0.00    +0.000 A 
BRANCH  19  26
ATOM     25  C   UNL     1       4.059   3.191  11.131  0.00  0.00    +0.000 C 
ATOM     26  C   UNL     1       5.255   2.539  11.807  0.00  0.00    +0.000 C 
ENDBRANCH  19  26
ENDBRANCH  15  23
ENDBRANCH   1  16
TORSDOF 5
ENDMDL
MODEL 4
REMARK VINA RESULT:      -8.5      2.028      8.110
REMARK  Name = 
REMARK  7 active torsions:
REMARK  status: ('A' for Active; 'I' for Inactive)
REMARK    1  A    between atoms: C_1  and  C_2
REMARK    2  A    between atoms: C_2  and  C_3
REMARK    3  A    between atoms: C_7  and  N_8
REMARK    4  A    between atoms: C_9  and  C_11
REMARK    5  A    between atoms: C_11  and  N_12
REMARK    6  A    between atoms: C_14  and  C_15
REMARK    7  A    between atoms: C_17  and  C_18
REMARK                            x       y       z     vdW  Elec       q    Type
REMARK                         _______ _______ _______ _____ _____    ______ ____
ROOT
ATOM      1  C   UNL     1       3.930   4.016  18.670  0.00  0.00    +0.000 C 
ENDROOT
BRANCH   1   2
ATOM      2  N   UNL     1       5.055   4.468  17.849  0.00  0.00    +0.000 N 
ATOM      3  C   UNL     1       5.018   4.275  16.471  0.00  0.00    +0.000 A 
ATOM      4  C   UNL     1       6.112   4.431  15.697  0.00  0.00    +0.000 A 
ATOM      5  C   UNL     1       7.339   4.873  16.347  0.00  0.00    +0.000 A 
ATOM      6  C   UNL     1       7.402   5.095  17.667  0.00  0.00    +0.000 A 
ATOM      7  C   UNL     1       6.209   4.862  18.517  0.00  0.00    +0.000 A 
ATOM      8  O   UNL     1       6.289   4.968  19.738  0.00  0.00    +0.000 OA
BRANCH   4   9
ATOM      9  C   UNL     1       6.037   4.066  14.310  0.00  0.00    +0.000 A 
ATOM     10  N   UNL     1       4.958   3.631  13.674  0.00  0.00    +0.000 NA
ATOM     11  C   UNL     1       5.367   3.522  12.373  0.00  0.00    +0.000 A 
ATOM     12  C   UNL     1       4.458   3.136  11.278  0.00  0.00    +0.000 C 
ATOM     13  N   UNL     1       6.647   3.831  12.163  0.00  0.00    +0.000 NA
ATOM     14  O   UNL     1       7.099   4.188  13.427  0.00  0.00    +0.000 OA
ENDBRANCH   4   9
ENDBRANCH   1   2
BRANCH   1  16
ATOM     15  N   UNL     1       3.090   6.139  19.601  0.00  0.00    +0.000 N 
ATOM     16  C   UNL     1       2.863   5.108  18.688  0.00  0.00    +0.000 C 
ATOM     17  O   UNL     1       1.845   4.963  18.002  0.00  0.00    +0.000 OA
ATOM     18  H   UNL     1       3.835   5.987  20.280  0.00  0.00    +0.000 HD
BRANCH  15  23
ATOM     19  C   UNL     1       1.271   9.355  19.060  0.00  0.00    +0.000 A 
ATOM     20  C   UNL     1       0.571   9.473  20.271  0.00  0.00    +0.000 A 
ATOM     21  C   UNL     1       0.697   8.494  21.241  0.00  0.00    +0.000 A 
ATOM     22  C   UNL     1       1.527   7.391  21.024  0.00  0.00    +0.000 A 
ATOM     23  C   UNL     1       2.225   7.241  19.824  0.00  0.00    +0.000 A 
ATOM     24  C   UNL     1       2.074   8.216  18.835  0.00  0.00    +0.000 A 
BRANCH  19  26
ATOM     25  C   UNL     1       1.635  11.792  18.752  0.00  0.00    +0.000 C 
ATOM     26  C   UNL     1       1.267  10.487  18.061  0.00  0.00    +0.000 C 
ENDBRANCH  19  26
ENDBRANCH  15  23
ENDBRANCH   1  16
TORSDOF 5
ENDMDL
MODEL 5
REMARK VINA RESULT:      -8.4      5.227      7.210
REMARK  Name = 
REMARK  7 active torsions:
REMARK  status: ('A' for Active; 'I' for Inactive)
REMARK    1  A    between atoms: C_1  and  C_2
REMARK    2  A    between atoms: C_2  and  C_3
REMARK    3  A    between atoms: C_7  and  N_8
REMARK    4  A    between atoms: C_9  and  C_11
REMARK    5  A    between atoms: C_11  and  N_12
REMARK    6  A    between atoms: C_14  and  C_15
REMARK    7  A    between atoms: C_17  and  C_18
REMARK                            x       y       z     vdW  Elec       q    Type
REMARK                         _______ _______ _______ _____ _____    ______ ____
ROOT
ATOM      1  C   UNL     1       7.992   6.640  18.313  0.00  0.00    +0.000 C 
ENDROOT
BRANCH   1   2
ATOM      2  N   UNL     1       6.691   6.236  17.778  0.00  0.00    +0.000 N 
ATOM      3  C   UNL     1       5.630   6.016  18.652  0.00  0.00    +0.000 A 
ATOM      4  C   UNL     1       4.494   5.404  18.258  0.00  0.00    +0.000 A 
ATOM      5  C   UNL     1       4.383   5.027  16.855  0.00  0.00    +0.000 A 
ATOM      6  C   UNL     1       5.375   5.248  15.981  0.00  0.00    +0.000 A 
ATOM      7  C   UNL     1       6.644   5.868  16.438  0.00  0.00    +0.000 A 
ATOM      8  O   UNL     1       7.591   5.982  15.664  0.00  0.00    +0.000 OA
BRANCH   4   9
ATOM      9  C   UNL     1       3.506   5.075  19.248  0.00  0.00    +0.000 A 
ATOM     10  N   UNL     1       3.284   3.872  19.761  0.00  0.00    +0.000 NA
ATOM     11  C   UNL     1       2.332   4.096  20.718  0.00  0.00    +0.000 A 
ATOM     12  C   UNL     1       1.828   3.035  21.608  0.00  0.00    +0.000 C 
ATOM     13  N   UNL     1       1.920   5.361  20.810  0.00  0.00    +0.000 NA
ATOM     14  O   UNL     1       2.682   6.014  19.849  0.00  0.00    +0.000 OA
ENDBRANCH   4   9
ENDBRANCH   1   2
BRANCH   1  16
ATOM     15  N   UNL     1       9.003   8.730  19.146  0.00  0.00    +0.000 N 
ATOM     16  C   UNL     1       8.103   8.162  18.243  0.00  0.00    +0.000 C 
ATOM     17  O   UNL     1       7.335   8.785  17.501  0.00  0.00    +0.000 OA
ATOM     18  H   UNL     1       9.367   8.113  19.872  0.00  0.00    +0.000 HD
BRANCH  15  23
ATOM     19  C   UNL     1       9.926  12.251  18.313  0.00  0.00    +0.000 A 
ATOM     20  C   UNL     1       9.813  12.861  19.572  0.00  0.00    +0.000 A 
ATOM     21  C   UNL     1       9.427  12.114  20.671  0.00  0.00    +0.000 A 
ATOM     22  C   UNL     1       9.158  10.750  20.535  0.00  0.00    +0.000 A 
ATOM     23  C   UNL     1       9.249  10.118  19.293  0.00  0.00    +0.000 A 
ATOM     24  C   UNL     1       9.611  10.881  18.180  0.00  0.00    +0.000 A 
BRANCH  19  26
ATOM     25  C   UNL     1      12.014  13.043  17.227  0.00  0.00    +0.000 C 
ATOM     26  C   UNL     1      10.495  13.014  17.141  0.00  0.00    +0.000 C 
ENDBRANCH  19  26
ENDBRANCH  15  23
ENDBRANCH   1  16
TORSDOF 5
ENDMDL
MODEL 6
REMARK VINA RESULT:      -8.4      3.384      8.073
REMARK  Name = 
REMARK  7 active torsions:
REMARK  status: ('A' for Active; 'I' for Inactive)
REMARK    1  A    between atoms: C_1  and  C_2
REMARK    2  A    between atoms: C_2  and  C_3
REMARK    3  A    between atoms: C_7  and  N_8
REMARK    4  A    between atoms: C_9  and  C_11
REMARK    5  A    between atoms: C_11  and  N_12
REMARK    6  A    between atoms: C_14  and  C_15
REMARK    7  A    between atoms: C_17  and  C_18
REMARK                            x       y       z     vdW  Elec       q    Type
REMARK                         _______ _______ _______ _____ _____    ______ ____
ROOT
ATOM      1  C   UNL     1       2.567   3.950  20.939  0.00  0.00    +0.000 C 
ENDROOT
BRANCH   1   2
ATOM      2  N   UNL     1       3.259   3.534  19.718  0.00  0.00    +0.000 N 
ATOM      3  C   UNL     1       4.295   4.317  19.218  0.00  0.00    +0.000 A 
ATOM      4  C   UNL     1       4.797   4.133  17.979  0.00  0.00    +0.000 A 
ATOM      5  C   UNL     1       4.257   3.034  17.189  0.00  0.00    +0.000 A 
ATOM      6  C   UNL     1       3.278   2.244  17.651  0.00  0.00    +0.000 A 
ATOM      7  C   UNL     1       2.692   2.493  18.992  0.00  0.00    +0.000 A 
ATOM      8  O   UNL     1       1.730   1.835  19.379  0.00  0.00    +0.000 OA
BRANCH   4   9
ATOM      9  C   UNL     1       5.757   5.076  17.474  0.00  0.00    +0.000 A 
ATOM     10  N   UNL     1       6.081   6.235  18.030  0.00  0.00    +0.000 NA
ATOM     11  C   UNL     1       7.095   6.704  17.239  0.00  0.00    +0.000 A 
ATOM     12  C   UNL     1       7.824   7.951  17.530  0.00  0.00    +0.000 C 
ATOM     13  N   UNL     1       7.399   5.924  16.202  0.00  0.00    +0.000 NA
ATOM     14  O   UNL     1       6.527   4.852  16.343  0.00  0.00    +0.000 OA
ENDBRANCH   4   9
ENDBRANCH   1   2
BRANCH   1  16
ATOM     15  N   UNL     1       2.356   6.396  20.709  0.00  0.00    +0.000 N 
ATOM     16  C   UNL     1       1.700   5.167  20.624  0.00  0.00    +0.000 C 
ATOM     17  O   UNL     1       0.489   5.007  20.432  0.00  0.00    +0.000 OA
ATOM     18  H   UNL     1       3.284   6.386  21.133  0.00  0.00    +0.000 HD
BRANCH  15  23
ATOM     19  C   UNL     1       0.487   9.562  21.363  0.00  0.00    +0.000 A 
ATOM     20  C   UNL     1       0.492  10.144  20.086  0.00  0.00    +0.000 A 
ATOM     21  C   UNL     1       1.115   9.497  19.033  0.00  0.00    +0.000 A 
ATOM     22  C   UNL     1       1.732   8.260  19.235  0.00  0.00    +0.000 A 
ATOM     23  C   UNL     1       1.755   7.662  20.497  0.00  0.00    +0.000 A 
ATOM     24  C   UNL     1       1.150   8.331  21.564  0.00  0.00    +0.000 A 
BRANCH  19  26
ATOM     25  C   UNL     1      -1.116  11.363  21.957  0.00  0.00    +0.000 C 
ATOM     26  C   UNL     1      -0.320  10.177  22.481  0.00  0.00    +0.000 C 
ENDBRANCH  19  26
ENDBRANCH  15  23
ENDBRANCH   1  16
TORSDOF 5
ENDMDL
MODEL 7
REMARK VINA RESULT:      -8.4      2.303      8.101
REMARK  Name = 
REMARK  7 active torsions:
REMARK  status: ('A' for Active; 'I' for Inactive)
REMARK    1  A    between atoms: C_1  and  C_2
REMARK    2  A    between atoms: C_2  and  C_3
REMARK    3  A    between atoms: C_7  and  N_8
REMARK    4  A    between atoms: C_9  and  C_11
REMARK    5  A    between atoms: C_11  and  N_12
REMARK    6  A    between atoms: C_14  and  C_15
REMARK    7  A    between atoms: C_17  and  C_18
REMARK                            x       y       z     vdW  Elec       q    Type
REMARK                         _______ _______ _______ _____ _____    ______ ____
ROOT
ATOM      1  C   UNL     1       2.862   4.399  20.925  0.00  0.00    +0.000 C 
ENDROOT
BRANCH   1   2
ATOM      2  N   UNL     1       3.182   3.641  19.714  0.00  0.00    +0.000 N 
ATOM      3  C   UNL     1       4.036   4.193  18.765  0.00  0.00    +0.000 A 
ATOM      4  C   UNL     1       4.169   3.669  17.530  0.00  0.00    +0.000 A 
ATOM      5  C   UNL     1       3.425   2.452  17.231  0.00  0.00    +0.000 A 
ATOM      6  C   UNL     1       2.615   1.878  18.131  0.00  0.00    +0.000 A 
ATOM      7  C   UNL     1       2.430   2.497  19.467  0.00  0.00    +0.000 A 
ATOM      8  O   UNL     1       1.614   2.031  20.258  0.00  0.00    +0.000 OA
BRANCH   4   9
ATOM      9  C   UNL     1       4.950   4.380  16.555  0.00  0.00    +0.000 A 
ATOM     10  N   UNL     1       5.790   3.840  15.683  0.00  0.00    +0.000 NA
ATOM     11  C   UNL     1       6.200   4.903  14.924  0.00  0.00    +0.000 A 
ATOM     12  C   UNL     1       7.098   4.758  13.764  0.00  0.00    +0.000 C 
ATOM     13  N   UNL     1       5.693   6.079  15.292  0.00  0.00    +0.000 NA
ATOM     14  O   UNL     1       4.872   5.750  16.364  0.00  0.00    +0.000 OA
ENDBRANCH   4   9
ENDBRANCH   1   2
BRANCH   1  16
ATOM     15  N   UNL     1       2.492   6.785  20.422  0.00  0.00    +0.000 N 
ATOM     16  C   UNL     1       1.901   5.528  20.559  0.00  0.00    +0.000 C 
ATOM     17  O   UNL     1       0.687   5.294  20.521  0.00  0.00    +0.000 OA
ATOM     18  H   UNL     1       3.457   6.869  20.740  0.00  0.00    +0.000 HD
BRANCH  15  23
ATOM     19  C   UNL     1       0.387   9.839  20.855  0.00  0.00    +0.000 A 
ATOM     20  C   UNL     1       0.366  10.336  19.542  0.00  0.00    +0.000 A 
ATOM     21  C   UNL     1       1.048   9.672  18.539  0.00  0.00    +0.000 A 
ATOM     22  C   UNL     1       1.752   8.499  18.825  0.00  0.00    +0.000 A 
ATOM     23  C   UNL     1       1.802   7.987  20.123  0.00  0.00    +0.000 A 
ATOM     24  C   UNL     1       1.135   8.676  21.140  0.00  0.00    +0.000 A 
BRANCH  19  26
ATOM     25  C   UNL     1      -0.329   9.693  23.228  0.00  0.00    +0.000 C 
ATOM     26  C   UNL     1      -0.478  10.462  21.924  0.00  0.00    +0.000 C 
ENDBRANCH  19  26
ENDBRANCH  15  23
ENDBRANCH   1  16
TORSDOF 5
ENDMDL
MODEL 8
REMARK VINA RESULT:      -8.3      3.440      7.689
REMARK  Name = 
REMARK  7 active torsions:
REMARK  status: ('A' for Active; 'I' for Inactive)
REMARK    1  A    between atoms: C_1  and  C_2
REMARK    2  A    between atoms: C_2  and  C_3
REMARK    3  A    between atoms: C_7  and  N_8
REMARK    4  A    between atoms: C_9  and  C_11
REMARK    5  A    between atoms: C_11  and  N_12
REMARK    6  A    between atoms: C_14  and  C_15
REMARK    7  A    between atoms: C_17  and  C_18
REMARK                            x       y       z     vdW  Elec       q    Type
REMARK                         _______ _______ _______ _____ _____    ______ ____
ROOT
ATOM      1  C   UNL     1       2.513   3.849  21.076  0.00  0.00    +0.000 C 
ENDROOT
BRANCH   1   2
ATOM      2  N   UNL     1       3.204   3.387  19.872  0.00  0.00    +0.000 N 
ATOM      3  C   UNL     1       4.267   4.129  19.365  0.00  0.00    +0.000 A 
ATOM      4  C   UNL     1       4.775   3.904  18.136  0.00  0.00    +0.000 A 
ATOM      5  C   UNL     1       4.210   2.805  17.364  0.00  0.00    +0.000 A 
ATOM      6  C   UNL     1       3.205   2.053  17.833  0.00  0.00    +0.000 A 
ATOM      7  C   UNL     1       2.614   2.348  19.162  0.00  0.00    +0.000 A 
ATOM      8  O   UNL     1       1.629   1.727  19.553  0.00  0.00    +0.000 OA
BRANCH   4   9
ATOM      9  C   UNL     1       5.768   4.806  17.621  0.00  0.00    +0.000 A 
ATOM     10  N   UNL     1       5.989   6.045  18.039  0.00  0.00    +0.000 NA
ATOM     11  C   UNL     1       7.083   6.442  17.318  0.00  0.00    +0.000 A 
ATOM     12  C   UNL     1       7.737   7.749  17.512  0.00  0.00    +0.000 C 
ATOM     13  N   UNL     1       7.537   5.538  16.450  0.00  0.00    +0.000 NA
ATOM     14  O   UNL     1       6.681   4.460  16.637  0.00  0.00    +0.000 OA
ENDBRANCH   4   9
ENDBRANCH   1   2
BRANCH   1  16
ATOM     15  N   UNL     1       2.190   6.286  20.876  0.00  0.00    +0.000 N 
ATOM     16  C   UNL     1       1.613   5.026  20.707  0.00  0.00    +0.000 C 
ATOM     17  O   UNL     1       0.435   4.808  20.403  0.00  0.00    +0.000 OA
ATOM     18  H   UNL     1       3.075   6.315  21.383  0.00  0.00    +0.000 HD
BRANCH  15  23
ATOM     19  C   UNL     1       1.231   9.498  19.231  0.00  0.00    +0.000 A 
ATOM     20  C   UNL     1       0.322  10.016  20.167  0.00  0.00    +0.000 A 
ATOM     21  C   UNL     1       0.029   9.302  21.316  0.00  0.00    +0.000 A 
ATOM     22  C   UNL     1       0.643   8.070  21.553  0.00  0.00    +0.000 A 
ATOM     23  C   UNL     1       1.542   7.523  20.635  0.00  0.00    +0.000 A 
ATOM     24  C   UNL     1       1.814   8.233  19.462  0.00  0.00    +0.000 A 
BRANCH  19  26
ATOM     25  C   UNL     1       1.843  11.785  18.481  0.00  0.00    +0.000 C 
ATOM     26  C   UNL     1       1.678  10.333  18.056  0.00  0.00    +0.000 C 
ENDBRANCH  19  26
ENDBRANCH  15  23
ENDBRANCH   1  16
TORSDOF 5
ENDMDL
MODEL 9
REMARK VINA RESULT:      -8.3      5.146      7.452
REMARK  Name = 
REMARK  7 active torsions:
REMARK  status: ('A' for Active; 'I' for Inactive)
REMARK    1  A    between atoms: C_1  and  C_2
REMARK    2  A    between atoms: C_2  and  C_3
REMARK    3  A    between atoms: C_7  and  N_8
REMARK    4  A    between atoms: C_9  and  C_11
REMARK    5  A    between atoms: C_11  and  N_12
REMARK    6  A    between atoms: C_14  and  C_15
REMARK    7  A    between atoms: C_17  and  C_18
REMARK                            x       y       z     vdW  Elec       q    Type
REMARK                         _______ _______ _______ _____ _____    ______ ____
ROOT
ATOM      1  C   UNL     1       7.907   6.492  18.181  0.00  0.00    +0.000 C 
ENDROOT
BRANCH   1   2
ATOM      2  N   UNL     1       6.645   6.029  17.600  0.00  0.00    +0.000 N 
ATOM      3  C   UNL     1       5.535   5.857  18.422  0.00  0.00    +0.000 A 
ATOM      4  C   UNL     1       4.433   5.199  18.006  0.00  0.00    +0.000 A 
ATOM      5  C   UNL     1       4.413   4.719  16.631  0.00  0.00    +0.000 A 
ATOM      6  C   UNL     1       5.454   4.891  15.805  0.00  0.00    +0.000 A 
ATOM      7  C   UNL     1       6.685   5.563  16.291  0.00  0.00    +0.000 A 
ATOM      8  O   UNL     1       7.676   5.636  15.569  0.00  0.00    +0.000 OA
BRANCH   4   9
ATOM      9  C   UNL     1       3.390   4.927  18.957  0.00  0.00    +0.000 A 
ATOM     10  N   UNL     1       2.539   3.911  18.914  0.00  0.00    +0.000 NA
ATOM     11  C   UNL     1       1.825   4.034  20.074  0.00  0.00    +0.000 A 
ATOM     12  C   UNL     1       0.799   3.060  20.490  0.00  0.00    +0.000 C 
ATOM     13  N   UNL     1       2.155   5.086  20.824  0.00  0.00    +0.000 NA
ATOM     14  O   UNL     1       3.181   5.682  20.100  0.00  0.00    +0.000 OA
ENDBRANCH   4   9
ENDBRANCH   1   2
BRANCH   1  16
ATOM     15  N   UNL     1       8.861   8.639  18.930  0.00  0.00    +0.000 N 
ATOM     16  C   UNL     1       7.983   8.011  18.045  0.00  0.00    +0.000 C 
ATOM     17  O   UNL     1       7.209   8.583  17.269  0.00  0.00    +0.000 OA
ATOM     18  H   UNL     1       9.232   8.063  19.686  0.00  0.00    +0.000 HD
BRANCH  15  23
ATOM     19  C   UNL     1       9.481  12.024  20.381  0.00  0.00    +0.000 A 
ATOM     20  C   UNL     1       9.432  12.821  19.227  0.00  0.00    +0.000 A 
ATOM     21  C   UNL     1       9.207  12.239  17.992  0.00  0.00    +0.000 A 
ATOM     22  C   UNL     1       9.019  10.859  17.889  0.00  0.00    +0.000 A 
ATOM     23  C   UNL     1       9.075  10.038  19.017  0.00  0.00    +0.000 A 
ATOM     24  C   UNL     1       9.330  10.625  20.259  0.00  0.00    +0.000 A 
BRANCH  19  26
ATOM     25  C   UNL     1       9.973  14.120  21.617  0.00  0.00    +0.000 C 
ATOM     26  C   UNL     1       9.568  12.659  21.747  0.00  0.00    +0.000 C 
ENDBRANCH  19  26
ENDBRANCH  15  23
ENDBRANCH   1  16
TORSDOF 5
ENDMDL
