MODEL 1
REMARK VINA RESULT:      -7.9      0.000      0.000
REMARK  Name = 
REMARK  6 active torsions:
REMARK  status: ('A' for Active; 'I' for Inactive)
REMARK    1  A    between atoms: C_1  and  N_2
REMARK    2  A    between atoms: C_8  and  C_9
REMARK    3  A    between atoms: C_9  and  C_10
REMARK    4  A    between atoms: C_13  and  O_14
REMARK    5  A    between atoms: C_28  and  O_29
REMARK    6  A    between atoms: C_30  and  O_31
REMARK                            x       y       z     vdW  Elec       q    Type
REMARK                         _______ _______ _______ _____ _____    ______ ____
ROOT
ATOM      1  C   UNL     1      -3.539  14.536  22.986  0.00  0.00    +0.000 C 
ATOM      2  N   UNL     1      -2.782  13.390  22.455  0.00  0.00    +0.000 NA
ATOM      3  C   UNL     1      -1.508  13.396  23.219  0.00  0.00    +0.000 C 
ATOM      4  C   UNL     1      -0.518  14.361  22.568  0.00  0.00    +0.000 C 
ATOM      5  C   UNL     1      -0.095  13.593  21.351  0.00  0.00    +0.000 A 
ATOM      6  C   UNL     1       1.231  13.274  21.220  0.00  0.00    +0.000 A 
ATOM      7  C   UNL     1       1.542  12.257  20.360  0.00  0.00    +0.000 A 
ATOM      8  C   UNL     1       0.580  11.611  19.527  0.00  0.00    +0.000 A 
ATOM      9  C   UNL     1      -0.813  11.980  19.575  0.00  0.00    +0.000 A 
ATOM     10  C   UNL     1      -1.120  12.964  20.571  0.00  0.00    +0.000 A 
ATOM     11  C   UNL     1      -2.538  13.440  20.945  0.00  0.00    +0.000 C 
ATOM     12  C   UNL     1      -3.658  12.720  20.163  0.00  0.00    +0.000 C 
ATOM     13  C   UNL     1      -3.268  11.956  18.907  0.00  0.00    +0.000 A 
ATOM     14  C   UNL     1      -4.330  11.648  17.999  0.00  0.00    +0.000 A 
ATOM     15  C   UNL     1      -4.150  10.885  16.858  0.00  0.00    +0.000 A 
ATOM     16  C   UNL     1      -2.906  10.348  16.668  0.00  0.00    +0.000 A 
ATOM     17  C   UNL     1      -1.842  10.612  17.566  0.00  0.00    +0.000 A 
ATOM     18  C   UNL     1      -1.946  11.478  18.684  0.00  0.00    +0.000 A 
ENDROOT
BRANCH  16  19
ATOM     19  O   UNL     1      -2.606   9.530  15.601  0.00  0.00    +0.000 OA
ATOM     20  H   UNL     1      -2.295  10.086  14.867  0.00  0.00    +0.000 HD
ENDBRANCH  16  19
BRANCH  17  21
ATOM     21  O   UNL     1      -0.727   9.897  17.249  0.00  0.00    +0.000 OA
ATOM     22  H   UNL     1      -0.838   9.607  16.322  0.00  0.00    +0.000 HD
ENDBRANCH  17  21
BRANCH   8  23
ATOM     23  C   UNL     1       1.273  10.515  18.732  0.00  0.00    +0.000 C 
BRANCH  23  24
ATOM     24  C   UNL     1       1.268   9.095  19.310  0.00  0.00    +0.000 A 
ATOM     25  C   UNL     1       0.632   8.799  20.525  0.00  0.00    +0.000 A 
ATOM     26  C   UNL     1       0.926   7.615  21.209  0.00  0.00    +0.000 A 
ATOM     27  C   UNL     1       1.895   6.756  20.716  0.00  0.00    +0.000 A 
ATOM     28  C   UNL     1       2.523   6.999  19.483  0.00  0.00    +0.000 A 
ATOM     29  C   UNL     1       3.567   6.185  18.998  0.00  0.00    +0.000 A 
ATOM     30  C   UNL     1       4.133   6.401  17.742  0.00  0.00    +0.000 A 
ATOM     31  C   UNL     1       3.621   7.393  16.920  0.00  0.00    +0.000 A 
ATOM     32  C   UNL     1       2.629   8.242  17.405  0.00  0.00    +0.000 A 
ATOM     33  C   UNL     1       2.121   8.119  18.718  0.00  0.00    +0.000 A 
BRANCH  27  34
ATOM     34  O   UNL     1       2.236   5.640  21.438  0.00  0.00    +0.000 OA
ATOM     35  H   UNL     1       2.956   5.871  22.048  0.00  0.00    +0.000 HD
ENDBRANCH  27  34
ENDBRANCH  23  24
ENDBRANCH   8  23
TORSDOF 5
ENDMDL
MODEL 2
REMARK VINA RESULT:      -7.9      1.537      2.305
REMARK  Name = 
REMARK  6 active torsions:
REMARK  status: ('A' for Active; 'I' for Inactive)
REMARK    1  A    between atoms: C_1  and  N_2
REMARK    2  A    between atoms: C_8  and  C_9
REMARK    3  A    between atoms: C_9  and  C_10
REMARK    4  A    between atoms: C_13  and  O_14
REMARK    5  A    between atoms: C_28  and  O_29
REMARK    6  A    between atoms: C_30  and  O_31
REMARK                            x       y       z     vdW  Elec       q    Type
REMARK                         _______ _______ _______ _____ _____    ______ ____
ROOT
ATOM      1  C   UNL     1      -6.759  13.175  23.686  0.00  0.00    +0.000 C 
ATOM      2  N   UNL     1      -5.657  12.385  23.113  0.00  0.00    +0.000 NA
ATOM      3  C   UNL     1      -4.653  12.294  24.204  0.00  0.00    +0.000 C 
ATOM      4  C   UNL     1      -3.770  13.542  24.201  0.00  0.00    +0.000 C 
ATOM      5  C   UNL     1      -2.892  13.295  23.010  0.00  0.00    +0.000 A 
ATOM      6  C   UNL     1      -1.540  13.212  23.214  0.00  0.00    +0.000 A 
ATOM      7  C   UNL     1      -0.803  12.597  22.239  0.00  0.00    +0.000 A 
ATOM      8  C   UNL     1      -1.353  12.156  20.999  0.00  0.00    +0.000 A 
ATOM      9  C   UNL     1      -2.758  12.305  20.714  0.00  0.00    +0.000 A 
ATOM     10  C   UNL     1      -3.519  12.842  21.803  0.00  0.00    +0.000 A 
ATOM     11  C   UNL     1      -5.055  12.977  21.836  0.00  0.00    +0.000 C 
ATOM     12  C   UNL     1      -5.751  12.429  20.571  0.00  0.00    +0.000 C 
ATOM     13  C   UNL     1      -4.895  12.195  19.335  0.00  0.00    +0.000 A 
ATOM     14  C   UNL     1      -5.595  12.081  18.094  0.00  0.00    +0.000 A 
ATOM     15  C   UNL     1      -4.967  11.782  16.897  0.00  0.00    +0.000 A 
ATOM     16  C   UNL     1      -3.628  11.506  16.959  0.00  0.00    +0.000 A 
ATOM     17  C   UNL     1      -2.914  11.583  18.179  0.00  0.00    +0.000 A 
ATOM     18  C   UNL     1      -3.487  11.995  19.409  0.00  0.00    +0.000 A 
ENDROOT
BRANCH  16  19
ATOM     19  O   UNL     1      -2.893  11.146  15.850  0.00  0.00    +0.000 OA
ATOM     20  H   UNL     1      -2.897  10.177  15.782  0.00  0.00    +0.000 HD
ENDBRANCH  16  19
BRANCH  17  21
ATOM     21  O   UNL     1      -1.624  11.167  18.035  0.00  0.00    +0.000 OA
ATOM     22  H   UNL     1      -1.657  10.196  17.924  0.00  0.00    +0.000 HD
ENDBRANCH  17  21
BRANCH   8  23
ATOM     23  C   UNL     1      -0.255  11.495  20.180  0.00  0.00    +0.000 C 
BRANCH  23  24
ATOM     24  C   UNL     1       0.016  10.004  20.413  0.00  0.00    +0.000 A 
ATOM     25  C   UNL     1      -0.366   9.365  21.602  0.00  0.00    +0.000 A 
ATOM     26  C   UNL     1       0.186   8.128  21.952  0.00  0.00    +0.000 A 
ATOM     27  C   UNL     1       1.160   7.557  21.149  0.00  0.00    +0.000 A 
ATOM     28  C   UNL     1       1.538   8.147  19.931  0.00  0.00    +0.000 A 
ATOM     29  C   UNL     1       2.582   7.629  19.137  0.00  0.00    +0.000 A 
ATOM     30  C   UNL     1       2.899   8.188  17.899  0.00  0.00    +0.000 A 
ATOM     31  C   UNL     1       2.136   9.233  17.403  0.00  0.00    +0.000 A 
ATOM     32  C   UNL     1       1.138   9.793  18.199  0.00  0.00    +0.000 A 
ATOM     33  C   UNL     1       0.876   9.321  19.504  0.00  0.00    +0.000 A 
BRANCH  27  34
ATOM     34  O   UNL     1       1.756   6.385  21.544  0.00  0.00    +0.000 OA
ATOM     35  H   UNL     1       2.564   6.597  22.038  0.00  0.00    +0.000 HD
ENDBRANCH  27  34
ENDBRANCH  23  24
ENDBRANCH   8  23
TORSDOF 5
ENDMDL
MODEL 3
REMARK VINA RESULT:      -7.8      3.669      8.880
REMARK  Name = 
REMARK  6 active torsions:
REMARK  status: ('A' for Active; 'I' for Inactive)
REMARK    1  A    between atoms: C_1  and  N_2
REMARK    2  A    between atoms: C_8  and  C_9
REMARK    3  A    between atoms: C_9  and  C_10
REMARK    4  A    between atoms: C_13  and  O_14
REMARK    5  A    between atoms: C_28  and  O_29
REMARK    6  A    between atoms: C_30  and  O_31
REMARK                            x       y       z     vdW  Elec       q    Type
REMARK                         _______ _______ _______ _____ _____    ______ ____
ROOT
ATOM      1  C   UNL     1       6.957   4.186  15.513  0.00  0.00    +0.000 C 
ATOM      2  N   UNL     1       5.583   4.485  15.951  0.00  0.00    +0.000 NA
ATOM      3  C   UNL     1       5.219   5.726  15.221  0.00  0.00    +0.000 C 
ATOM      4  C   UNL     1       5.736   6.946  15.984  0.00  0.00    +0.000 C 
ATOM      5  C   UNL     1       4.775   7.021  17.133  0.00  0.00    +0.000 A 
ATOM      6  C   UNL     1       4.016   8.154  17.264  0.00  0.00    +0.000 A 
ATOM      7  C   UNL     1       2.887   8.058  18.032  0.00  0.00    +0.000 A 
ATOM      8  C   UNL     1       2.541   6.892  18.778  0.00  0.00    +0.000 A 
ATOM      9  C   UNL     1       3.363   5.709  18.732  0.00  0.00    +0.000 A 
ATOM     10  C   UNL     1       4.469   5.803  17.825  0.00  0.00    +0.000 A 
ATOM     11  C   UNL     1       5.426   4.649  17.465  0.00  0.00    +0.000 C 
ATOM     12  C   UNL     1       5.068   3.312  18.149  0.00  0.00    +0.000 C 
ATOM     13  C   UNL     1       4.118   3.355  19.337  0.00  0.00    +0.000 A 
ATOM     14  C   UNL     1       4.117   2.205  20.186  0.00  0.00    +0.000 A 
ATOM     15  C   UNL     1       3.248   2.056  21.254  0.00  0.00    +0.000 A 
ATOM     16  C   UNL     1       2.308   3.036  21.422  0.00  0.00    +0.000 A 
ATOM     17  C   UNL     1       2.268   4.173  20.579  0.00  0.00    +0.000 A 
ATOM     18  C   UNL     1       3.204   4.427  19.544  0.00  0.00    +0.000 A 
ENDROOT
BRANCH  16  19
ATOM     19  O   UNL     1       1.354   2.986  22.415  0.00  0.00    +0.000 OA
ATOM     20  H   UNL     1       1.206   3.888  22.743  0.00  0.00    +0.000 HD
ENDBRANCH  16  19
BRANCH  17  21
ATOM     21  O   UNL     1       1.193   4.965  20.853  0.00  0.00    +0.000 OA
ATOM     22  H   UNL     1       0.735   5.114  20.002  0.00  0.00    +0.000 HD
ENDBRANCH  17  21
BRANCH   8  23
ATOM     23  C   UNL     1       1.215   7.134  19.482  0.00  0.00    +0.000 C 
BRANCH  23  24
ATOM     24  C   UNL     1       1.085   8.385  20.359  0.00  0.00    +0.000 A 
ATOM     25  C   UNL     1       1.508   8.391  21.697  0.00  0.00    +0.000 A 
ATOM     26  C   UNL     1       1.072   9.390  22.574  0.00  0.00    +0.000 A 
ATOM     27  C   UNL     1       0.172  10.347  22.136  0.00  0.00    +0.000 A 
ATOM     28  C   UNL     1      -0.242  10.397  20.793  0.00  0.00    +0.000 A 
ATOM     29  C   UNL     1      -1.217  11.309  20.340  0.00  0.00    +0.000 A 
ATOM     30  C   UNL     1      -1.566  11.390  18.993  0.00  0.00    +0.000 A 
ATOM     31  C   UNL     1      -0.899  10.607  18.063  0.00  0.00    +0.000 A 
ATOM     32  C   UNL     1       0.026   9.661  18.500  0.00  0.00    +0.000 A 
ATOM     33  C   UNL     1       0.311   9.478  19.872  0.00  0.00    +0.000 A 
BRANCH  27  34
ATOM     34  O   UNL     1      -0.315  11.272  23.026  0.00  0.00    +0.000 OA
ATOM     35  H   UNL     1      -0.653  10.806  23.807  0.00  0.00    +0.000 HD
ENDBRANCH  27  34
ENDBRANCH  23  24
ENDBRANCH   8  23
TORSDOF 5
ENDMDL
MODEL 4
REMARK VINA RESULT:      -7.7      2.210      4.893
REMARK  Name = 
REMARK  6 active torsions:
REMARK  status: ('A' for Active; 'I' for Inactive)
REMARK    1  A    between atoms: C_1  and  N_2
REMARK    2  A    between atoms: C_8  and  C_9
REMARK    3  A    between atoms: C_9  and  C_10
REMARK    4  A    between atoms: C_13  and  O_14
REMARK    5  A    between atoms: C_28  and  O_29
REMARK    6  A    between atoms: C_30  and  O_31
REMARK                            x       y       z     vdW  Elec       q    Type
REMARK                         _______ _______ _______ _____ _____    ______ ____
ROOT
ATOM      1  C   UNL     1      -7.353  12.786  18.982  0.00  0.00    +0.000 C 
ATOM      2  N   UNL     1      -5.940  13.019  18.639  0.00  0.00    +0.000 NA
ATOM      3  C   UNL     1      -5.719  12.226  17.402  0.00  0.00    +0.000 C 
ATOM      4  C   UNL     1      -5.400  10.776  17.766  0.00  0.00    +0.000 C 
ATOM      5  C   UNL     1      -3.991  10.888  18.267  0.00  0.00    +0.000 A 
ATOM      6  C   UNL     1      -3.016  10.186  17.608  0.00  0.00    +0.000 A 
ATOM      7  C   UNL     1      -1.724  10.595  17.794  0.00  0.00    +0.000 A 
ATOM      8  C   UNL     1      -1.349  11.621  18.712  0.00  0.00    +0.000 A 
ATOM      9  C   UNL     1      -2.341  12.324  19.487  0.00  0.00    +0.000 A 
ATOM     10  C   UNL     1      -3.690  11.952  19.179  0.00  0.00    +0.000 A 
ATOM     11  C   UNL     1      -4.953  12.635  19.744  0.00  0.00    +0.000 C 
ATOM     12  C   UNL     1      -4.647  13.829  20.673  0.00  0.00    +0.000 C 
ATOM     13  C   UNL     1      -3.233  13.956  21.223  0.00  0.00    +0.000 A 
ATOM     14  C   UNL     1      -3.074  14.800  22.366  0.00  0.00    +0.000 A 
ATOM     15  C   UNL     1      -1.841  15.085  22.928  0.00  0.00    +0.000 A 
ATOM     16  C   UNL     1      -0.742  14.588  22.282  0.00  0.00    +0.000 A 
ATOM     17  C   UNL     1      -0.868  13.772  21.131  0.00  0.00    +0.000 A 
ATOM     18  C   UNL     1      -2.110  13.358  20.585  0.00  0.00    +0.000 A 
ENDROOT
BRANCH  16  19
ATOM     19  O   UNL     1       0.544  14.839  22.707  0.00  0.00    +0.000 OA
ATOM     20  H   UNL     1       0.983  13.988  22.873  0.00  0.00    +0.000 HD
ENDBRANCH  16  19
BRANCH  17  21
ATOM     21  O   UNL     1       0.346  13.476  20.588  0.00  0.00    +0.000 OA
ATOM     22  H   UNL     1       0.936  13.254  21.335  0.00  0.00    +0.000 HD
ENDBRANCH  17  21
BRANCH   8  23
ATOM     23  C   UNL     1       0.155  11.830  18.629  0.00  0.00    +0.000 C 
BRANCH  23  24
ATOM     24  C   UNL     1       1.063  10.615  18.855  0.00  0.00    +0.000 A 
ATOM     25  C   UNL     1       1.854  10.088  17.824  0.00  0.00    +0.000 A 
ATOM     26  C   UNL     1       2.391   8.801  17.929  0.00  0.00    +0.000 A 
ATOM     27  C   UNL     1       2.093   8.018  19.033  0.00  0.00    +0.000 A 
ATOM     28  C   UNL     1       1.338   8.527  20.103  0.00  0.00    +0.000 A 
ATOM     29  C   UNL     1       0.952   7.726  21.199  0.00  0.00    +0.000 A 
ATOM     30  C   UNL     1       0.261   8.264  22.284  0.00  0.00    +0.000 A 
ATOM     31  C   UNL     1       0.000   9.625  22.325  0.00  0.00    +0.000 A 
ATOM     32  C   UNL     1       0.323  10.419  21.226  0.00  0.00    +0.000 A 
ATOM     33  C   UNL     1       0.917   9.876  20.065  0.00  0.00    +0.000 A 
BRANCH  27  34
ATOM     34  O   UNL     1       2.555   6.726  19.087  0.00  0.00    +0.000 OA
ATOM     35  H   UNL     1       2.982   6.512  18.242  0.00  0.00    +0.000 HD
ENDBRANCH  27  34
ENDBRANCH  23  24
ENDBRANCH   8  23
TORSDOF 5
ENDMDL
MODEL 5
REMARK VINA RESULT:      -7.4      3.759      5.571
REMARK  Name = 
REMARK  6 active torsions:
REMARK  status: ('A' for Active; 'I' for Inactive)
REMARK    1  A    between atoms: C_1  and  N_2
REMARK    2  A    between atoms: C_8  and  C_9
REMARK    3  A    between atoms: C_9  and  C_10
REMARK    4  A    between atoms: C_13  and  O_14
REMARK    5  A    between atoms: C_28  and  O_29
REMARK    6  A    between atoms: C_30  and  O_31
REMARK                            x       y       z     vdW  Elec       q    Type
REMARK                         _______ _______ _______ _____ _____    ______ ____
ROOT
ATOM      1  C   UNL     1      -6.242  12.998  23.819  0.00  0.00    +0.000 C 
ATOM      2  N   UNL     1      -4.988  12.460  23.264  0.00  0.00    +0.000 NA
ATOM      3  C   UNL     1      -3.971  12.722  24.314  0.00  0.00    +0.000 C 
ATOM      4  C   UNL     1      -3.432  14.145  24.170  0.00  0.00    +0.000 C 
ATOM      5  C   UNL     1      -2.547  14.019  22.966  0.00  0.00    +0.000 A 
ATOM      6  C   UNL     1      -1.214  14.296  23.115  0.00  0.00    +0.000 A 
ATOM      7  C   UNL     1      -0.367  13.799  22.162  0.00  0.00    +0.000 A 
ATOM      8  C   UNL     1      -0.815  13.124  20.988  0.00  0.00    +0.000 A 
ATOM      9  C   UNL     1      -2.218  12.891  20.754  0.00  0.00    +0.000 A 
ATOM     10  C   UNL     1      -3.066  13.317  21.828  0.00  0.00    +0.000 A 
ATOM     11  C   UNL     1      -4.585  13.066  21.917  0.00  0.00    +0.000 C 
ATOM     12  C   UNL     1      -5.147  12.249  20.734  0.00  0.00    +0.000 C 
ATOM     13  C   UNL     1      -4.287  12.126  19.485  0.00  0.00    +0.000 A 
ATOM     14  C   UNL     1      -4.963  11.729  18.289  0.00  0.00    +0.000 A 
ATOM     15  C   UNL     1      -4.306  11.489  17.095  0.00  0.00    +0.000 A 
ATOM     16  C   UNL     1      -2.940  11.563  17.120  0.00  0.00    +0.000 A 
ATOM     17  C   UNL     1      -2.241  11.926  18.297  0.00  0.00    +0.000 A 
ATOM     18  C   UNL     1      -2.873  12.292  19.513  0.00  0.00    +0.000 A 
ENDROOT
BRANCH  16  19
ATOM     19  O   UNL     1      -2.162  11.299  16.013  0.00  0.00    +0.000 OA
ATOM     20  H   UNL     1      -1.512  12.014  15.919  0.00  0.00    +0.000 HD
ENDBRANCH  16  19
BRANCH  17  21
ATOM     21  O   UNL     1      -0.892  11.835  18.131  0.00  0.00    +0.000 OA
ATOM     22  H   UNL     1      -0.570  12.744  17.972  0.00  0.00    +0.000 HD
ENDBRANCH  17  21
BRANCH   8  23
ATOM     23  C   UNL     1       0.397  12.687  20.179  0.00  0.00    +0.000 C 
BRANCH  23  24
ATOM     24  C   UNL     1       1.522  13.706  19.962  0.00  0.00    +0.000 A 
ATOM     25  C   UNL     1       2.806  13.505  20.490  0.00  0.00    +0.000 A 
ATOM     26  C   UNL     1       3.704  14.572  20.596  0.00  0.00    +0.000 A 
ATOM     27  C   UNL     1       3.305  15.848  20.232  0.00  0.00    +0.000 A 
ATOM     28  C   UNL     1       2.041  16.080  19.662  0.00  0.00    +0.000 A 
ATOM     29  C   UNL     1       1.581  17.378  19.359  0.00  0.00    +0.000 A 
ATOM     30  C   UNL     1       0.352  17.585  18.732  0.00  0.00    +0.000 A 
ATOM     31  C   UNL     1      -0.409  16.495  18.337  0.00  0.00    +0.000 A 
ATOM     32  C   UNL     1       0.005  15.209  18.680  0.00  0.00    +0.000 A 
ATOM     33  C   UNL     1       1.187  14.980  19.418  0.00  0.00    +0.000 A 
BRANCH  27  34
ATOM     34  O   UNL     1       4.164  16.902  20.418  0.00  0.00    +0.000 OA
ATOM     35  H   UNL     1       4.974  16.738  19.908  0.00  0.00    +0.000 HD
ENDBRANCH  27  34
ENDBRANCH  23  24
ENDBRANCH   8  23
TORSDOF 5
ENDMDL
MODEL 6
REMARK VINA RESULT:      -7.2      3.846      6.941
REMARK  Name = 
REMARK  6 active torsions:
REMARK  status: ('A' for Active; 'I' for Inactive)
REMARK    1  A    between atoms: C_1  and  N_2
REMARK    2  A    between atoms: C_8  and  C_9
REMARK    3  A    between atoms: C_9  and  C_10
REMARK    4  A    between atoms: C_13  and  O_14
REMARK    5  A    between atoms: C_28  and  O_29
REMARK    6  A    between atoms: C_30  and  O_31
REMARK                            x       y       z     vdW  Elec       q    Type
REMARK                         _______ _______ _______ _____ _____    ______ ____
ROOT
ATOM      1  C   UNL     1      -6.215  11.297  17.991  0.00  0.00    +0.000 C 
ATOM      2  N   UNL     1      -4.956  12.033  18.196  0.00  0.00    +0.000 NA
ATOM      3  C   UNL     1      -4.120  11.680  17.020  0.00  0.00    +0.000 C 
ATOM      4  C   UNL     1      -3.398  10.357  17.275  0.00  0.00    +0.000 C 
ATOM      5  C   UNL     1      -2.332  10.771  18.245  0.00  0.00    +0.000 A 
ATOM      6  C   UNL     1      -1.024  10.590  17.879  0.00  0.00    +0.000 A 
ATOM      7  C   UNL     1      -0.084  11.320  18.556  0.00  0.00    +0.000 A 
ATOM      8  C   UNL     1      -0.391  12.150  19.675  0.00  0.00    +0.000 A 
ATOM      9  C   UNL     1      -1.746  12.296  20.143  0.00  0.00    +0.000 A 
ATOM     10  C   UNL     1      -2.717  11.614  19.338  0.00  0.00    +0.000 A 
ATOM     11  C   UNL     1      -4.246  11.711  19.514  0.00  0.00    +0.000 C 
ATOM     12  C   UNL     1      -4.679  12.671  20.642  0.00  0.00    +0.000 C 
ATOM     13  C   UNL     1      -3.629  13.088  21.661  0.00  0.00    +0.000 A 
ATOM     14  C   UNL     1      -4.121  13.629  22.890  0.00  0.00    +0.000 A 
ATOM     15  C   UNL     1      -3.292  14.132  23.879  0.00  0.00    +0.000 A 
ATOM     16  C   UNL     1      -1.954  14.175  23.595  0.00  0.00    +0.000 A 
ATOM     17  C   UNL     1      -1.441  13.673  22.375  0.00  0.00    +0.000 A 
ATOM     18  C   UNL     1      -2.234  13.045  21.380  0.00  0.00    +0.000 A 
ENDROOT
BRANCH  16  19
ATOM     19  O   UNL     1      -1.027  14.697  24.471  0.00  0.00    +0.000 OA
ATOM     20  H   UNL     1      -0.154  14.667  24.047  0.00  0.00    +0.000 HD
ENDBRANCH  16  19
BRANCH  17  21
ATOM     21  O   UNL     1      -0.105  13.910  22.254  0.00  0.00    +0.000 OA
ATOM     22  H   UNL     1      -0.014  14.690  21.671  0.00  0.00    +0.000 HD
ENDBRANCH  17  21
BRANCH   8  23
ATOM     23  C   UNL     1       0.886  12.827  20.150  0.00  0.00    +0.000 C 
BRANCH  23  24
ATOM     24  C   UNL     1       1.578  13.806  19.194  0.00  0.00    +0.000 A 
ATOM     25  C   UNL     1       2.883  13.580  18.731  0.00  0.00    +0.000 A 
ATOM     26  C   UNL     1       3.624  14.623  18.164  0.00  0.00    +0.000 A 
ATOM     27  C   UNL     1       3.089  15.899  18.112  0.00  0.00    +0.000 A 
ATOM     28  C   UNL     1       1.771  16.154  18.528  0.00  0.00    +0.000 A 
ATOM     29  C   UNL     1       1.232  17.457  18.561  0.00  0.00    +0.000 A 
ATOM     30  C   UNL     1      -0.098  17.683  18.913  0.00  0.00    +0.000 A 
ATOM     31  C   UNL     1      -0.932  16.607  19.174  0.00  0.00    +0.000 A 
ATOM     32  C   UNL     1      -0.401  15.319  19.202  0.00  0.00    +0.000 A 
ATOM     33  C   UNL     1       0.970  15.074  18.965  0.00  0.00    +0.000 A 
BRANCH  27  34
ATOM     34  O   UNL     1       3.856  16.932  17.631  0.00  0.00    +0.000 OA
ATOM     35  H   UNL     1       4.047  17.544  18.359  0.00  0.00    +0.000 HD
ENDBRANCH  27  34
ENDBRANCH  23  24
ENDBRANCH   8  23
TORSDOF 5
ENDMDL
MODEL 7
REMARK VINA RESULT:      -7.1      3.130      7.812
REMARK  Name = 
REMARK  6 active torsions:
REMARK  status: ('A' for Active; 'I' for Inactive)
REMARK    1  A    between atoms: C_1  and  N_2
REMARK    2  A    between atoms: C_8  and  C_9
REMARK    3  A    between atoms: C_9  and  C_10
REMARK    4  A    between atoms: C_13  and  O_14
REMARK    5  A    between atoms: C_28  and  O_29
REMARK    6  A    between atoms: C_30  and  O_31
REMARK                            x       y       z     vdW  Elec       q    Type
REMARK                         _______ _______ _______ _____ _____    ______ ____
ROOT
ATOM      1  C   UNL     1       1.940   9.263  18.508  0.00  0.00    +0.000 C 
ATOM      2  N   UNL     1       1.083  10.451  18.655  0.00  0.00    +0.000 NA
ATOM      3  C   UNL     1       1.634  11.167  19.835  0.00  0.00    +0.000 C 
ATOM      4  C   UNL     1       1.050  10.577  21.119  0.00  0.00    +0.000 C 
ATOM      5  C   UNL     1      -0.346  11.125  21.102  0.00  0.00    +0.000 A 
ATOM      6  C   UNL     1      -0.735  11.927  22.143  0.00  0.00    +0.000 A 
ATOM      7  C   UNL     1      -1.819  12.735  21.932  0.00  0.00    +0.000 A 
ATOM      8  C   UNL     1      -2.612  12.692  20.746  0.00  0.00    +0.000 A 
ATOM      9  C   UNL     1      -2.283  11.798  19.664  0.00  0.00    +0.000 A 
ATOM     10  C   UNL     1      -1.075  11.055  19.869  0.00  0.00    +0.000 A 
ATOM     11  C   UNL     1      -0.406  10.137  18.826  0.00  0.00    +0.000 C 
ATOM     12  C   UNL     1      -1.140  10.105  17.469  0.00  0.00    +0.000 C 
ATOM     13  C   UNL     1      -2.569  10.627  17.423  0.00  0.00    +0.000 A 
ATOM     14  C   UNL     1      -3.351  10.228  16.294  0.00  0.00    +0.000 A 
ATOM     15  C   UNL     1      -4.636  10.689  16.065  0.00  0.00    +0.000 A 
ATOM     16  C   UNL     1      -5.114  11.633  16.934  0.00  0.00    +0.000 A 
ATOM     17  C   UNL     1      -4.350  12.068  18.045  0.00  0.00    +0.000 A 
ATOM     18  C   UNL     1      -3.078  11.543  18.386  0.00  0.00    +0.000 A 
ENDROOT
BRANCH  16  19
ATOM     19  O   UNL     1      -6.357  12.210  16.792  0.00  0.00    +0.000 OA
ATOM     20  H   UNL     1      -6.538  12.745  17.582  0.00  0.00    +0.000 HD
ENDBRANCH  16  19
BRANCH  17  21
ATOM     21  O   UNL     1      -4.967  13.082  18.714  0.00  0.00    +0.000 OA
ATOM     22  H   UNL     1      -4.290  13.773  18.855  0.00  0.00    +0.000 HD
ENDBRANCH  17  21
BRANCH   8  23
ATOM     23  C   UNL     1      -3.705  13.744  20.847  0.00  0.00    +0.000 C 
BRANCH  23  24
ATOM     24  C   UNL     1      -4.624  13.710  22.075  0.00  0.00    +0.000 A 
ATOM     25  C   UNL     1      -5.550  12.674  22.270  0.00  0.00    +0.000 A 
ATOM     26  C   UNL     1      -6.605  12.828  23.176  0.00  0.00    +0.000 A 
ATOM     27  C   UNL     1      -6.771  14.031  23.842  0.00  0.00    +0.000 A 
ATOM     28  C   UNL     1      -5.841  15.075  23.702  0.00  0.00    +0.000 A 
ATOM     29  C   UNL     1      -6.030  16.336  24.305  0.00  0.00    +0.000 A 
ATOM     30  C   UNL     1      -5.065  17.338  24.211  0.00  0.00    +0.000 A 
ATOM     31  C   UNL     1      -3.864  17.076  23.570  0.00  0.00    +0.000 A 
ATOM     32  C   UNL     1      -3.684  15.856  22.921  0.00  0.00    +0.000 A 
ATOM     33  C   UNL     1      -4.695  14.869  22.901  0.00  0.00    +0.000 A 
BRANCH  27  34
ATOM     34  O   UNL     1      -7.857  14.202  24.665  0.00  0.00    +0.000 OA
ATOM     35  H   UNL     1      -8.660  13.959  24.176  0.00  0.00    +0.000 HD
ENDBRANCH  27  34
ENDBRANCH  23  24
ENDBRANCH   8  23
TORSDOF 5
ENDMDL
MODEL 8
REMARK VINA RESULT:      -7.1      4.499      7.087
REMARK  Name = 
REMARK  6 active torsions:
REMARK  status: ('A' for Active; 'I' for Inactive)
REMARK    1  A    between atoms: C_1  and  N_2
REMARK    2  A    between atoms: C_8  and  C_9
REMARK    3  A    between atoms: C_9  and  C_10
REMARK    4  A    between atoms: C_13  and  O_14
REMARK    5  A    between atoms: C_28  and  O_29
REMARK    6  A    between atoms: C_30  and  O_31
REMARK                            x       y       z     vdW  Elec       q    Type
REMARK                         _______ _______ _______ _____ _____    ______ ____
ROOT
ATOM      1  C   UNL     1      -7.272  11.961  18.804  0.00  0.00    +0.000 C 
ATOM      2  N   UNL     1      -6.019  12.729  18.892  0.00  0.00    +0.000 NA
ATOM      3  C   UNL     1      -5.407  12.602  17.544  0.00  0.00    +0.000 C 
ATOM      4  C   UNL     1      -4.612  11.300  17.455  0.00  0.00    +0.000 C 
ATOM      5  C   UNL     1      -3.396  11.626  18.270  0.00  0.00    +0.000 A 
ATOM      6  C   UNL     1      -2.174  11.577  17.652  0.00  0.00    +0.000 A 
ATOM      7  C   UNL     1      -1.147  12.251  18.254  0.00  0.00    +0.000 A 
ATOM      8  C   UNL     1      -1.263  12.887  19.526  0.00  0.00    +0.000 A 
ATOM      9  C   UNL     1      -2.512  12.884  20.247  0.00  0.00    +0.000 A 
ATOM     10  C   UNL     1      -3.595  12.275  19.533  0.00  0.00    +0.000 A 
ATOM     11  C   UNL     1      -5.067  12.257  19.994  0.00  0.00    +0.000 C 
ATOM     12  C   UNL     1      -5.310  13.013  21.318  0.00  0.00    +0.000 C 
ATOM     13  C   UNL     1      -4.100  13.334  22.183  0.00  0.00    +0.000 A 
ATOM     14  C   UNL     1      -4.370  13.657  23.550  0.00  0.00    +0.000 A 
ATOM     15  C   UNL     1      -3.386  14.055  24.440  0.00  0.00    +0.000 A 
ATOM     16  C   UNL     1      -2.126  14.217  23.931  0.00  0.00    +0.000 A 
ATOM     17  C   UNL     1      -1.836  13.931  22.574  0.00  0.00    +0.000 A 
ATOM     18  C   UNL     1      -2.781  13.412  21.653  0.00  0.00    +0.000 A 
ENDROOT
BRANCH  16  19
ATOM     19  O   UNL     1      -1.068  14.655  24.696  0.00  0.00    +0.000 OA
ATOM     20  H   UNL     1      -1.251  14.439  25.625  0.00  0.00    +0.000 HD
ENDBRANCH  16  19
BRANCH  17  21
ATOM     21  O   UNL     1      -0.553  14.260  22.254  0.00  0.00    +0.000 OA
ATOM     22  H   UNL     1      -0.112  14.504  23.092  0.00  0.00    +0.000 HD
ENDBRANCH  17  21
BRANCH   8  23
ATOM     23  C   UNL     1       0.059  13.558  19.863  0.00  0.00    +0.000 C 
BRANCH  23  24
ATOM     24  C   UNL     1       0.273  15.002  19.392  0.00  0.00    +0.000 A 
ATOM     25  C   UNL     1      -0.808  15.864  19.155  0.00  0.00    +0.000 A 
ATOM     26  C   UNL     1      -0.633  17.030  18.403  0.00  0.00    +0.000 A 
ATOM     27  C   UNL     1       0.602  17.308  17.839  0.00  0.00    +0.000 A 
ATOM     28  C   UNL     1       1.717  16.489  18.089  0.00  0.00    +0.000 A 
ATOM     29  C   UNL     1       2.963  16.704  17.464  0.00  0.00    +0.000 A 
ATOM     30  C   UNL     1       4.075  15.923  17.775  0.00  0.00    +0.000 A 
ATOM     31  C   UNL     1       3.981  14.957  18.765  0.00  0.00    +0.000 A 
ATOM     32  C   UNL     1       2.744  14.694  19.351  0.00  0.00    +0.000 A 
ATOM     33  C   UNL     1       1.577  15.390  18.969  0.00  0.00    +0.000 A 
BRANCH  27  34
ATOM     34  O   UNL     1       0.743  18.410  17.033  0.00  0.00    +0.000 OA
ATOM     35  H   UNL     1       0.691  19.208  17.585  0.00  0.00    +0.000 HD
ENDBRANCH  27  34
ENDBRANCH  23  24
ENDBRANCH   8  23
TORSDOF 5
ENDMDL
MODEL 9
REMARK VINA RESULT:      -7.0      7.731     10.053
REMARK  Name = 
REMARK  6 active torsions:
REMARK  status: ('A' for Active; 'I' for Inactive)
REMARK    1  A    between atoms: C_1  and  N_2
REMARK    2  A    between atoms: C_8  and  C_9
REMARK    3  A    between atoms: C_9  and  C_10
REMARK    4  A    between atoms: C_13  and  O_14
REMARK    5  A    between atoms: C_28  and  O_29
REMARK    6  A    between atoms: C_30  and  O_31
REMARK                            x       y       z     vdW  Elec       q    Type
REMARK                         _______ _______ _______ _____ _____    ______ ____
ROOT
ATOM      1  C   UNL     1       1.676  15.998  19.941  0.00  0.00    +0.000 C 
ATOM      2  N   UNL     1       3.090  16.385  20.075  0.00  0.00    +0.000 NA
ATOM      3  C   UNL     1       3.521  16.718  18.693  0.00  0.00    +0.000 C 
ATOM      4  C   UNL     1       3.931  15.442  17.957  0.00  0.00    +0.000 C 
ATOM      5  C   UNL     1       5.260  15.139  18.584  0.00  0.00    +0.000 A 
ATOM      6  C   UNL     1       6.363  15.108  17.773  0.00  0.00    +0.000 A 
ATOM      7  C   UNL     1       7.582  15.241  18.378  0.00  0.00    +0.000 A 
ATOM      8  C   UNL     1       7.755  15.290  19.794  0.00  0.00    +0.000 A 
ATOM      9  C   UNL     1       6.622  15.238  20.683  0.00  0.00    +0.000 A 
ATOM     10  C   UNL     1       5.356  15.220  20.012  0.00  0.00    +0.000 A 
ATOM     11  C   UNL     1       3.980  15.309  20.704  0.00  0.00    +0.000 C 
ATOM     12  C   UNL     1       4.068  15.468  22.237  0.00  0.00    +0.000 C 
ATOM     13  C   UNL     1       5.393  15.141  22.910  0.00  0.00    +0.000 A 
ATOM     14  C   UNL     1       5.344  14.905  24.319  0.00  0.00    +0.000 A 
ATOM     15  C   UNL     1       6.475  14.681  25.086  0.00  0.00    +0.000 A 
ATOM     16  C   UNL     1       7.681  14.782  24.447  0.00  0.00    +0.000 A 
ATOM     17  C   UNL     1       7.760  15.043  23.057  0.00  0.00    +0.000 A 
ATOM     18  C   UNL     1       6.631  15.166  22.208  0.00  0.00    +0.000 A 
ENDROOT
BRANCH  16  19
ATOM     19  O   UNL     1       8.883  14.632  25.103  0.00  0.00    +0.000 OA
ATOM     20  H   UNL     1       9.532  14.277  24.475  0.00  0.00    +0.000 HD
ENDBRANCH  16  19
BRANCH  17  21
ATOM     21  O   UNL     1       9.050  15.208  22.649  0.00  0.00    +0.000 OA
ATOM     22  H   UNL     1       9.165  14.641  21.860  0.00  0.00    +0.000 HD
ENDBRANCH  17  21
BRANCH   8  23
ATOM     23  C   UNL     1       9.233  15.472  20.104  0.00  0.00    +0.000 C 
BRANCH  23  24
ATOM     24  C   UNL     1      10.251  14.822  19.158  0.00  0.00    +0.000 A 
ATOM     25  C   UNL     1      11.002  15.585  18.252  0.00  0.00    +0.000 A 
ATOM     26  C   UNL     1      11.648  14.971  17.173  0.00  0.00    +0.000 A 
ATOM     27  C   UNL     1      11.497  13.610  16.964  0.00  0.00    +0.000 A 
ATOM     28  C   UNL     1      10.786  12.808  17.872  0.00  0.00    +0.000 A 
ATOM     29  C   UNL     1      10.550  11.437  17.641  0.00  0.00    +0.000 A 
ATOM     30  C   UNL     1       9.901  10.642  18.584  0.00  0.00    +0.000 A 
ATOM     31  C   UNL     1       9.535  11.186  19.805  0.00  0.00    +0.000 A 
ATOM     32  C   UNL     1       9.709  12.551  20.028  0.00  0.00    +0.000 A 
ATOM     33  C   UNL     1      10.256  13.401  19.042  0.00  0.00    +0.000 A 
BRANCH  27  34
ATOM     34  O   UNL     1      12.065  13.032  15.855  0.00  0.00    +0.000 OA
ATOM     35  H   UNL     1      12.014  13.659  15.116  0.00  0.00    +0.000 HD
ENDBRANCH  27  34
ENDBRANCH  23  24
ENDBRANCH   8  23
TORSDOF 5
ENDMDL
