MODEL 1
REMARK VINA RESULT:      -6.9      0.000      0.000
REMARK  Name = 
REMARK  9 active torsions:
REMARK  status: ('A' for Active; 'I' for Inactive)
REMARK    1  A    between atoms: C_1  and  C_2
REMARK    2  A    between atoms: C_2  and  N_3
REMARK    3  A    between atoms: N_3  and  C_9
REMARK    4  A    between atoms: N_6  and  C_7
REMARK    5  A    between atoms: N_6  and  C_8
REMARK    6  A    between atoms: C_12  and  C_13
REMARK    7  A    between atoms: C_13  and  O_14
REMARK    8  A    between atoms: C_13  and  C_15
REMARK    9  A    between atoms: C_13  and  C_19
REMARK                            x       y       z     vdW  Elec       q    Type
REMARK                         _______ _______ _______ _____ _____    ______ ____
ROOT
ATOM      1  C   UNL     1       1.007   9.640  18.919  0.00  0.00    +0.000 A 
ATOM      2  C   UNL     1       1.216   8.946  20.102  0.00  0.00    +0.000 A 
ATOM      3  C   UNL     1       1.916   7.733  20.090  0.00  0.00    +0.000 A 
ATOM      4  C   UNL     1       2.413   7.179  18.880  0.00  0.00    +0.000 A 
ATOM      5  C   UNL     1       2.202   7.913  17.706  0.00  0.00    +0.000 A 
ATOM      6  C   UNL     1       1.517   9.128  17.723  0.00  0.00    +0.000 A 
ENDROOT
BRANCH   1   7
ATOM      7  N   UNL     1       0.324  10.900  18.910  0.00  0.00    +0.000 N 
ATOM      8  C   UNL     1       1.149  12.015  18.800  0.00  0.00    +0.000 C 
ATOM      9  O   UNL     1       2.367  11.831  18.626  0.00  0.00    +0.000 OA
ATOM     10  N   UNL     1       0.696  13.324  18.847  0.00  0.00    +0.000 N 
ATOM     11  C   UNL     1      -0.612  13.914  19.099  0.00  0.00    +0.000 C 
ATOM     12  C   UNL     1       1.708  14.360  18.615  0.00  0.00    +0.000 C 
BRANCH   7  14
ATOM     13  C   UNL     1      -2.051  10.373  18.089  0.00  0.00    +0.000 C 
ATOM     14  C   UNL     1      -1.117  10.822  19.218  0.00  0.00    +0.000 C 
ENDBRANCH   7  14
ENDBRANCH   1   7
BRANCH   4  15
ATOM     15  C   UNL     1       3.130   5.812  18.843  0.00  0.00    +0.000 C 
BRANCH  15  16
ATOM     16  C   UNL     1       2.146   4.664  18.479  0.00  0.00    +0.000 C 
ATOM     17  F   UNL     1       1.343   4.986  17.432  0.00  0.00    +0.000 F 
ATOM     18  F   UNL     1       2.680   3.469  18.184  0.00  0.00    +0.000 F 
ATOM     19  F   UNL     1       1.287   4.460  19.520  0.00  0.00    +0.000 F 
ENDBRANCH  15  16
BRANCH  15  20
ATOM     20  C   UNL     1       4.349   5.795  17.877  0.00  0.00    +0.000 C 
ATOM     21  F   UNL     1       4.982   6.994  17.818  0.00  0.00    +0.000 F 
ATOM     22  F   UNL     1       5.292   4.902  18.281  0.00  0.00    +0.000 F 
ATOM     23  F   UNL     1       4.067   5.472  16.598  0.00  0.00    +0.000 F 
ENDBRANCH  15  20
BRANCH  15  24
ATOM     24  O   UNL     1       3.624   5.585  20.219  0.00  0.00    +0.000 OA
ATOM     25  H   UNL     1       4.556   5.884  20.243  0.00  0.00    +0.000 HD
ENDBRANCH  15  24
ENDBRANCH   4  15
TORSDOF 6
ENDMDL
MODEL 2
REMARK VINA RESULT:      -6.9      0.121      1.449
REMARK  Name = 
REMARK  9 active torsions:
REMARK  status: ('A' for Active; 'I' for Inactive)
REMARK    1  A    between atoms: C_1  and  C_2
REMARK    2  A    between atoms: C_2  and  N_3
REMARK    3  A    between atoms: N_3  and  C_9
REMARK    4  A    between atoms: N_6  and  C_7
REMARK    5  A    between atoms: N_6  and  C_8
REMARK    6  A    between atoms: C_12  and  C_13
REMARK    7  A    between atoms: C_13  and  O_14
REMARK    8  A    between atoms: C_13  and  C_15
REMARK    9  A    between atoms: C_13  and  C_19
REMARK                            x       y       z     vdW  Elec       q    Type
REMARK                         _______ _______ _______ _____ _____    ______ ____
ROOT
ATOM      1  C   UNL     1       1.071   9.728  18.879  0.00  0.00    +0.000 A 
ATOM      2  C   UNL     1       1.535   9.195  17.685  0.00  0.00    +0.000 A 
ATOM      3  C   UNL     1       2.162   7.941  17.674  0.00  0.00    +0.000 A 
ATOM      4  C   UNL     1       2.349   7.198  18.870  0.00  0.00    +0.000 A 
ATOM      5  C   UNL     1       1.852   7.756  20.055  0.00  0.00    +0.000 A 
ATOM      6  C   UNL     1       1.216   8.998  20.061  0.00  0.00    +0.000 A 
ENDROOT
BRANCH   1   7
ATOM      7  N   UNL     1       0.396  10.992  18.911  0.00  0.00    +0.000 N 
ATOM      8  C   UNL     1       1.224  12.103  18.793  0.00  0.00    +0.000 C 
ATOM      9  O   UNL     1       2.436  11.915  18.578  0.00  0.00    +0.000 OA
ATOM     10  N   UNL     1       0.782  13.414  18.875  0.00  0.00    +0.000 N 
ATOM     11  C   UNL     1      -0.513  14.009  19.177  0.00  0.00    +0.000 C 
ATOM     12  C   UNL     1       1.793  14.448  18.628  0.00  0.00    +0.000 C 
BRANCH   7  14
ATOM     13  C   UNL     1      -1.985  10.331  18.212  0.00  0.00    +0.000 C 
ATOM     14  C   UNL     1      -1.036  10.918  19.263  0.00  0.00    +0.000 C 
ENDBRANCH   7  14
ENDBRANCH   1   7
BRANCH   4  15
ATOM     15  C   UNL     1       3.095   5.846  18.881  0.00  0.00    +0.000 C 
BRANCH  15  16
ATOM     16  C   UNL     1       2.145   4.670  18.518  0.00  0.00    +0.000 C 
ATOM     17  F   UNL     1       1.276   4.380  19.520  0.00  0.00    +0.000 F 
ATOM     18  F   UNL     1       1.402   4.803  17.408  0.00  0.00    +0.000 F 
ATOM     19  F   UNL     1       2.880   3.530  18.360  0.00  0.00    +0.000 F 
ENDBRANCH  15  16
BRANCH  15  20
ATOM     20  C   UNL     1       4.338   5.835  17.945  0.00  0.00    +0.000 C 
ATOM     21  F   UNL     1       5.303   4.981  18.373  0.00  0.00    +0.000 F 
ATOM     22  F   UNL     1       4.012   5.421  16.691  0.00  0.00    +0.000 F 
ATOM     23  F   UNL     1       4.952   7.025  17.787  0.00  0.00    +0.000 F 
ENDBRANCH  15  20
BRANCH  15  24
ATOM     24  O   UNL     1       3.559   5.660  20.273  0.00  0.00    +0.000 OA
ATOM     25  H   UNL     1       4.366   5.106  20.236  0.00  0.00    +0.000 HD
ENDBRANCH  15  24
ENDBRANCH   4  15
TORSDOF 6
ENDMDL
MODEL 3
REMARK VINA RESULT:      -6.9      1.169      2.297
REMARK  Name = 
REMARK  9 active torsions:
REMARK  status: ('A' for Active; 'I' for Inactive)
REMARK    1  A    between atoms: C_1  and  C_2
REMARK    2  A    between atoms: C_2  and  N_3
REMARK    3  A    between atoms: N_3  and  C_9
REMARK    4  A    between atoms: N_6  and  C_7
REMARK    5  A    between atoms: N_6  and  C_8
REMARK    6  A    between atoms: C_12  and  C_13
REMARK    7  A    between atoms: C_13  and  O_14
REMARK    8  A    between atoms: C_13  and  C_15
REMARK    9  A    between atoms: C_13  and  C_19
REMARK                            x       y       z     vdW  Elec       q    Type
REMARK                         _______ _______ _______ _____ _____    ______ ____
ROOT
ATOM      1  C   UNL     1       1.258   9.608  19.226  0.00  0.00    +0.000 A 
ATOM      2  C   UNL     1       1.678   9.146  17.987  0.00  0.00    +0.000 A 
ATOM      3  C   UNL     1       2.231   7.864  17.866  0.00  0.00    +0.000 A 
ATOM      4  C   UNL     1       2.388   7.018  18.995  0.00  0.00    +0.000 A 
ATOM      5  C   UNL     1       1.937   7.505  20.229  0.00  0.00    +0.000 A 
ATOM      6  C   UNL     1       1.373   8.777  20.344  0.00  0.00    +0.000 A 
ENDROOT
BRANCH   1   7
ATOM      7  N   UNL     1       0.657  10.900  19.370  0.00  0.00    +0.000 N 
ATOM      8  C   UNL     1      -0.706  10.949  19.096  0.00  0.00    +0.000 C 
ATOM      9  O   UNL     1      -1.296   9.881  18.850  0.00  0.00    +0.000 OA
ATOM     10  N   UNL     1      -1.459  12.112  19.104  0.00  0.00    +0.000 N 
ATOM     11  C   UNL     1      -1.115  13.517  19.275  0.00  0.00    +0.000 C 
ATOM     12  C   UNL     1      -2.900  11.944  18.886  0.00  0.00    +0.000 C 
BRANCH   7  14
ATOM     13  C   UNL     1       2.276  12.612  18.349  0.00  0.00    +0.000 C 
ATOM     14  C   UNL     1       1.613  12.003  19.589  0.00  0.00    +0.000 C 
ENDBRANCH   7  14
ENDBRANCH   1   7
BRANCH   4  15
ATOM     15  C   UNL     1       3.055   5.630  18.887  0.00  0.00    +0.000 C 
BRANCH  15  16
ATOM     16  C   UNL     1       2.033   4.541  18.453  0.00  0.00    +0.000 C 
ATOM     17  F   UNL     1       1.148   4.242  19.439  0.00  0.00    +0.000 F 
ATOM     18  F   UNL     1       1.300   4.790  17.357  0.00  0.00    +0.000 F 
ATOM     19  F   UNL     1       2.695   3.369  18.220  0.00  0.00    +0.000 F 
ENDBRANCH  15  16
BRANCH  15  20
ATOM     20  C   UNL     1       4.280   5.622  17.928  0.00  0.00    +0.000 C 
ATOM     21  F   UNL     1       4.967   6.792  17.952  0.00  0.00    +0.000 F 
ATOM     22  F   UNL     1       5.179   4.662  18.276  0.00  0.00    +0.000 F 
ATOM     23  F   UNL     1       3.995   5.398  16.629  0.00  0.00    +0.000 F 
ENDBRANCH  15  20
BRANCH  15  24
ATOM     24  O   UNL     1       3.530   5.310  20.250  0.00  0.00    +0.000 OA
ATOM     25  H   UNL     1       3.578   6.154  20.744  0.00  0.00    +0.000 HD
ENDBRANCH  15  24
ENDBRANCH   4  15
TORSDOF 6
ENDMDL
MODEL 4
REMARK VINA RESULT:      -6.9      0.078      1.070
REMARK  Name = 
REMARK  9 active torsions:
REMARK  status: ('A' for Active; 'I' for Inactive)
REMARK    1  A    between atoms: C_1  and  C_2
REMARK    2  A    between atoms: C_2  and  N_3
REMARK    3  A    between atoms: N_3  and  C_9
REMARK    4  A    between atoms: N_6  and  C_7
REMARK    5  A    between atoms: N_6  and  C_8
REMARK    6  A    between atoms: C_12  and  C_13
REMARK    7  A    between atoms: C_13  and  O_14
REMARK    8  A    between atoms: C_13  and  C_15
REMARK    9  A    between atoms: C_13  and  C_19
REMARK                            x       y       z     vdW  Elec       q    Type
REMARK                         _______ _______ _______ _____ _____    ______ ____
ROOT
ATOM      1  C   UNL     1       1.035   9.629  18.919  0.00  0.00    +0.000 A 
ATOM      2  C   UNL     1       1.224   8.935  20.106  0.00  0.00    +0.000 A 
ATOM      3  C   UNL     1       1.910   7.713  20.103  0.00  0.00    +0.000 A 
ATOM      4  C   UNL     1       2.413   7.152  18.899  0.00  0.00    +0.000 A 
ATOM      5  C   UNL     1       2.223   7.886  17.721  0.00  0.00    +0.000 A 
ATOM      6  C   UNL     1       1.552   9.109  17.730  0.00  0.00    +0.000 A 
ENDROOT
BRANCH   1   7
ATOM      7  N   UNL     1       0.367  10.897  18.901  0.00  0.00    +0.000 N 
ATOM      8  C   UNL     1       1.206  12.001  18.789  0.00  0.00    +0.000 C 
ATOM      9  O   UNL     1       2.423  11.803  18.621  0.00  0.00    +0.000 OA
ATOM     10  N   UNL     1       0.769  13.316  18.827  0.00  0.00    +0.000 N 
ATOM     11  C   UNL     1      -0.533  13.923  19.071  0.00  0.00    +0.000 C 
ATOM     12  C   UNL     1       1.794  14.339  18.594  0.00  0.00    +0.000 C 
BRANCH   7  14
ATOM     13  C   UNL     1      -2.011  10.396  18.072  0.00  0.00    +0.000 C 
ATOM     14  C   UNL     1      -1.076  10.837  19.204  0.00  0.00    +0.000 C 
ENDBRANCH   7  14
ENDBRANCH   1   7
BRANCH   4  15
ATOM     15  C   UNL     1       3.114   5.776  18.872  0.00  0.00    +0.000 C 
BRANCH  15  16
ATOM     16  C   UNL     1       2.120   4.640  18.499  0.00  0.00    +0.000 C 
ATOM     17  F   UNL     1       1.247   4.367  19.503  0.00  0.00    +0.000 F 
ATOM     18  F   UNL     1       1.376   4.814  17.396  0.00  0.00    +0.000 F 
ATOM     19  F   UNL     1       2.813   3.476  18.322  0.00  0.00    +0.000 F 
ENDBRANCH  15  16
BRANCH  15  20
ATOM     20  C   UNL     1       4.342   5.743  17.919  0.00  0.00    +0.000 C 
ATOM     21  F   UNL     1       3.999   5.446  16.639  0.00  0.00    +0.000 F 
ATOM     22  F   UNL     1       4.960   6.953  17.860  0.00  0.00    +0.000 F 
ATOM     23  F   UNL     1       5.306   4.859  18.249  0.00  0.00    +0.000 F 
ENDBRANCH  15  20
BRANCH  15  24
ATOM     24  O   UNL     1       3.591   5.546  20.253  0.00  0.00    +0.000 OA
ATOM     25  H   UNL     1       4.014   4.663  20.269  0.00  0.00    +0.000 HD
ENDBRANCH  15  24
ENDBRANCH   4  15
TORSDOF 6
ENDMDL
MODEL 5
REMARK VINA RESULT:      -6.9      1.180      2.066
REMARK  Name = 
REMARK  9 active torsions:
REMARK  status: ('A' for Active; 'I' for Inactive)
REMARK    1  A    between atoms: C_1  and  C_2
REMARK    2  A    between atoms: C_2  and  N_3
REMARK    3  A    between atoms: N_3  and  C_9
REMARK    4  A    between atoms: N_6  and  C_7
REMARK    5  A    between atoms: N_6  and  C_8
REMARK    6  A    between atoms: C_12  and  C_13
REMARK    7  A    between atoms: C_13  and  O_14
REMARK    8  A    between atoms: C_13  and  C_15
REMARK    9  A    between atoms: C_13  and  C_19
REMARK                            x       y       z     vdW  Elec       q    Type
REMARK                         _______ _______ _______ _____ _____    ______ ____
ROOT
ATOM      1  C   UNL     1       1.266   9.499  19.079  0.00  0.00    +0.000 A 
ATOM      2  C   UNL     1       1.357   8.741  20.237  0.00  0.00    +0.000 A 
ATOM      3  C   UNL     1       1.950   7.471  20.200  0.00  0.00    +0.000 A 
ATOM      4  C   UNL     1       2.455   6.927  18.990  0.00  0.00    +0.000 A 
ATOM      5  C   UNL     1       2.365   7.725  17.842  0.00  0.00    +0.000 A 
ATOM      6  C   UNL     1       1.787   8.995  17.885  0.00  0.00    +0.000 A 
ENDROOT
BRANCH   1   7
ATOM      7  N   UNL     1       0.696  10.813  19.098  0.00  0.00    +0.000 N 
ATOM      8  C   UNL     1      -0.626  10.886  18.670  0.00  0.00    +0.000 C 
ATOM      9  O   UNL     1      -1.219   9.825  18.406  0.00  0.00    +0.000 OA
ATOM     10  N   UNL     1      -1.338  12.069  18.543  0.00  0.00    +0.000 N 
ATOM     11  C   UNL     1      -0.969  13.471  18.690  0.00  0.00    +0.000 C 
ATOM     12  C   UNL     1      -2.749  11.930  18.170  0.00  0.00    +0.000 C 
BRANCH   7  14
ATOM     13  C   UNL     1       2.432  12.470  18.183  0.00  0.00    +0.000 C 
ATOM     14  C   UNL     1       1.656  11.899  19.376  0.00  0.00    +0.000 C 
ENDBRANCH   7  14
ENDBRANCH   1   7
BRANCH   4  15
ATOM     15  C   UNL     1       3.051   5.504  18.922  0.00  0.00    +0.000 C 
BRANCH  15  16
ATOM     16  C   UNL     1       1.986   4.462  18.478  0.00  0.00    +0.000 C 
ATOM     17  F   UNL     1       1.058   4.229  19.441  0.00  0.00    +0.000 F 
ATOM     18  F   UNL     1       1.299   4.730  17.356  0.00  0.00    +0.000 F 
ATOM     19  F   UNL     1       2.592   3.254  18.284  0.00  0.00    +0.000 F 
ENDBRANCH  15  16
BRANCH  15  20
ATOM     20  C   UNL     1       4.300   5.417  17.998  0.00  0.00    +0.000 C 
ATOM     21  F   UNL     1       5.063   6.538  18.048  0.00  0.00    +0.000 F 
ATOM     22  F   UNL     1       5.122   4.398  18.369  0.00  0.00    +0.000 F 
ATOM     23  F   UNL     1       4.038   5.215  16.691  0.00  0.00    +0.000 F 
ENDBRANCH  15  20
BRANCH  15  24
ATOM     24  O   UNL     1       3.471   5.184  20.303  0.00  0.00    +0.000 OA
ATOM     25  H   UNL     1       2.657   5.003  20.818  0.00  0.00    +0.000 HD
ENDBRANCH  15  24
ENDBRANCH   4  15
TORSDOF 6
ENDMDL
MODEL 6
REMARK VINA RESULT:      -6.8      0.150      1.261
REMARK  Name = 
REMARK  9 active torsions:
REMARK  status: ('A' for Active; 'I' for Inactive)
REMARK    1  A    between atoms: C_1  and  C_2
REMARK    2  A    between atoms: C_2  and  N_3
REMARK    3  A    between atoms: N_3  and  C_9
REMARK    4  A    between atoms: N_6  and  C_7
REMARK    5  A    between atoms: N_6  and  C_8
REMARK    6  A    between atoms: C_12  and  C_13
REMARK    7  A    between atoms: C_13  and  O_14
REMARK    8  A    between atoms: C_13  and  C_15
REMARK    9  A    between atoms: C_13  and  C_19
REMARK                            x       y       z     vdW  Elec       q    Type
REMARK                         _______ _______ _______ _____ _____    ______ ____
ROOT
ATOM      1  C   UNL     1       1.028   9.741  18.904  0.00  0.00    +0.000 A 
ATOM      2  C   UNL     1       1.488   9.224  17.701  0.00  0.00    +0.000 A 
ATOM      3  C   UNL     1       2.145   7.986  17.674  0.00  0.00    +0.000 A 
ATOM      4  C   UNL     1       2.367   7.242  18.864  0.00  0.00    +0.000 A 
ATOM      5  C   UNL     1       1.875   7.782  20.059  0.00  0.00    +0.000 A 
ATOM      6  C   UNL     1       1.209   9.008  20.080  0.00  0.00    +0.000 A 
ENDROOT
BRANCH   1   7
ATOM      7  N   UNL     1       0.324  10.987  18.953  0.00  0.00    +0.000 N 
ATOM      8  C   UNL     1       1.129  12.120  18.879  0.00  0.00    +0.000 C 
ATOM      9  O   UNL     1       2.348  11.965  18.685  0.00  0.00    +0.000 OA
ATOM     10  N   UNL     1       0.655  13.418  18.983  0.00  0.00    +0.000 N 
ATOM     11  C   UNL     1      -0.660  13.975  19.272  0.00  0.00    +0.000 C 
ATOM     12  C   UNL     1       1.647  14.480  18.782  0.00  0.00    +0.000 C 
BRANCH   7  14
ATOM     13  C   UNL     1      -2.029  10.308  18.181  0.00  0.00    +0.000 C 
ATOM     14  C   UNL     1      -1.112  10.872  19.272  0.00  0.00    +0.000 C 
ENDBRANCH   7  14
ENDBRANCH   1   7
BRANCH   4  15
ATOM     15  C   UNL     1       3.146   5.908  18.857  0.00  0.00    +0.000 C 
BRANCH  15  16
ATOM     16  C   UNL     1       2.233   4.720  18.442  0.00  0.00    +0.000 C 
ATOM     17  F   UNL     1       1.388   5.046  17.430  0.00  0.00    +0.000 F 
ATOM     18  F   UNL     1       2.840   3.582  18.069  0.00  0.00    +0.000 F 
ATOM     19  F   UNL     1       1.411   4.398  19.485  0.00  0.00    +0.000 F 
ENDBRANCH  15  16
BRANCH  15  20
ATOM     20  C   UNL     1       4.408   5.951  17.949  0.00  0.00    +0.000 C 
ATOM     21  F   UNL     1       4.140   5.591  16.668  0.00  0.00    +0.000 F 
ATOM     22  F   UNL     1       4.925   7.207  17.876  0.00  0.00    +0.000 F 
ATOM     23  F   UNL     1       5.428   5.161  18.341  0.00  0.00    +0.000 F 
ENDBRANCH  15  20
BRANCH  15  24
ATOM     24  O   UNL     1       3.583   5.697  20.253  0.00  0.00    +0.000 OA
ATOM     25  H   UNL     1       4.132   4.885  20.264  0.00  0.00    +0.000 HD
ENDBRANCH  15  24
ENDBRANCH   4  15
TORSDOF 6
ENDMDL
MODEL 7
REMARK VINA RESULT:      -6.7      1.265      2.366
REMARK  Name = 
REMARK  9 active torsions:
REMARK  status: ('A' for Active; 'I' for Inactive)
REMARK    1  A    between atoms: C_1  and  C_2
REMARK    2  A    between atoms: C_2  and  N_3
REMARK    3  A    between atoms: N_3  and  C_9
REMARK    4  A    between atoms: N_6  and  C_7
REMARK    5  A    between atoms: N_6  and  C_8
REMARK    6  A    between atoms: C_12  and  C_13
REMARK    7  A    between atoms: C_13  and  O_14
REMARK    8  A    between atoms: C_13  and  C_15
REMARK    9  A    between atoms: C_13  and  C_19
REMARK                            x       y       z     vdW  Elec       q    Type
REMARK                         _______ _______ _______ _____ _____    ______ ____
ROOT
ATOM      1  C   UNL     1       1.109   9.630  19.360  0.00  0.00    +0.000 A 
ATOM      2  C   UNL     1       1.627   9.380  18.098  0.00  0.00    +0.000 A 
ATOM      3  C   UNL     1       2.321   8.188  17.847  0.00  0.00    +0.000 A 
ATOM      4  C   UNL     1       2.523   7.222  18.868  0.00  0.00    +0.000 A 
ATOM      5  C   UNL     1       1.971   7.495  20.126  0.00  0.00    +0.000 A 
ATOM      6  C   UNL     1       1.268   8.676  20.369  0.00  0.00    +0.000 A 
ENDROOT
BRANCH   1   7
ATOM      7  N   UNL     1       0.366  10.824  19.632  0.00  0.00    +0.000 N 
ATOM      8  C   UNL     1      -0.920  10.850  19.102  0.00  0.00    +0.000 C 
ATOM      9  O   UNL     1      -1.344   9.827  18.535  0.00  0.00    +0.000 OA
ATOM     10  N   UNL     1      -1.774  11.938  19.188  0.00  0.00    +0.000 N 
ATOM     11  C   UNL     1      -1.609  13.292  19.700  0.00  0.00    +0.000 C 
ATOM     12  C   UNL     1      -3.124  11.736  18.652  0.00  0.00    +0.000 C 
BRANCH   7  14
ATOM     13  C   UNL     1       1.981  12.796  19.323  0.00  0.00    +0.000 C 
ATOM     14  C   UNL     1       1.149  11.909  20.255  0.00  0.00    +0.000 C 
ENDBRANCH   7  14
ENDBRANCH   1   7
BRANCH   4  15
ATOM     15  C   UNL     1       3.340   5.935  18.622  0.00  0.00    +0.000 C 
BRANCH  15  16
ATOM     16  C   UNL     1       2.437   4.777  18.111  0.00  0.00    +0.000 C 
ATOM     17  F   UNL     1       1.371   5.229  17.401  0.00  0.00    +0.000 F 
ATOM     18  F   UNL     1       3.020   3.837  17.350  0.00  0.00    +0.000 F 
ATOM     19  F   UNL     1       1.889   4.128  19.179  0.00  0.00    +0.000 F 
ENDBRANCH  15  16
BRANCH  15  20
ATOM     20  C   UNL     1       4.530   6.154  17.645  0.00  0.00    +0.000 C 
ATOM     21  F   UNL     1       4.145   6.131  16.343  0.00  0.00    +0.000 F 
ATOM     22  F   UNL     1       5.111   7.369  17.833  0.00  0.00    +0.000 F 
ATOM     23  F   UNL     1       5.530   5.254  17.742  0.00  0.00    +0.000 F 
ENDBRANCH  15  20
BRANCH  15  24
ATOM     24  O   UNL     1       3.887   5.554  19.943  0.00  0.00    +0.000 OA
ATOM     25  H   UNL     1       4.422   6.310  20.262  0.00  0.00    +0.000 HD
ENDBRANCH  15  24
ENDBRANCH   4  15
TORSDOF 6
ENDMDL
MODEL 8
REMARK VINA RESULT:      -6.7      1.603      2.836
REMARK  Name = 
REMARK  9 active torsions:
REMARK  status: ('A' for Active; 'I' for Inactive)
REMARK    1  A    between atoms: C_1  and  C_2
REMARK    2  A    between atoms: C_2  and  N_3
REMARK    3  A    between atoms: N_3  and  C_9
REMARK    4  A    between atoms: N_6  and  C_7
REMARK    5  A    between atoms: N_6  and  C_8
REMARK    6  A    between atoms: C_12  and  C_13
REMARK    7  A    between atoms: C_13  and  O_14
REMARK    8  A    between atoms: C_13  and  C_15
REMARK    9  A    between atoms: C_13  and  C_19
REMARK                            x       y       z     vdW  Elec       q    Type
REMARK                         _______ _______ _______ _____ _____    ______ ____
ROOT
ATOM      1  C   UNL     1       1.296   9.535  19.128  0.00  0.00    +0.000 A 
ATOM      2  C   UNL     1       1.394   8.598  20.147  0.00  0.00    +0.000 A 
ATOM      3  C   UNL     1       1.971   7.346  19.895  0.00  0.00    +0.000 A 
ATOM      4  C   UNL     1       2.452   7.000  18.604  0.00  0.00    +0.000 A 
ATOM      5  C   UNL     1       2.355   7.974  17.603  0.00  0.00    +0.000 A 
ATOM      6  C   UNL     1       1.794   9.226  17.860  0.00  0.00    +0.000 A 
ENDROOT
BRANCH   1   7
ATOM      7  N   UNL     1       0.742  10.834  19.369  0.00  0.00    +0.000 N 
ATOM      8  C   UNL     1      -0.629  10.936  19.160  0.00  0.00    +0.000 C 
ATOM      9  O   UNL     1      -1.262   9.901  18.883  0.00  0.00    +0.000 OA
ATOM     10  N   UNL     1      -1.346  12.118  19.265  0.00  0.00    +0.000 N 
ATOM     11  C   UNL     1      -0.951  13.502  19.496  0.00  0.00    +0.000 C 
ATOM     12  C   UNL     1      -2.799  12.003  19.102  0.00  0.00    +0.000 C 
BRANCH   7  14
ATOM     13  C   UNL     1       2.344  12.576  18.371  0.00  0.00    +0.000 C 
ATOM     14  C   UNL     1       1.740  11.896  19.605  0.00  0.00    +0.000 C 
ENDBRANCH   7  14
ENDBRANCH   1   7
BRANCH   4  15
ATOM     15  C   UNL     1       3.030   5.601  18.298  0.00  0.00    +0.000 C 
BRANCH  15  16
ATOM     16  C   UNL     1       3.844   5.047  19.501  0.00  0.00    +0.000 C 
ATOM     17  F   UNL     1       4.937   5.803  19.777  0.00  0.00    +0.000 F 
ATOM     18  F   UNL     1       3.192   4.897  20.665  0.00  0.00    +0.000 F 
ATOM     19  F   UNL     1       4.348   3.820  19.177  0.00  0.00    +0.000 F 
ENDBRANCH  15  16
BRANCH  15  20
ATOM     20  C   UNL     1       1.938   4.576  17.877  0.00  0.00    +0.000 C 
ATOM     21  F   UNL     1       2.431   3.587  17.088  0.00  0.00    +0.000 F 
ATOM     22  F   UNL     1       1.401   3.949  18.958  0.00  0.00    +0.000 F 
ATOM     23  F   UNL     1       0.893   5.092  17.199  0.00  0.00    +0.000 F 
ENDBRANCH  15  20
BRANCH  15  24
ATOM     24  O   UNL     1       3.952   5.794  17.158  0.00  0.00    +0.000 OA
ATOM     25  H   UNL     1       4.785   6.161  17.520  0.00  0.00    +0.000 HD
ENDBRANCH  15  24
ENDBRANCH   4  15
TORSDOF 6
ENDMDL
MODEL 9
REMARK VINA RESULT:      -6.6      1.645      2.304
REMARK  Name = 
REMARK  9 active torsions:
REMARK  status: ('A' for Active; 'I' for Inactive)
REMARK    1  A    between atoms: C_1  and  C_2
REMARK    2  A    between atoms: C_2  and  N_3
REMARK    3  A    between atoms: N_3  and  C_9
REMARK    4  A    between atoms: N_6  and  C_7
REMARK    5  A    between atoms: N_6  and  C_8
REMARK    6  A    between atoms: C_12  and  C_13
REMARK    7  A    between atoms: C_13  and  O_14
REMARK    8  A    between atoms: C_13  and  C_15
REMARK    9  A    between atoms: C_13  and  C_19
REMARK                            x       y       z     vdW  Elec       q    Type
REMARK                         _______ _______ _______ _____ _____    ______ ____
ROOT
ATOM      1  C   UNL     1       1.256   9.206  19.157  0.00  0.00    +0.000 A 
ATOM      2  C   UNL     1       1.893   9.143  17.926  0.00  0.00    +0.000 A 
ATOM      3  C   UNL     1       2.724   8.056  17.620  0.00  0.00    +0.000 A 
ATOM      4  C   UNL     1       2.946   7.010  18.555  0.00  0.00    +0.000 A 
ATOM      5  C   UNL     1       2.274   7.095  19.782  0.00  0.00    +0.000 A 
ATOM      6  C   UNL     1       1.436   8.171  20.078  0.00  0.00    +0.000 A 
ENDROOT
BRANCH   1   7
ATOM      7  N   UNL     1       0.375  10.289  19.480  0.00  0.00    +0.000 N 
ATOM      8  C   UNL     1      -0.649  10.506  18.564  0.00  0.00    +0.000 C 
ATOM      9  O   UNL     1      -0.773   9.707  17.618  0.00  0.00    +0.000 OA
ATOM     10  N   UNL     1      -1.562  11.545  18.651  0.00  0.00    +0.000 N 
ATOM     11  C   UNL     1      -1.689  12.683  19.551  0.00  0.00    +0.000 C 
ATOM     12  C   UNL     1      -2.627  11.547  17.642  0.00  0.00    +0.000 C 
BRANCH   7  14
ATOM     13  C   UNL     1       0.114  10.886  21.963  0.00  0.00    +0.000 C 
ATOM     14  C   UNL     1       0.811  11.120  20.619  0.00  0.00    +0.000 C 
ENDBRANCH   7  14
ENDBRANCH   1   7
BRANCH   4  15
ATOM     15  C   UNL     1       3.909   5.841  18.257  0.00  0.00    +0.000 C 
BRANCH  15  16
ATOM     16  C   UNL     1       3.141   4.588  17.749  0.00  0.00    +0.000 C 
ATOM     17  F   UNL     1       1.847   4.865  17.441  0.00  0.00    +0.000 F 
ATOM     18  F   UNL     1       3.648   3.949  16.683  0.00  0.00    +0.000 F 
ATOM     19  F   UNL     1       3.065   3.668  18.755  0.00  0.00    +0.000 F 
ENDBRANCH  15  16
BRANCH  15  20
ATOM     20  C   UNL     1       5.028   6.224  17.247  0.00  0.00    +0.000 C 
ATOM     21  F   UNL     1       5.659   7.378  17.584  0.00  0.00    +0.000 F 
ATOM     22  F   UNL     1       6.001   5.275  17.200  0.00  0.00    +0.000 F 
ATOM     23  F   UNL     1       4.623   6.393  15.972  0.00  0.00    +0.000 F 
ENDBRANCH  15  20
BRANCH  15  24
ATOM     24  O   UNL     1       4.543   5.509  19.550  0.00  0.00    +0.000 OA
ATOM     25  H   UNL     1       5.441   5.172  19.353  0.00  0.00    +0.000 HD
ENDBRANCH  15  24
ENDBRANCH   4  15
TORSDOF 6
ENDMDL
