MODEL 1
REMARK VINA RESULT:      -8.9      0.000      0.000
REMARK  Name = 
REMARK  6 active torsions:
REMARK  status: ('A' for Active; 'I' for Inactive)
REMARK    1  A    between atoms: C_1  and  C_2
REMARK    2  A    between atoms: C_7  and  N_8
REMARK    3  A    between atoms: N_8  and  C_9
REMARK    4  A    between atoms: C_12  and  N_13
REMARK    5  A    between atoms: N_13  and  S_14
REMARK    6  A    between atoms: S_14  and  C_15
REMARK                            x       y       z     vdW  Elec       q    Type
REMARK                         _______ _______ _______ _____ _____    ______ ____
ROOT
ATOM      1  C   UNL     1       6.185   3.691  15.160  0.00  0.00    +0.000 C 
ATOM      2  C   UNL     1       5.930   4.720  16.229  0.00  0.00    +0.000 A 
ATOM      3  C   UNL     1       6.784   5.833  16.290  0.00  0.00    +0.000 A 
ATOM      4  C   UNL     1       6.674   6.731  17.331  0.00  0.00    +0.000 A 
ATOM      5  C   UNL     1       5.678   6.536  18.275  0.00  0.00    +0.000 A 
ATOM      6  C   UNL     1       4.692   5.523  18.148  0.00  0.00    +0.000 A 
ATOM      7  C   UNL     1       3.532   5.423  18.983  0.00  0.00    +0.000 A 
ATOM      8  C   UNL     1       2.717   4.262  18.902  0.00  0.00    +0.000 A 
ATOM      9  C   UNL     1       1.598   4.011  19.740  0.00  0.00    +0.000 A 
ATOM     10  C   UNL     1       0.845   2.843  19.614  0.00  0.00    +0.000 A 
ATOM     11  C   UNL     1       1.183   1.918  18.639  0.00  0.00    +0.000 A 
ATOM     12  C   UNL     1       2.271   2.170  17.795  0.00  0.00    +0.000 A 
ATOM     13  C   UNL     1       3.043   3.321  17.910  0.00  0.00    +0.000 A 
ATOM     14  N   UNL     1       4.062   3.481  17.051  0.00  0.00    +0.000 NA
ATOM     15  C   UNL     1       4.872   4.553  17.146  0.00  0.00    +0.000 A 
ENDROOT
BRANCH   7  16
ATOM     16  N   UNL     1       3.148   6.481  19.879  0.00  0.00    +0.000 N 
ATOM     17  H   UNL     1       3.878   6.688  20.555  0.00  0.00    +0.000 HD
BRANCH  16  18
ATOM     18  C   UNL     1       2.253   7.547  19.624  0.00  0.00    +0.000 A 
ATOM     19  C   UNL     1       2.234   8.187  18.375  0.00  0.00    +0.000 A 
ATOM     20  C   UNL     1       1.621   9.431  18.217  0.00  0.00    +0.000 A 
ATOM     21  C   UNL     1       0.959  10.020  19.287  0.00  0.00    +0.000 A 
ATOM     22  C   UNL     1       0.843   9.334  20.495  0.00  0.00    +0.000 A 
ATOM     23  C   UNL     1       1.490   8.098  20.665  0.00  0.00    +0.000 A 
BRANCH  21  24
ATOM     24  N   UNL     1       0.487  11.349  19.136  0.00  0.00    +0.000 N 
ATOM     25  H   UNL     1       0.824  12.049  19.796  0.00  0.00    +0.000 HD
BRANCH  24  26
ATOM     26  S   UNL     1      -1.090  11.632  18.638  0.00  0.00    +0.000 S 
ATOM     27  C   UNL     1      -1.845  12.166  20.155  0.00  0.00    +0.000 C 
ATOM     28  O   UNL     1      -1.118  12.721  17.681  0.00  0.00    +0.000 OA
ATOM     29  O   UNL     1      -1.634  10.332  18.311  0.00  0.00    +0.000 OA
ENDBRANCH  24  26
ENDBRANCH  21  24
ENDBRANCH  16  18
ENDBRANCH   7  16
TORSDOF 4
ENDMDL
MODEL 2
REMARK VINA RESULT:      -8.8      1.306      1.489
REMARK  Name = 
REMARK  6 active torsions:
REMARK  status: ('A' for Active; 'I' for Inactive)
REMARK    1  A    between atoms: C_1  and  C_2
REMARK    2  A    between atoms: C_7  and  N_8
REMARK    3  A    between atoms: N_8  and  C_9
REMARK    4  A    between atoms: C_12  and  N_13
REMARK    5  A    between atoms: N_13  and  S_14
REMARK    6  A    between atoms: S_14  and  C_15
REMARK                            x       y       z     vdW  Elec       q    Type
REMARK                         _______ _______ _______ _____ _____    ______ ____
ROOT
ATOM      1  C   UNL     1       6.027   3.577  15.158  0.00  0.00    +0.000 C 
ATOM      2  C   UNL     1       5.785   4.681  16.152  0.00  0.00    +0.000 A 
ATOM      3  C   UNL     1       6.639   5.796  16.120  0.00  0.00    +0.000 A 
ATOM      4  C   UNL     1       6.541   6.768  17.094  0.00  0.00    +0.000 A 
ATOM      5  C   UNL     1       5.559   6.642  18.064  0.00  0.00    +0.000 A 
ATOM      6  C   UNL     1       4.572   5.622  18.024  0.00  0.00    +0.000 A 
ATOM      7  C   UNL     1       3.423   5.583  18.881  0.00  0.00    +0.000 A 
ATOM      8  C   UNL     1       2.609   4.419  18.895  0.00  0.00    +0.000 A 
ATOM      9  C   UNL     1       1.502   4.230  19.764  0.00  0.00    +0.000 A 
ATOM     10  C   UNL     1       0.749   3.055  19.735  0.00  0.00    +0.000 A 
ATOM     11  C   UNL     1       1.074   2.061  18.825  0.00  0.00    +0.000 A 
ATOM     12  C   UNL     1       2.151   2.252  17.950  0.00  0.00    +0.000 A 
ATOM     13  C   UNL     1       2.923   3.408  17.970  0.00  0.00    +0.000 A 
ATOM     14  N   UNL     1       3.930   3.505  17.088  0.00  0.00    +0.000 NA
ATOM     15  C   UNL     1       4.740   4.581  17.094  0.00  0.00    +0.000 A 
ENDROOT
BRANCH   7  16
ATOM     16  N   UNL     1       3.050   6.704  19.702  0.00  0.00    +0.000 N 
ATOM     17  H   UNL     1       3.792   6.964  20.345  0.00  0.00    +0.000 HD
BRANCH  16  18
ATOM     18  C   UNL     1       2.144   7.743  19.385  0.00  0.00    +0.000 A 
ATOM     19  C   UNL     1       2.085   8.277  18.088  0.00  0.00    +0.000 A 
ATOM     20  C   UNL     1       1.463   9.502  17.845  0.00  0.00    +0.000 A 
ATOM     21  C   UNL     1       0.830  10.177  18.882  0.00  0.00    +0.000 A 
ATOM     22  C   UNL     1       0.751   9.593  20.145  0.00  0.00    +0.000 A 
ATOM     23  C   UNL     1       1.408   8.377  20.398  0.00  0.00    +0.000 A 
BRANCH  21  24
ATOM     24  N   UNL     1       0.348  11.488  18.634  0.00  0.00    +0.000 N 
ATOM     25  H   UNL     1      -0.139  11.655  17.754  0.00  0.00    +0.000 HD
BRANCH  24  26
ATOM     26  S   UNL     1       1.223  12.820  19.156  0.00  0.00    +0.000 S 
ATOM     27  C   UNL     1       2.645  12.742  18.092  0.00  0.00    +0.000 C 
ATOM     28  O   UNL     1       0.485  14.037  18.878  0.00  0.00    +0.000 OA
ATOM     29  O   UNL     1       1.661  12.498  20.496  0.00  0.00    +0.000 OA
ENDBRANCH  24  26
ENDBRANCH  21  24
ENDBRANCH  16  18
ENDBRANCH   7  16
TORSDOF 4
ENDMDL
MODEL 3
REMARK VINA RESULT:      -8.8      2.018      4.319
REMARK  Name = 
REMARK  6 active torsions:
REMARK  status: ('A' for Active; 'I' for Inactive)
REMARK    1  A    between atoms: C_1  and  C_2
REMARK    2  A    between atoms: C_7  and  N_8
REMARK    3  A    between atoms: N_8  and  C_9
REMARK    4  A    between atoms: C_12  and  N_13
REMARK    5  A    between atoms: N_13  and  S_14
REMARK    6  A    between atoms: S_14  and  C_15
REMARK                            x       y       z     vdW  Elec       q    Type
REMARK                         _______ _______ _______ _____ _____    ______ ____
ROOT
ATOM      1  C   UNL     1       4.382   1.737  20.781  0.00  0.00    +0.000 C 
ATOM      2  C   UNL     1       3.437   2.728  20.156  0.00  0.00    +0.000 A 
ATOM      3  C   UNL     1       2.057   2.508  20.304  0.00  0.00    +0.000 A 
ATOM      4  C   UNL     1       1.155   3.311  19.638  0.00  0.00    +0.000 A 
ATOM      5  C   UNL     1       1.638   4.358  18.869  0.00  0.00    +0.000 A 
ATOM      6  C   UNL     1       3.012   4.713  18.837  0.00  0.00    +0.000 A 
ATOM      7  C   UNL     1       3.519   5.908  18.228  0.00  0.00    +0.000 A 
ATOM      8  C   UNL     1       4.921   6.067  18.077  0.00  0.00    +0.000 A 
ATOM      9  C   UNL     1       5.534   7.162  17.411  0.00  0.00    +0.000 A 
ATOM     10  C   UNL     1       6.921   7.252  17.287  0.00  0.00    +0.000 A 
ATOM     11  C   UNL     1       7.719   6.265  17.844  0.00  0.00    +0.000 A 
ATOM     12  C   UNL     1       7.122   5.195  18.521  0.00  0.00    +0.000 A 
ATOM     13  C   UNL     1       5.743   5.078  18.646  0.00  0.00    +0.000 A 
ATOM     14  N   UNL     1       5.261   4.021  19.321  0.00  0.00    +0.000 NA
ATOM     15  C   UNL     1       3.932   3.831  19.431  0.00  0.00    +0.000 A 
ENDROOT
BRANCH   7  16
ATOM     16  N   UNL     1       2.647   6.968  17.797  0.00  0.00    +0.000 N 
ATOM     17  H   UNL     1       2.094   6.696  16.988  0.00  0.00    +0.000 HD
BRANCH  16  18
ATOM     18  C   UNL     1       2.084   7.999  18.585  0.00  0.00    +0.000 A 
ATOM     19  C   UNL     1       1.881   7.822  19.963  0.00  0.00    +0.000 A 
ATOM     20  C   UNL     1       1.033   8.670  20.677  0.00  0.00    +0.000 A 
ATOM     21  C   UNL     1       0.431   9.747  20.039  0.00  0.00    +0.000 A 
ATOM     22  C   UNL     1       0.735  10.024  18.707  0.00  0.00    +0.000 A 
ATOM     23  C   UNL     1       1.560   9.151  17.979  0.00  0.00    +0.000 A 
BRANCH  21  24
ATOM     24  N   UNL     1      -0.544  10.490  20.752  0.00  0.00    +0.000 N 
ATOM     25  H   UNL     1      -1.475  10.565  20.342  0.00  0.00    +0.000 HD
BRANCH  24  26
ATOM     26  S   UNL     1      -0.099  11.863  21.607  0.00  0.00    +0.000 S 
ATOM     27  C   UNL     1      -1.153  13.090  20.872  0.00  0.00    +0.000 C 
ATOM     28  O   UNL     1      -0.448  11.709  23.006  0.00  0.00    +0.000 OA
ATOM     29  O   UNL     1       1.259  12.152  21.201  0.00  0.00    +0.000 OA
ENDBRANCH  24  26
ENDBRANCH  21  24
ENDBRANCH  16  18
ENDBRANCH   7  16
TORSDOF 4
ENDMDL
MODEL 4
REMARK VINA RESULT:      -8.8      1.274      1.346
REMARK  Name = 
REMARK  6 active torsions:
REMARK  status: ('A' for Active; 'I' for Inactive)
REMARK    1  A    between atoms: C_1  and  C_2
REMARK    2  A    between atoms: C_7  and  N_8
REMARK    3  A    between atoms: N_8  and  C_9
REMARK    4  A    between atoms: C_12  and  N_13
REMARK    5  A    between atoms: N_13  and  S_14
REMARK    6  A    between atoms: S_14  and  C_15
REMARK                            x       y       z     vdW  Elec       q    Type
REMARK                         _______ _______ _______ _____ _____    ______ ____
ROOT
ATOM      1  C   UNL     1       5.964   3.640  15.021  0.00  0.00    +0.000 C 
ATOM      2  C   UNL     1       5.770   4.705  16.068  0.00  0.00    +0.000 A 
ATOM      3  C   UNL     1       6.636   5.810  16.054  0.00  0.00    +0.000 A 
ATOM      4  C   UNL     1       6.584   6.740  17.071  0.00  0.00    +0.000 A 
ATOM      5  C   UNL     1       5.632   6.585  18.067  0.00  0.00    +0.000 A 
ATOM      6  C   UNL     1       4.631   5.579  18.018  0.00  0.00    +0.000 A 
ATOM      7  C   UNL     1       3.511   5.517  18.909  0.00  0.00    +0.000 A 
ATOM      8  C   UNL     1       2.683   4.363  18.902  0.00  0.00    +0.000 A 
ATOM      9  C   UNL     1       1.602   4.150  19.799  0.00  0.00    +0.000 A 
ATOM     10  C   UNL     1       0.834   2.986  19.745  0.00  0.00    +0.000 A 
ATOM     11  C   UNL     1       1.116   2.028  18.784  0.00  0.00    +0.000 A 
ATOM     12  C   UNL     1       2.165   2.243  17.883  0.00  0.00    +0.000 A 
ATOM     13  C   UNL     1       2.952   3.388  17.926  0.00  0.00    +0.000 A 
ATOM     14  N   UNL     1       3.931   3.512  17.015  0.00  0.00    +0.000 NA
ATOM     15  C   UNL     1       4.755   4.577  17.039  0.00  0.00    +0.000 A 
ENDROOT
BRANCH   7  16
ATOM     16  N   UNL     1       3.180   6.606  19.789  0.00  0.00    +0.000 N 
ATOM     17  H   UNL     1       3.970   6.878  20.367  0.00  0.00    +0.000 HD
BRANCH  16  18
ATOM     18  C   UNL     1       2.215   7.620  19.584  0.00  0.00    +0.000 A 
ATOM     19  C   UNL     1       2.134   8.299  18.358  0.00  0.00    +0.000 A 
ATOM     20  C   UNL     1       1.441   9.506  18.252  0.00  0.00    +0.000 A 
ATOM     21  C   UNL     1       0.759  10.014  19.351  0.00  0.00    +0.000 A 
ATOM     22  C   UNL     1       0.706   9.280  20.535  0.00  0.00    +0.000 A 
ATOM     23  C   UNL     1       1.434   8.084  20.653  0.00  0.00    +0.000 A 
BRANCH  21  24
ATOM     24  N   UNL     1       0.200  11.314  19.253  0.00  0.00    +0.000 N 
ATOM     25  H   UNL     1       0.355  11.831  18.388  0.00  0.00    +0.000 HD
BRANCH  24  26
ATOM     26  S   UNL     1       0.137  12.308  20.603  0.00  0.00    +0.000 S 
ATOM     27  C   UNL     1      -0.230  13.881  19.861  0.00  0.00    +0.000 C 
ATOM     28  O   UNL     1      -0.966  11.913  21.457  0.00  0.00    +0.000 OA
ATOM     29  O   UNL     1       1.491  12.367  21.107  0.00  0.00    +0.000 OA
ENDBRANCH  24  26
ENDBRANCH  21  24
ENDBRANCH  16  18
ENDBRANCH   7  16
TORSDOF 4
ENDMDL
MODEL 5
REMARK VINA RESULT:      -8.6      0.684      1.250
REMARK  Name = 
REMARK  6 active torsions:
REMARK  status: ('A' for Active; 'I' for Inactive)
REMARK    1  A    between atoms: C_1  and  C_2
REMARK    2  A    between atoms: C_7  and  N_8
REMARK    3  A    between atoms: N_8  and  C_9
REMARK    4  A    between atoms: C_12  and  N_13
REMARK    5  A    between atoms: N_13  and  S_14
REMARK    6  A    between atoms: S_14  and  C_15
REMARK                            x       y       z     vdW  Elec       q    Type
REMARK                         _______ _______ _______ _____ _____    ______ ____
ROOT
ATOM      1  C   UNL     1       5.617   3.757  14.947  0.00  0.00    +0.000 C 
ATOM      2  C   UNL     1       5.482   4.786  16.038  0.00  0.00    +0.000 A 
ATOM      3  C   UNL     1       6.367   5.877  16.029  0.00  0.00    +0.000 A 
ATOM      4  C   UNL     1       6.370   6.771  17.079  0.00  0.00    +0.000 A 
ATOM      5  C   UNL     1       5.455   6.596  18.105  0.00  0.00    +0.000 A 
ATOM      6  C   UNL     1       4.435   5.610  18.060  0.00  0.00    +0.000 A 
ATOM      7  C   UNL     1       3.349   5.534  18.991  0.00  0.00    +0.000 A 
ATOM      8  C   UNL     1       2.500   4.395  18.976  0.00  0.00    +0.000 A 
ATOM      9  C   UNL     1       1.451   4.168  19.906  0.00  0.00    +0.000 A 
ATOM     10  C   UNL     1       0.660   3.020  19.841  0.00  0.00    +0.000 A 
ATOM     11  C   UNL     1       0.888   2.093  18.837  0.00  0.00    +0.000 A 
ATOM     12  C   UNL     1       1.906   2.322  17.904  0.00  0.00    +0.000 A 
ATOM     13  C   UNL     1       2.714   3.452  17.956  0.00  0.00    +0.000 A 
ATOM     14  N   UNL     1       3.660   3.591  17.013  0.00  0.00    +0.000 NA
ATOM     15  C   UNL     1       4.503   4.641  17.042  0.00  0.00    +0.000 A 
ENDROOT
BRANCH   7  16
ATOM     16  N   UNL     1       3.071   6.597  19.921  0.00  0.00    +0.000 N 
ATOM     17  H   UNL     1       3.804   6.689  20.618  0.00  0.00    +0.000 HD
BRANCH  16  18
ATOM     18  C   UNL     1       2.314   7.770  19.691  0.00  0.00    +0.000 A 
ATOM     19  C   UNL     1       1.491   8.303  20.696  0.00  0.00    +0.000 A 
ATOM     20  C   UNL     1       0.497   9.234  20.389  0.00  0.00    +0.000 A 
ATOM     21  C   UNL     1       0.359   9.697  19.086  0.00  0.00    +0.000 A 
ATOM     22  C   UNL     1       1.261   9.289  18.104  0.00  0.00    +0.000 A 
ATOM     23  C   UNL     1       2.238   8.326  18.406  0.00  0.00    +0.000 A 
BRANCH  21  24
ATOM     24  N   UNL     1      -0.756  10.518  18.780  0.00  0.00    +0.000 N 
ATOM     25  H   UNL     1      -1.352  10.236  18.002  0.00  0.00    +0.000 HD
BRANCH  24  26
ATOM     26  S   UNL     1      -0.647  12.184  18.944  0.00  0.00    +0.000 S 
ATOM     27  C   UNL     1      -1.857  12.490  20.210  0.00  0.00    +0.000 C 
ATOM     28  O   UNL     1       0.666  12.547  19.441  0.00  0.00    +0.000 OA
ATOM     29  O   UNL     1      -1.159  12.732  17.708  0.00  0.00    +0.000 OA
ENDBRANCH  24  26
ENDBRANCH  21  24
ENDBRANCH  16  18
ENDBRANCH   7  16
TORSDOF 4
ENDMDL
MODEL 6
REMARK VINA RESULT:      -8.4      1.001      1.490
REMARK  Name = 
REMARK  6 active torsions:
REMARK  status: ('A' for Active; 'I' for Inactive)
REMARK    1  A    between atoms: C_1  and  C_2
REMARK    2  A    between atoms: C_7  and  N_8
REMARK    3  A    between atoms: N_8  and  C_9
REMARK    4  A    between atoms: C_12  and  N_13
REMARK    5  A    between atoms: N_13  and  S_14
REMARK    6  A    between atoms: S_14  and  C_15
REMARK                            x       y       z     vdW  Elec       q    Type
REMARK                         _______ _______ _______ _____ _____    ______ ____
ROOT
ATOM      1  C   UNL     1       5.936   3.683  15.304  0.00  0.00    +0.000 C 
ATOM      2  C   UNL     1       5.647   4.766  16.309  0.00  0.00    +0.000 A 
ATOM      3  C   UNL     1       6.477   5.899  16.315  0.00  0.00    +0.000 A 
ATOM      4  C   UNL     1       6.336   6.852  17.302  0.00  0.00    +0.000 A 
ATOM      5  C   UNL     1       5.333   6.690  18.245  0.00  0.00    +0.000 A 
ATOM      6  C   UNL     1       4.369   5.651  18.165  0.00  0.00    +0.000 A 
ATOM      7  C   UNL     1       3.201   5.574  18.992  0.00  0.00    +0.000 A 
ATOM      8  C   UNL     1       2.412   4.394  18.968  0.00  0.00    +0.000 A 
ATOM      9  C   UNL     1       1.288   4.167  19.806  0.00  0.00    +0.000 A 
ATOM     10  C   UNL     1       0.561   2.978  19.740  0.00  0.00    +0.000 A 
ATOM     11  C   UNL     1       0.929   2.006  18.822  0.00  0.00    +0.000 A 
ATOM     12  C   UNL     1       2.022   2.233  17.978  0.00  0.00    +0.000 A 
ATOM     13  C   UNL     1       2.769   3.404  18.035  0.00  0.00    +0.000 A 
ATOM     14  N   UNL     1       3.795   3.537  17.179  0.00  0.00    +0.000 NA
ATOM     15  C   UNL     1       4.582   4.629  17.222  0.00  0.00    +0.000 A 
ENDROOT
BRANCH   7  16
ATOM     16  N   UNL     1       2.785   6.674  19.821  0.00  0.00    +0.000 N 
ATOM     17  H   UNL     1       3.298   6.701  20.697  0.00  0.00    +0.000 HD
BRANCH  16  18
ATOM     18  C   UNL     1       2.248   7.915  19.405  0.00  0.00    +0.000 A 
ATOM     19  C   UNL     1       1.512   8.714  20.294  0.00  0.00    +0.000 A 
ATOM     20  C   UNL     1       0.701   9.749  19.824  0.00  0.00    +0.000 A 
ATOM     21  C   UNL     1       0.668  10.042  18.467  0.00  0.00    +0.000 A 
ATOM     22  C   UNL     1       1.502   9.355  17.586  0.00  0.00    +0.000 A 
ATOM     23  C   UNL     1       2.291   8.291  18.054  0.00  0.00    +0.000 A 
BRANCH  21  24
ATOM     24  N   UNL     1      -0.282  10.990  18.007  0.00  0.00    +0.000 N 
ATOM     25  H   UNL     1      -0.032  11.977  18.064  0.00  0.00    +0.000 HD
BRANCH  24  26
ATOM     26  S   UNL     1      -1.922  10.721  18.240  0.00  0.00    +0.000 S 
ATOM     27  C   UNL     1      -2.603  11.400  16.746  0.00  0.00    +0.000 C 
ATOM     28  O   UNL     1      -2.187   9.296  18.281  0.00  0.00    +0.000 OA
ATOM     29  O   UNL     1      -2.308  11.587  19.331  0.00  0.00    +0.000 OA
ENDBRANCH  24  26
ENDBRANCH  21  24
ENDBRANCH  16  18
ENDBRANCH   7  16
TORSDOF 4
ENDMDL
MODEL 7
REMARK VINA RESULT:      -8.3      1.129      1.469
REMARK  Name = 
REMARK  6 active torsions:
REMARK  status: ('A' for Active; 'I' for Inactive)
REMARK    1  A    between atoms: C_1  and  C_2
REMARK    2  A    between atoms: C_7  and  N_8
REMARK    3  A    between atoms: N_8  and  C_9
REMARK    4  A    between atoms: C_12  and  N_13
REMARK    5  A    between atoms: N_13  and  S_14
REMARK    6  A    between atoms: S_14  and  C_15
REMARK                            x       y       z     vdW  Elec       q    Type
REMARK                         _______ _______ _______ _____ _____    ______ ____
ROOT
ATOM      1  C   UNL     1       5.409   4.022  14.901  0.00  0.00    +0.000 C 
ATOM      2  C   UNL     1       5.278   5.036  16.006  0.00  0.00    +0.000 A 
ATOM      3  C   UNL     1       6.126   6.155  15.979  0.00  0.00    +0.000 A 
ATOM      4  C   UNL     1       6.137   7.038  17.038  0.00  0.00    +0.000 A 
ATOM      5  C   UNL     1       5.263   6.824  18.092  0.00  0.00    +0.000 A 
ATOM      6  C   UNL     1       4.276   5.805  18.071  0.00  0.00    +0.000 A 
ATOM      7  C   UNL     1       3.225   5.685  19.039  0.00  0.00    +0.000 A 
ATOM      8  C   UNL     1       2.414   4.519  19.040  0.00  0.00    +0.000 A 
ATOM      9  C   UNL     1       1.406   4.249  20.004  0.00  0.00    +0.000 A 
ATOM     10  C   UNL     1       0.651   3.076  19.954  0.00  0.00    +0.000 A 
ATOM     11  C   UNL     1       0.874   2.166  18.932  0.00  0.00    +0.000 A 
ATOM     12  C   UNL     1       1.851   2.438  17.967  0.00  0.00    +0.000 A 
ATOM     13  C   UNL     1       2.624   3.593  18.004  0.00  0.00    +0.000 A 
ATOM     14  N   UNL     1       3.531   3.772  17.030  0.00  0.00    +0.000 NA
ATOM     15  C   UNL     1       4.340   4.849  17.042  0.00  0.00    +0.000 A 
ENDROOT
BRANCH   7  16
ATOM     16  N   UNL     1       2.946   6.729  19.988  0.00  0.00    +0.000 N 
ATOM     17  H   UNL     1       3.705   6.848  20.653  0.00  0.00    +0.000 HD
BRANCH  16  18
ATOM     18  C   UNL     1       2.131   7.870  19.803  0.00  0.00    +0.000 A 
ATOM     19  C   UNL     1       1.267   8.311  20.819  0.00  0.00    +0.000 A 
ATOM     20  C   UNL     1       0.230   9.202  20.541  0.00  0.00    +0.000 A 
ATOM     21  C   UNL     1       0.084   9.719  19.259  0.00  0.00    +0.000 A 
ATOM     22  C   UNL     1       1.018   9.406  18.273  0.00  0.00    +0.000 A 
ATOM     23  C   UNL     1       2.041   8.482  18.543  0.00  0.00    +0.000 A 
BRANCH  21  24
ATOM     24  N   UNL     1      -1.070  10.494  18.975  0.00  0.00    +0.000 N 
ATOM     25  H   UNL     1      -1.499  10.385  18.056  0.00  0.00    +0.000 HD
BRANCH  24  26
ATOM     26  S   UNL     1      -1.206  12.055  19.575  0.00  0.00    +0.000 S 
ATOM     27  C   UNL     1      -0.527  13.004  18.236  0.00  0.00    +0.000 C 
ATOM     28  O   UNL     1      -2.604  12.399  19.744  0.00  0.00    +0.000 OA
ATOM     29  O   UNL     1      -0.276  12.129  20.681  0.00  0.00    +0.000 OA
ENDBRANCH  24  26
ENDBRANCH  21  24
ENDBRANCH  16  18
ENDBRANCH   7  16
TORSDOF 4
ENDMDL
MODEL 8
REMARK VINA RESULT:      -8.3      3.695      9.028
REMARK  Name = 
REMARK  6 active torsions:
REMARK  status: ('A' for Active; 'I' for Inactive)
REMARK    1  A    between atoms: C_1  and  C_2
REMARK    2  A    between atoms: C_7  and  N_8
REMARK    3  A    between atoms: N_8  and  C_9
REMARK    4  A    between atoms: C_12  and  N_13
REMARK    5  A    between atoms: N_13  and  S_14
REMARK    6  A    between atoms: S_14  and  C_15
REMARK                            x       y       z     vdW  Elec       q    Type
REMARK                         _______ _______ _______ _____ _____    ______ ____
ROOT
ATOM      1  C   UNL     1      -5.509  12.120  17.451  0.00  0.00    +0.000 C 
ATOM      2  C   UNL     1      -4.147  11.486  17.353  0.00  0.00    +0.000 A 
ATOM      3  C   UNL     1      -3.835  10.768  16.186  0.00  0.00    +0.000 A 
ATOM      4  C   UNL     1      -2.655  10.060  16.107  0.00  0.00    +0.000 A 
ATOM      5  C   UNL     1      -1.772  10.115  17.174  0.00  0.00    +0.000 A 
ATOM      6  C   UNL     1      -1.976  10.966  18.291  0.00  0.00    +0.000 A 
ATOM      7  C   UNL     1      -0.994  11.208  19.306  0.00  0.00    +0.000 A 
ATOM      8  C   UNL     1      -1.369  11.915  20.480  0.00  0.00    +0.000 A 
ATOM      9  C   UNL     1      -0.509  12.135  21.589  0.00  0.00    +0.000 A 
ATOM     10  C   UNL     1      -0.945  12.830  22.718  0.00  0.00    +0.000 A 
ATOM     11  C   UNL     1      -2.236  13.333  22.751  0.00  0.00    +0.000 A 
ATOM     12  C   UNL     1      -3.081  13.138  21.651  0.00  0.00    +0.000 A 
ATOM     13  C   UNL     1      -2.673  12.439  20.522  0.00  0.00    +0.000 A 
ATOM     14  N   UNL     1      -3.549  12.310  19.512  0.00  0.00    +0.000 NA
ATOM     15  C   UNL     1      -3.225  11.602  18.414  0.00  0.00    +0.000 A 
ENDROOT
BRANCH   7  16
ATOM     16  N   UNL     1       0.373  10.786  19.155  0.00  0.00    +0.000 N 
ATOM     17  H   UNL     1       1.026  11.514  19.430  0.00  0.00    +0.000 HD
BRANCH  16  18
ATOM     18  C   UNL     1       0.884   9.468  19.229  0.00  0.00    +0.000 A 
ATOM     19  C   UNL     1       0.833   8.743  20.430  0.00  0.00    +0.000 A 
ATOM     20  C   UNL     1       1.620   7.605  20.613  0.00  0.00    +0.000 A 
ATOM     21  C   UNL     1       2.415   7.136  19.575  0.00  0.00    +0.000 A 
ATOM     22  C   UNL     1       2.368   7.758  18.328  0.00  0.00    +0.000 A 
ATOM     23  C   UNL     1       1.604   8.924  18.155  0.00  0.00    +0.000 A 
BRANCH  21  24
ATOM     24  N   UNL     1       3.318   6.076  19.846  0.00  0.00    +0.000 N 
ATOM     25  H   UNL     1       4.259   6.146  19.461  0.00  0.00    +0.000 HD
BRANCH  24  26
ATOM     26  S   UNL     1       2.762   4.495  19.923  0.00  0.00    +0.000 S 
ATOM     27  C   UNL     1       4.225   3.589  19.479  0.00  0.00    +0.000 C 
ATOM     28  O   UNL     1       2.392   4.166  21.285  0.00  0.00    +0.000 OA
ATOM     29  O   UNL     1       1.817   4.361  18.836  0.00  0.00    +0.000 OA
ENDBRANCH  24  26
ENDBRANCH  21  24
ENDBRANCH  16  18
ENDBRANCH   7  16
TORSDOF 4
ENDMDL
MODEL 9
REMARK VINA RESULT:      -8.2      1.886      3.985
REMARK  Name = 
REMARK  6 active torsions:
REMARK  status: ('A' for Active; 'I' for Inactive)
REMARK    1  A    between atoms: C_1  and  C_2
REMARK    2  A    between atoms: C_7  and  N_8
REMARK    3  A    between atoms: N_8  and  C_9
REMARK    4  A    between atoms: C_12  and  N_13
REMARK    5  A    between atoms: N_13  and  S_14
REMARK    6  A    between atoms: S_14  and  C_15
REMARK                            x       y       z     vdW  Elec       q    Type
REMARK                         _______ _______ _______ _____ _____    ______ ____
ROOT
ATOM      1  C   UNL     1       3.020   1.002  18.889  0.00  0.00    +0.000 C 
ATOM      2  C   UNL     1       2.654   2.303  19.552  0.00  0.00    +0.000 A 
ATOM      3  C   UNL     1       1.905   2.251  20.739  0.00  0.00    +0.000 A 
ATOM      4  C   UNL     1       1.433   3.414  21.308  0.00  0.00    +0.000 A 
ATOM      5  C   UNL     1       1.756   4.625  20.714  0.00  0.00    +0.000 A 
ATOM      6  C   UNL     1       2.652   4.723  19.618  0.00  0.00    +0.000 A 
ATOM      7  C   UNL     1       3.173   5.960  19.115  0.00  0.00    +0.000 A 
ATOM      8  C   UNL     1       3.900   5.961  17.895  0.00  0.00    +0.000 A 
ATOM      9  C   UNL     1       4.385   7.133  17.255  0.00  0.00    +0.000 A 
ATOM     10  C   UNL     1       5.084   7.064  16.049  0.00  0.00    +0.000 A 
ATOM     11  C   UNL     1       5.330   5.827  15.475  0.00  0.00    +0.000 A 
ATOM     12  C   UNL     1       4.874   4.667  16.113  0.00  0.00    +0.000 A 
ATOM     13  C   UNL     1       4.165   4.711  17.307  0.00  0.00    +0.000 A 
ATOM     14  N   UNL     1       3.776   3.547  17.851  0.00  0.00    +0.000 NA
ATOM     15  C   UNL     1       3.044   3.532  18.981  0.00  0.00    +0.000 A 
ENDROOT
BRANCH   7  16
ATOM     16  N   UNL     1       3.009   7.198  19.829  0.00  0.00    +0.000 N 
ATOM     17  H   UNL     1       3.882   7.713  19.898  0.00  0.00    +0.000 HD
BRANCH  16  18
ATOM     18  C   UNL     1       1.841   7.990  19.929  0.00  0.00    +0.000 A 
ATOM     19  C   UNL     1       1.502   8.903  18.918  0.00  0.00    +0.000 A 
ATOM     20  C   UNL     1       0.569   9.915  19.149  0.00  0.00    +0.000 A 
ATOM     21  C   UNL     1      -0.089   9.986  20.371  0.00  0.00    +0.000 A 
ATOM     22  C   UNL     1       0.127   9.002  21.335  0.00  0.00    +0.000 A 
ATOM     23  C   UNL     1       1.092   8.005  21.115  0.00  0.00    +0.000 A 
BRANCH  21  24
ATOM     24  N   UNL     1      -0.909  11.115  20.627  0.00  0.00    +0.000 N 
ATOM     25  H   UNL     1      -1.398  11.534  19.837  0.00  0.00    +0.000 HD
BRANCH  24  26
ATOM     26  S   UNL     1      -0.454  12.242  21.783  0.00  0.00    +0.000 S 
ATOM     27  C   UNL     1      -1.389  13.664  21.272  0.00  0.00    +0.000 C 
ATOM     28  O   UNL     1      -0.908  11.818  23.094  0.00  0.00    +0.000 OA
ATOM     29  O   UNL     1       0.942  12.520  21.528  0.00  0.00    +0.000 OA
ENDBRANCH  24  26
ENDBRANCH  21  24
ENDBRANCH  16  18
ENDBRANCH   7  16
TORSDOF 4
ENDMDL
