MODEL 1
REMARK VINA RESULT:      -8.6      0.000      0.000
REMARK  Name = 
REMARK  10 active torsions:
REMARK  status: ('A' for Active; 'I' for Inactive)
REMARK    1  A    between atoms: C_1  and  O_2
REMARK    2  A    between atoms: O_2  and  C_3
REMARK    3  A    between atoms: C_6  and  O_7
REMARK    4  A    between atoms: O_7  and  C_8
REMARK    5  A    between atoms: C_9  and  C_10
REMARK    6  A    between atoms: C_10  and  N_11
REMARK    7  A    between atoms: C_12  and  C_14
REMARK    8  A    between atoms: N_17  and  S_18
REMARK    9  A    between atoms: S_18  and  C_21
REMARK   10  A    between atoms: N_28  and  C_29
REMARK                            x       y       z     vdW  Elec       q    Type
REMARK                         _______ _______ _______ _____ _____    ______ ____
ROOT
ATOM      1  C   UNL     1       7.841   5.951  17.910  0.00  0.00    +0.000 C 
ATOM      2  C   UNL     1       7.167   5.043  16.880  0.00  0.00    +0.000 C 
ATOM      3  C   UNL     1       5.645   5.129  16.980  0.00  0.00    +0.000 C 
ATOM      4  N   UNL     1       5.200   4.707  18.341  0.00  0.00    +0.000 NA
ATOM      5  C   UNL     1       5.812   5.552  19.411  0.00  0.00    +0.000 C 
ATOM      6  C   UNL     1       7.343   5.535  19.307  0.00  0.00    +0.000 C 
ENDROOT
BRANCH   1   8
ATOM      7  N   UNL     1       8.447   8.299  18.335  0.00  0.00    +0.000 N 
ATOM      8  C   UNL     1       7.628   7.438  17.652  0.00  0.00    +0.000 C 
ATOM      9  O   UNL     1       6.744   7.859  16.902  0.00  0.00    +0.000 OA
ATOM     10  H   UNL     1       9.227   7.947  18.884  0.00  0.00    +0.000 HD
BRANCH   7  11
ATOM     11  C   UNL     1       8.469   9.716  18.051  0.00  0.00    +0.000 C 
BRANCH  11  16
ATOM     12  C   UNL     1       9.234  11.425  21.365  0.00  0.00    +0.000 A 
ATOM     13  C   UNL     1      10.324  12.226  21.045  0.00  0.00    +0.000 A 
ATOM     14  C   UNL     1      10.854  12.219  19.755  0.00  0.00    +0.000 A 
ATOM     15  C   UNL     1      10.288  11.418  18.753  0.00  0.00    +0.000 A 
ATOM     16  C   UNL     1       9.208  10.569  19.067  0.00  0.00    +0.000 A 
ATOM     17  C   UNL     1       8.687  10.599  20.381  0.00  0.00    +0.000 A 
BRANCH  12  19
ATOM     18  C   UNL     1       8.309  12.825  23.049  0.00  0.00    +0.000 C 
ATOM     19  O   UNL     1       8.799  11.551  22.654  0.00  0.00    +0.000 OA
ENDBRANCH  12  19
BRANCH  15  20
ATOM     20  O   UNL     1      10.762  11.397  17.464  0.00  0.00    +0.000 OA
ATOM     21  C   UNL     1      11.298  12.628  16.980  0.00  0.00    +0.000 C 
ENDBRANCH  15  20
ENDBRANCH  11  16
ENDBRANCH   7  11
ENDBRANCH   1   8
BRANCH   4  22
ATOM     22  S   UNL     1       3.481   4.554  18.489  0.00  0.00    +0.000 S 
ATOM     23  O   UNL     1       2.943   4.141  17.211  0.00  0.00    +0.000 OA
ATOM     24  O   UNL     1       3.213   3.801  19.700  0.00  0.00    +0.000 OA
BRANCH  22  25
ATOM     25  C   UNL     1       2.981   6.240  18.752  0.00  0.00    +0.000 A 
ATOM     26  C   UNL     1       3.076   7.205  17.739  0.00  0.00    +0.000 A 
ATOM     27  C   UNL     1       2.491   8.472  17.910  0.00  0.00    +0.000 A 
ATOM     28  C   UNL     1       1.772   8.714  19.101  0.00  0.00    +0.000 A 
ATOM     29  C   UNL     1       1.745   7.766  20.141  0.00  0.00    +0.000 A 
ATOM     30  C   UNL     1       0.955   8.300  21.188  0.00  0.00    +0.000 A 
ATOM     31  C   UNL     1       0.357   9.434  20.706  0.00  0.00    +0.000 A 
ATOM     32  N   UNL     1       1.011   9.773  19.544  0.00  0.00    +0.000 N 
ATOM     33  C   UNL     1       0.905  11.106  18.988  0.00  0.00    +0.000 C 
ATOM     34  C   UNL     1       2.402   6.541  19.981  0.00  0.00    +0.000 A 
ENDBRANCH  22  25
ENDBRANCH   4  22
TORSDOF 7
ENDMDL
MODEL 2
REMARK VINA RESULT:      -7.8      4.921      8.838
REMARK  Name = 
REMARK  10 active torsions:
REMARK  status: ('A' for Active; 'I' for Inactive)
REMARK    1  A    between atoms: C_1  and  O_2
REMARK    2  A    between atoms: O_2  and  C_3
REMARK    3  A    between atoms: C_6  and  O_7
REMARK    4  A    between atoms: O_7  and  C_8
REMARK    5  A    between atoms: C_9  and  C_10
REMARK    6  A    between atoms: C_10  and  N_11
REMARK    7  A    between atoms: C_12  and  C_14
REMARK    8  A    between atoms: N_17  and  S_18
REMARK    9  A    between atoms: S_18  and  C_21
REMARK   10  A    between atoms: N_28  and  C_29
REMARK                            x       y       z     vdW  Elec       q    Type
REMARK                         _______ _______ _______ _____ _____    ______ ____
ROOT
ATOM      1  C   UNL     1       0.746   9.918  18.077  0.00  0.00    +0.000 C 
ATOM      2  C   UNL     1       1.209  11.355  18.319  0.00  0.00    +0.000 C 
ATOM      3  C   UNL     1       1.180  11.702  19.806  0.00  0.00    +0.000 C 
ATOM      4  N   UNL     1      -0.209  11.561  20.334  0.00  0.00    +0.000 NA
ATOM      5  C   UNL     1      -0.738  10.177  20.141  0.00  0.00    +0.000 C 
ATOM      6  C   UNL     1      -0.672   9.772  18.662  0.00  0.00    +0.000 C 
ENDROOT
BRANCH   1   8
ATOM      7  N   UNL     1       2.605   8.339  17.744  0.00  0.00    +0.000 N 
ATOM      8  C   UNL     1       1.698   8.863  18.628  0.00  0.00    +0.000 C 
ATOM      9  O   UNL     1       1.641   8.465  19.794  0.00  0.00    +0.000 OA
ATOM     10  H   UNL     1       2.704   8.729  16.811  0.00  0.00    +0.000 HD
BRANCH   7  11
ATOM     11  C   UNL     1       3.673   7.467  18.176  0.00  0.00    +0.000 C 
BRANCH  11  16
ATOM     12  C   UNL     1       2.372   3.889  18.194  0.00  0.00    +0.000 A 
ATOM     13  C   UNL     1       3.215   3.259  17.287  0.00  0.00    +0.000 A 
ATOM     14  C   UNL     1       4.214   3.978  16.630  0.00  0.00    +0.000 A 
ATOM     15  C   UNL     1       4.397   5.344  16.883  0.00  0.00    +0.000 A 
ATOM     16  C   UNL     1       3.526   6.011  17.768  0.00  0.00    +0.000 A 
ATOM     17  C   UNL     1       2.525   5.258  18.425  0.00  0.00    +0.000 A 
BRANCH  12  19
ATOM     18  C   UNL     1       0.856   3.523  19.988  0.00  0.00    +0.000 C 
ATOM     19  O   UNL     1       1.459   3.063  18.786  0.00  0.00    +0.000 OA
ENDBRANCH  12  19
BRANCH  15  20
ATOM     20  O   UNL     1       5.381   6.086  16.277  0.00  0.00    +0.000 OA
ATOM     21  C   UNL     1       6.708   5.859  16.749  0.00  0.00    +0.000 C 
ENDBRANCH  15  20
ENDBRANCH  11  16
ENDBRANCH   7  11
ENDBRANCH   1   8
BRANCH   4  22
ATOM     22  S   UNL     1      -0.395  12.146  21.954  0.00  0.00    +0.000 S 
ATOM     23  O   UNL     1      -0.247  11.033  22.866  0.00  0.00    +0.000 OA
ATOM     24  O   UNL     1       0.419  13.341  22.083  0.00  0.00    +0.000 OA
BRANCH  22  25
ATOM     25  C   UNL     1      -2.107  12.625  21.979  0.00  0.00    +0.000 A 
ATOM     26  C   UNL     1      -2.827  12.857  20.799  0.00  0.00    +0.000 A 
ATOM     27  C   UNL     1      -4.221  13.037  20.841  0.00  0.00    +0.000 A 
ATOM     28  C   UNL     1      -4.864  12.927  22.093  0.00  0.00    +0.000 A 
ATOM     29  C   UNL     1      -4.125  12.768  23.281  0.00  0.00    +0.000 A 
ATOM     30  C   UNL     1      -5.046  12.697  24.354  0.00  0.00    +0.000 A 
ATOM     31  C   UNL     1      -6.298  12.602  23.806  0.00  0.00    +0.000 A 
ATOM     32  N   UNL     1      -6.187  12.946  22.479  0.00  0.00    +0.000 N 
ATOM     33  C   UNL     1      -7.349  13.328  21.705  0.00  0.00    +0.000 C 
ATOM     34  C   UNL     1      -2.730  12.671  23.224  0.00  0.00    +0.000 A 
ENDBRANCH  22  25
ENDBRANCH   4  22
TORSDOF 7
ENDMDL
MODEL 3
REMARK VINA RESULT:      -7.8      5.203      9.076
REMARK  Name = 
REMARK  10 active torsions:
REMARK  status: ('A' for Active; 'I' for Inactive)
REMARK    1  A    between atoms: C_1  and  O_2
REMARK    2  A    between atoms: O_2  and  C_3
REMARK    3  A    between atoms: C_6  and  O_7
REMARK    4  A    between atoms: O_7  and  C_8
REMARK    5  A    between atoms: C_9  and  C_10
REMARK    6  A    between atoms: C_10  and  N_11
REMARK    7  A    between atoms: C_12  and  C_14
REMARK    8  A    between atoms: N_17  and  S_18
REMARK    9  A    between atoms: S_18  and  C_21
REMARK   10  A    between atoms: N_28  and  C_29
REMARK                            x       y       z     vdW  Elec       q    Type
REMARK                         _______ _______ _______ _____ _____    ______ ____
ROOT
ATOM      1  C   UNL     1       0.902   9.906  18.511  0.00  0.00    +0.000 C 
ATOM      2  C   UNL     1       1.526  11.268  18.817  0.00  0.00    +0.000 C 
ATOM      3  C   UNL     1       1.275  11.678  20.267  0.00  0.00    +0.000 C 
ATOM      4  N   UNL     1      -0.192  11.765  20.525  0.00  0.00    +0.000 NA
ATOM      5  C   UNL     1      -0.881  10.467  20.253  0.00  0.00    +0.000 C 
ATOM      6  C   UNL     1      -0.605   9.995  18.819  0.00  0.00    +0.000 C 
ENDROOT
BRANCH   1   8
ATOM      7  N   UNL     1       2.295   7.876  18.480  0.00  0.00    +0.000 N 
ATOM      8  C   UNL     1       1.563   8.747  19.247  0.00  0.00    +0.000 C 
ATOM      9  O   UNL     1       1.424   8.566  20.458  0.00  0.00    +0.000 OA
ATOM     10  H   UNL     1       2.477   8.075  17.501  0.00  0.00    +0.000 HD
BRANCH   7  11
ATOM     11  C   UNL     1       3.113   6.843  19.073  0.00  0.00    +0.000 C 
BRANCH  11  16
ATOM     12  C   UNL     1       5.180   5.569  16.142  0.00  0.00    +0.000 A 
ATOM     13  C   UNL     1       4.819   4.228  16.080  0.00  0.00    +0.000 A 
ATOM     14  C   UNL     1       3.913   3.696  16.997  0.00  0.00    +0.000 A 
ATOM     15  C   UNL     1       3.338   4.504  17.987  0.00  0.00    +0.000 A 
ATOM     16  C   UNL     1       3.722   5.856  18.092  0.00  0.00    +0.000 A 
ATOM     17  C   UNL     1       4.638   6.372  17.147  0.00  0.00    +0.000 A 
BRANCH  12  19
ATOM     18  C   UNL     1       6.891   4.966  14.605  0.00  0.00    +0.000 C 
ATOM     19  O   UNL     1       6.052   5.965  15.166  0.00  0.00    +0.000 OA
ENDBRANCH  12  19
BRANCH  15  20
ATOM     20  O   UNL     1       2.425   4.028  18.897  0.00  0.00    +0.000 OA
ATOM     21  C   UNL     1       1.315   3.319  18.347  0.00  0.00    +0.000 C 
ENDBRANCH  15  20
ENDBRANCH  11  16
ENDBRANCH   7  11
ENDBRANCH   1   8
BRANCH   4  22
ATOM     22  S   UNL     1      -0.583  12.438  22.072  0.00  0.00    +0.000 S 
ATOM     23  O   UNL     1      -0.522  11.385  23.062  0.00  0.00    +0.000 OA
ATOM     24  O   UNL     1       0.183  13.662  22.221  0.00  0.00    +0.000 OA
BRANCH  22  25
ATOM     25  C   UNL     1      -2.297  12.868  21.865  0.00  0.00    +0.000 A 
ATOM     26  C   UNL     1      -2.859  13.071  20.597  0.00  0.00    +0.000 A 
ATOM     27  C   UNL     1      -4.251  13.211  20.452  0.00  0.00    +0.000 A 
ATOM     28  C   UNL     1      -5.051  13.091  21.609  0.00  0.00    +0.000 A 
ATOM     29  C   UNL     1      -4.473  12.961  22.885  0.00  0.00    +0.000 A 
ATOM     30  C   UNL     1      -5.526  12.870  23.827  0.00  0.00    +0.000 A 
ATOM     31  C   UNL     1      -6.691  12.736  23.119  0.00  0.00    +0.000 A 
ATOM     32  N   UNL     1      -6.414  13.075  21.815  0.00  0.00    +0.000 N 
ATOM     33  C   UNL     1      -7.472  13.419  20.890  0.00  0.00    +0.000 C 
ATOM     34  C   UNL     1      -3.081  12.904  23.015  0.00  0.00    +0.000 A 
ENDBRANCH  22  25
ENDBRANCH   4  22
TORSDOF 7
ENDMDL
MODEL 4
REMARK VINA RESULT:      -7.7      4.776      8.544
REMARK  Name = 
REMARK  10 active torsions:
REMARK  status: ('A' for Active; 'I' for Inactive)
REMARK    1  A    between atoms: C_1  and  O_2
REMARK    2  A    between atoms: O_2  and  C_3
REMARK    3  A    between atoms: C_6  and  O_7
REMARK    4  A    between atoms: O_7  and  C_8
REMARK    5  A    between atoms: C_9  and  C_10
REMARK    6  A    between atoms: C_10  and  N_11
REMARK    7  A    between atoms: C_12  and  C_14
REMARK    8  A    between atoms: N_17  and  S_18
REMARK    9  A    between atoms: S_18  and  C_21
REMARK   10  A    between atoms: N_28  and  C_29
REMARK                            x       y       z     vdW  Elec       q    Type
REMARK                         _______ _______ _______ _____ _____    ______ ____
ROOT
ATOM      1  C   UNL     1       1.004   9.844  18.297  0.00  0.00    +0.000 C 
ATOM      2  C   UNL     1       1.687  11.161  18.668  0.00  0.00    +0.000 C 
ATOM      3  C   UNL     1       1.417  11.532  20.125  0.00  0.00    +0.000 C 
ATOM      4  N   UNL     1      -0.050  11.685  20.349  0.00  0.00    +0.000 NA
ATOM      5  C   UNL     1      -0.796  10.434  20.013  0.00  0.00    +0.000 C 
ATOM      6  C   UNL     1      -0.505   9.999  18.570  0.00  0.00    +0.000 C 
ENDROOT
BRANCH   1   8
ATOM      7  N   UNL     1       2.172   7.679  18.209  0.00  0.00    +0.000 N 
ATOM      8  C   UNL     1       1.586   8.628  19.007  0.00  0.00    +0.000 C 
ATOM      9  O   UNL     1       1.507   8.473  20.228  0.00  0.00    +0.000 OA
ATOM     10  H   UNL     1       2.310   7.850  17.217  0.00  0.00    +0.000 HD
BRANCH   7  11
ATOM     11  C   UNL     1       2.914   6.570  18.764  0.00  0.00    +0.000 C 
BRANCH  11  16
ATOM     12  C   UNL     1       6.204   6.467  16.853  0.00  0.00    +0.000 A 
ATOM     13  C   UNL     1       6.102   5.276  16.144  0.00  0.00    +0.000 A 
ATOM     14  C   UNL     1       4.976   4.464  16.281  0.00  0.00    +0.000 A 
ATOM     15  C   UNL     1       3.921   4.841  17.122  0.00  0.00    +0.000 A 
ATOM     16  C   UNL     1       4.022   6.024  17.880  0.00  0.00    +0.000 A 
ATOM     17  C   UNL     1       5.172   6.832  17.719  0.00  0.00    +0.000 A 
BRANCH  12  19
ATOM     18  C   UNL     1       7.837   7.998  17.653  0.00  0.00    +0.000 C 
ATOM     19  O   UNL     1       7.344   7.179  16.603  0.00  0.00    +0.000 OA
ENDBRANCH  12  19
BRANCH  15  20
ATOM     20  O   UNL     1       2.783   4.084  17.271  0.00  0.00    +0.000 OA
ATOM     21  C   UNL     1       2.951   2.839  17.948  0.00  0.00    +0.000 C 
ENDBRANCH  15  20
ENDBRANCH  11  16
ENDBRANCH   7  11
ENDBRANCH   1   8
BRANCH   4  22
ATOM     22  S   UNL     1      -0.449  12.323  21.909  0.00  0.00    +0.000 S 
ATOM     23  O   UNL     1      -0.377  11.251  22.878  0.00  0.00    +0.000 OA
ATOM     24  O   UNL     1       0.304  13.551  22.084  0.00  0.00    +0.000 OA
BRANCH  22  25
ATOM     25  C   UNL     1      -2.167  12.739  21.710  0.00  0.00    +0.000 A 
ATOM     26  C   UNL     1      -2.765  12.822  20.445  0.00  0.00    +0.000 A 
ATOM     27  C   UNL     1      -4.159  12.954  20.326  0.00  0.00    +0.000 A 
ATOM     28  C   UNL     1      -4.927  12.950  21.511  0.00  0.00    +0.000 A 
ATOM     29  C   UNL     1      -4.312  12.940  22.777  0.00  0.00    +0.000 A 
ATOM     30  C   UNL     1      -5.339  12.944  23.753  0.00  0.00    +0.000 A 
ATOM     31  C   UNL     1      -6.524  12.749  23.094  0.00  0.00    +0.000 A 
ATOM     32  N   UNL     1      -6.283  12.960  21.756  0.00  0.00    +0.000 N 
ATOM     33  C   UNL     1      -7.367  13.218  20.832  0.00  0.00    +0.000 C 
ATOM     34  C   UNL     1      -2.918  12.888  22.873  0.00  0.00    +0.000 A 
ENDBRANCH  22  25
ENDBRANCH   4  22
TORSDOF 7
ENDMDL
MODEL 5
REMARK VINA RESULT:      -7.7      5.198      9.226
REMARK  Name = 
REMARK  10 active torsions:
REMARK  status: ('A' for Active; 'I' for Inactive)
REMARK    1  A    between atoms: C_1  and  O_2
REMARK    2  A    between atoms: O_2  and  C_3
REMARK    3  A    between atoms: C_6  and  O_7
REMARK    4  A    between atoms: O_7  and  C_8
REMARK    5  A    between atoms: C_9  and  C_10
REMARK    6  A    between atoms: C_10  and  N_11
REMARK    7  A    between atoms: C_12  and  C_14
REMARK    8  A    between atoms: N_17  and  S_18
REMARK    9  A    between atoms: S_18  and  C_21
REMARK   10  A    between atoms: N_28  and  C_29
REMARK                            x       y       z     vdW  Elec       q    Type
REMARK                         _______ _______ _______ _____ _____    ______ ____
ROOT
ATOM      1  C   UNL     1      -0.275  10.244  18.061  0.00  0.00    +0.000 C 
ATOM      2  C   UNL     1      -0.616  11.729  18.192  0.00  0.00    +0.000 C 
ATOM      3  C   UNL     1      -0.302  12.248  19.594  0.00  0.00    +0.000 C 
ATOM      4  N   UNL     1      -1.096  11.492  20.606  0.00  0.00    +0.000 NA
ATOM      5  C   UNL     1      -0.815  10.024  20.549  0.00  0.00    +0.000 C 
ATOM      6  C   UNL     1      -1.068   9.478  19.137  0.00  0.00    +0.000 C 
ENDROOT
BRANCH   1   8
ATOM      7  N   UNL     1       1.579   8.625  18.116  0.00  0.00    +0.000 N 
ATOM      8  C   UNL     1       1.218   9.948  18.139  0.00  0.00    +0.000 C 
ATOM      9  O   UNL     1       2.064  10.837  18.257  0.00  0.00    +0.000 OA
ATOM     10  H   UNL     1       0.888   7.903  17.933  0.00  0.00    +0.000 HD
BRANCH   7  11
ATOM     11  C   UNL     1       2.961   8.215  18.005  0.00  0.00    +0.000 C 
BRANCH  11  16
ATOM     12  C   UNL     1       2.181   4.498  17.748  0.00  0.00    +0.000 A 
ATOM     13  C   UNL     1       3.418   3.954  17.421  0.00  0.00    +0.000 A 
ATOM     14  C   UNL     1       4.532   4.776  17.256  0.00  0.00    +0.000 A 
ATOM     15  C   UNL     1       4.430   6.163  17.431  0.00  0.00    +0.000 A 
ATOM     16  C   UNL     1       3.177   6.739  17.722  0.00  0.00    +0.000 A 
ATOM     17  C   UNL     1       2.064   5.882  17.889  0.00  0.00    +0.000 A 
BRANCH  12  19
ATOM     18  C   UNL     1       1.433   2.503  18.803  0.00  0.00    +0.000 C 
ATOM     19  O   UNL     1       1.183   3.578  17.909  0.00  0.00    +0.000 OA
ENDBRANCH  12  19
BRANCH  15  20
ATOM     20  O   UNL     1       5.505   7.009  17.300  0.00  0.00    +0.000 OA
ATOM     21  C   UNL     1       6.766   6.378  17.077  0.00  0.00    +0.000 C 
ENDBRANCH  15  20
ENDBRANCH  11  16
ENDBRANCH   7  11
ENDBRANCH   1   8
BRANCH   4  22
ATOM     22  S   UNL     1      -0.982  12.149  22.205  0.00  0.00    +0.000 S 
ATOM     23  O   UNL     1      -0.427  11.140  23.080  0.00  0.00    +0.000 OA
ATOM     24  O   UNL     1      -0.382  13.466  22.093  0.00  0.00    +0.000 OA
BRANCH  22  25
ATOM     25  C   UNL     1      -2.694  12.346  22.646  0.00  0.00    +0.000 A 
ATOM     26  C   UNL     1      -3.111  12.401  23.983  0.00  0.00    +0.000 A 
ATOM     27  C   UNL     1      -4.434  12.756  24.300  0.00  0.00    +0.000 A 
ATOM     28  C   UNL     1      -5.299  13.098  23.237  0.00  0.00    +0.000 A 
ATOM     29  C   UNL     1      -4.893  12.968  21.896  0.00  0.00    +0.000 A 
ATOM     30  C   UNL     1      -5.974  13.379  21.078  0.00  0.00    +0.000 A 
ATOM     31  C   UNL     1      -6.916  13.936  21.902  0.00  0.00    +0.000 A 
ATOM     32  N   UNL     1      -6.591  13.575  23.189  0.00  0.00    +0.000 N 
ATOM     33  C   UNL     1      -7.565  13.656  24.257  0.00  0.00    +0.000 C 
ATOM     34  C   UNL     1      -3.595  12.536  21.602  0.00  0.00    +0.000 A 
ENDBRANCH  22  25
ENDBRANCH   4  22
TORSDOF 7
ENDMDL
MODEL 6
REMARK VINA RESULT:      -7.5      5.835     10.480
REMARK  Name = 
REMARK  10 active torsions:
REMARK  status: ('A' for Active; 'I' for Inactive)
REMARK    1  A    between atoms: C_1  and  O_2
REMARK    2  A    between atoms: O_2  and  C_3
REMARK    3  A    between atoms: C_6  and  O_7
REMARK    4  A    between atoms: O_7  and  C_8
REMARK    5  A    between atoms: C_9  and  C_10
REMARK    6  A    between atoms: C_10  and  N_11
REMARK    7  A    between atoms: C_12  and  C_14
REMARK    8  A    between atoms: N_17  and  S_18
REMARK    9  A    between atoms: S_18  and  C_21
REMARK   10  A    between atoms: N_28  and  C_29
REMARK                            x       y       z     vdW  Elec       q    Type
REMARK                         _______ _______ _______ _____ _____    ______ ____
ROOT
ATOM      1  C   UNL     1      -1.332  11.906  18.264  0.00  0.00    +0.000 C 
ATOM      2  C   UNL     1      -1.085  10.446  17.883  0.00  0.00    +0.000 C 
ATOM      3  C   UNL     1      -0.901   9.574  19.123  0.00  0.00    +0.000 C 
ATOM      4  N   UNL     1       0.267  10.057  19.916  0.00  0.00    +0.000 NA
ATOM      5  C   UNL     1       0.102  11.482  20.336  0.00  0.00    +0.000 C 
ATOM      6  C   UNL     1      -0.141  12.382  19.117  0.00  0.00    +0.000 C 
ENDROOT
BRANCH   1   8
ATOM      7  N   UNL     1      -2.736  13.239  19.786  0.00  0.00    +0.000 N 
ATOM      8  C   UNL     1      -2.663  12.140  18.969  0.00  0.00    +0.000 C 
ATOM      9  O   UNL     1      -3.618  11.369  18.852  0.00  0.00    +0.000 OA
ATOM     10  H   UNL     1      -1.978  13.915  19.813  0.00  0.00    +0.000 HD
BRANCH   7  11
ATOM     11  C   UNL     1      -3.984  13.673  20.370  0.00  0.00    +0.000 C 
BRANCH  11  16
ATOM     12  C   UNL     1      -5.693  12.561  23.585  0.00  0.00    +0.000 A 
ATOM     13  C   UNL     1      -4.736  12.855  24.550  0.00  0.00    +0.000 A 
ATOM     14  C   UNL     1      -3.506  13.401  24.185  0.00  0.00    +0.000 A 
ATOM     15  C   UNL     1      -3.217  13.679  22.842  0.00  0.00    +0.000 A 
ATOM     16  C   UNL     1      -4.156  13.351  21.844  0.00  0.00    +0.000 A 
ATOM     17  C   UNL     1      -5.398  12.803  22.242  0.00  0.00    +0.000 A 
BRANCH  12  19
ATOM     18  C   UNL     1      -7.917  11.839  23.155  0.00  0.00    +0.000 C 
ATOM     19  O   UNL     1      -6.863  12.059  24.082  0.00  0.00    +0.000 OA
ENDBRANCH  12  19
BRANCH  15  20
ATOM     20  O   UNL     1      -2.028  14.237  22.439  0.00  0.00    +0.000 OA
ATOM     21  C   UNL     1      -0.918  14.028  23.311  0.00  0.00    +0.000 C 
ENDBRANCH  15  20
ENDBRANCH  11  16
ENDBRANCH   7  11
ENDBRANCH   1   8
BRANCH   4  22
ATOM     22  S   UNL     1       0.699   9.003  21.222  0.00  0.00    +0.000 S 
ATOM     23  O   UNL     1       1.738   9.638  22.003  0.00  0.00    +0.000 OA
ATOM     24  O   UNL     1      -0.533   8.542  21.835  0.00  0.00    +0.000 OA
BRANCH  22  25
ATOM     25  C   UNL     1       1.446   7.637  20.362  0.00  0.00    +0.000 A 
ATOM     26  C   UNL     1       2.246   7.827  19.227  0.00  0.00    +0.000 A 
ATOM     27  C   UNL     1       2.983   6.756  18.691  0.00  0.00    +0.000 A 
ATOM     28  C   UNL     1       2.924   5.513  19.359  0.00  0.00    +0.000 A 
ATOM     29  C   UNL     1       2.061   5.314  20.453  0.00  0.00    +0.000 A 
ATOM     30  C   UNL     1       2.228   3.978  20.894  0.00  0.00    +0.000 A 
ATOM     31  C   UNL     1       3.306   3.463  20.223  0.00  0.00    +0.000 A 
ATOM     32  N   UNL     1       3.575   4.313  19.175  0.00  0.00    +0.000 N 
ATOM     33  C   UNL     1       4.381   3.884  18.052  0.00  0.00    +0.000 C 
ATOM     34  C   UNL     1       1.277   6.373  20.922  0.00  0.00    +0.000 A 
ENDBRANCH  22  25
ENDBRANCH   4  22
TORSDOF 7
ENDMDL
MODEL 7
REMARK VINA RESULT:      -7.5      5.840     10.870
REMARK  Name = 
REMARK  10 active torsions:
REMARK  status: ('A' for Active; 'I' for Inactive)
REMARK    1  A    between atoms: C_1  and  O_2
REMARK    2  A    between atoms: O_2  and  C_3
REMARK    3  A    between atoms: C_6  and  O_7
REMARK    4  A    between atoms: O_7  and  C_8
REMARK    5  A    between atoms: C_9  and  C_10
REMARK    6  A    between atoms: C_10  and  N_11
REMARK    7  A    between atoms: C_12  and  C_14
REMARK    8  A    between atoms: N_17  and  S_18
REMARK    9  A    between atoms: S_18  and  C_21
REMARK   10  A    between atoms: N_28  and  C_29
REMARK                            x       y       z     vdW  Elec       q    Type
REMARK                         _______ _______ _______ _____ _____    ______ ____
ROOT
ATOM      1  C   UNL     1      -0.435  12.078  18.576  0.00  0.00    +0.000 C 
ATOM      2  C   UNL     1      -1.062  10.691  18.432  0.00  0.00    +0.000 C 
ATOM      3  C   UNL     1      -0.880   9.867  19.705  0.00  0.00    +0.000 C 
ATOM      4  N   UNL     1       0.574   9.697  19.998  0.00  0.00    +0.000 NA
ATOM      5  C   UNL     1       1.264  11.013  20.160  0.00  0.00    +0.000 C 
ATOM      6  C   UNL     1       1.056  11.892  18.918  0.00  0.00    +0.000 C 
ENDROOT
BRANCH   1   8
ATOM      7  N   UNL     1      -2.513  12.947  19.569  0.00  0.00    +0.000 N 
ATOM      8  C   UNL     1      -1.142  12.971  19.588  0.00  0.00    +0.000 C 
ATOM      9  O   UNL     1      -0.528  13.709  20.362  0.00  0.00    +0.000 OA
ATOM     10  H   UNL     1      -3.011  12.276  18.991  0.00  0.00    +0.000 HD
BRANCH   7  11
ATOM     11  C   UNL     1      -3.300  13.606  20.586  0.00  0.00    +0.000 C 
BRANCH  11  16
ATOM     12  C   UNL     1      -6.516  12.656  22.388  0.00  0.00    +0.000 A 
ATOM     13  C   UNL     1      -7.197  11.925  21.421  0.00  0.00    +0.000 A 
ATOM     14  C   UNL     1      -6.643  11.738  20.154  0.00  0.00    +0.000 A 
ATOM     15  C   UNL     1      -5.385  12.268  19.838  0.00  0.00    +0.000 A 
ATOM     16  C   UNL     1      -4.697  13.046  20.790  0.00  0.00    +0.000 A 
ATOM     17  C   UNL     1      -5.278  13.217  22.068  0.00  0.00    +0.000 A 
BRANCH  12  19
ATOM     18  C   UNL     1      -7.916  13.913  23.841  0.00  0.00    +0.000 C 
ATOM     19  O   UNL     1      -7.158  12.738  23.591  0.00  0.00    +0.000 OA
ENDBRANCH  12  19
BRANCH  15  20
ATOM     20  O   UNL     1      -4.791  12.089  18.612  0.00  0.00    +0.000 OA
ATOM     21  C   UNL     1      -5.641  12.271  17.479  0.00  0.00    +0.000 C 
ENDBRANCH  15  20
ENDBRANCH  11  16
ENDBRANCH   7  11
ENDBRANCH   1   8
BRANCH   4  22
ATOM     22  S   UNL     1       0.893   8.592  21.293  0.00  0.00    +0.000 S 
ATOM     23  O   UNL     1       1.968   9.127  22.101  0.00  0.00    +0.000 OA
ATOM     24  O   UNL     1      -0.383   8.227  21.880  0.00  0.00    +0.000 OA
BRANCH  22  25
ATOM     25  C   UNL     1       1.538   7.181  20.424  0.00  0.00    +0.000 A 
ATOM     26  C   UNL     1       2.475   7.315  19.390  0.00  0.00    +0.000 A 
ATOM     27  C   UNL     1       3.114   6.181  18.859  0.00  0.00    +0.000 A 
ATOM     28  C   UNL     1       2.817   4.926  19.434  0.00  0.00    +0.000 A 
ATOM     29  C   UNL     1       1.822   4.793  20.420  0.00  0.00    +0.000 A 
ATOM     30  C   UNL     1       1.758   3.426  20.786  0.00  0.00    +0.000 A 
ATOM     31  C   UNL     1       2.823   2.800  20.193  0.00  0.00    +0.000 A 
ATOM     32  N   UNL     1       3.316   3.656  19.237  0.00  0.00    +0.000 N 
ATOM     33  C   UNL     1       4.174   3.177  18.174  0.00  0.00    +0.000 C 
ATOM     34  C   UNL     1       1.141   5.926  20.878  0.00  0.00    +0.000 A 
ENDBRANCH  22  25
ENDBRANCH   4  22
TORSDOF 7
ENDMDL
MODEL 8
REMARK VINA RESULT:      -7.5      5.327      9.036
REMARK  Name = 
REMARK  10 active torsions:
REMARK  status: ('A' for Active; 'I' for Inactive)
REMARK    1  A    between atoms: C_1  and  O_2
REMARK    2  A    between atoms: O_2  and  C_3
REMARK    3  A    between atoms: C_6  and  O_7
REMARK    4  A    between atoms: O_7  and  C_8
REMARK    5  A    between atoms: C_9  and  C_10
REMARK    6  A    between atoms: C_10  and  N_11
REMARK    7  A    between atoms: C_12  and  C_14
REMARK    8  A    between atoms: N_17  and  S_18
REMARK    9  A    between atoms: S_18  and  C_21
REMARK   10  A    between atoms: N_28  and  C_29
REMARK                            x       y       z     vdW  Elec       q    Type
REMARK                         _______ _______ _______ _____ _____    ______ ____
ROOT
ATOM      1  C   UNL     1       0.749  10.015  18.228  0.00  0.00    +0.000 C 
ATOM      2  C   UNL     1       1.190  11.461  18.461  0.00  0.00    +0.000 C 
ATOM      3  C   UNL     1       1.123  11.827  19.943  0.00  0.00    +0.000 C 
ATOM      4  N   UNL     1      -0.275  11.675  20.442  0.00  0.00    +0.000 NA
ATOM      5  C   UNL     1      -0.783  10.282  20.255  0.00  0.00    +0.000 C 
ATOM      6  C   UNL     1      -0.679   9.859  18.784  0.00  0.00    +0.000 C 
ENDROOT
BRANCH   1   8
ATOM      7  N   UNL     1       2.406   8.221  17.915  0.00  0.00    +0.000 N 
ATOM      8  C   UNL     1       1.702   8.980  18.814  0.00  0.00    +0.000 C 
ATOM      9  O   UNL     1       1.814   8.796  20.028  0.00  0.00    +0.000 OA
ATOM     10  H   UNL     1       2.375   8.433  16.922  0.00  0.00    +0.000 HD
BRANCH   7  11
ATOM     11  C   UNL     1       3.466   7.333  18.334  0.00  0.00    +0.000 C 
BRANCH  11  16
ATOM     12  C   UNL     1       1.990   4.281  20.064  0.00  0.00    +0.000 A 
ATOM     13  C   UNL     1       2.356   3.246  19.211  0.00  0.00    +0.000 A 
ATOM     14  C   UNL     1       3.072   3.510  18.044  0.00  0.00    +0.000 A 
ATOM     15  C   UNL     1       3.450   4.819  17.717  0.00  0.00    +0.000 A 
ATOM     16  C   UNL     1       3.054   5.887  18.546  0.00  0.00    +0.000 A 
ATOM     17  C   UNL     1       2.332   5.591  19.726  0.00  0.00    +0.000 A 
BRANCH  12  19
ATOM     18  C   UNL     1       1.488   2.529  21.591  0.00  0.00    +0.000 C 
ATOM     19  O   UNL     1       1.318   3.879  21.185  0.00  0.00    +0.000 OA
ENDBRANCH  12  19
BRANCH  15  20
ATOM     20  O   UNL     1       4.175   5.123  16.590  0.00  0.00    +0.000 OA
ATOM     21  C   UNL     1       5.493   4.578  16.535  0.00  0.00    +0.000 C 
ENDBRANCH  15  20
ENDBRANCH  11  16
ENDBRANCH   7  11
ENDBRANCH   1   8
BRANCH   4  22
ATOM     22  S   UNL     1      -0.504  12.279  22.050  0.00  0.00    +0.000 S 
ATOM     23  O   UNL     1      -0.375  11.177  22.978  0.00  0.00    +0.000 OA
ATOM     24  O   UNL     1       0.301  13.478  22.184  0.00  0.00    +0.000 OA
BRANCH  22  25
ATOM     25  C   UNL     1      -2.219  12.751  22.026  0.00  0.00    +0.000 A 
ATOM     26  C   UNL     1      -2.896  13.015  20.827  0.00  0.00    +0.000 A 
ATOM     27  C   UNL     1      -4.291  13.189  20.823  0.00  0.00    +0.000 A 
ATOM     28  C   UNL     1      -4.979  13.039  22.047  0.00  0.00    +0.000 A 
ATOM     29  C   UNL     1      -4.284  12.848  23.255  0.00  0.00    +0.000 A 
ATOM     30  C   UNL     1      -5.243  12.741  24.291  0.00  0.00    +0.000 A 
ATOM     31  C   UNL     1      -6.474  12.658  23.695  0.00  0.00    +0.000 A 
ATOM     32  N   UNL     1      -6.315  13.043  22.384  0.00  0.00    +0.000 N 
ATOM     33  C   UNL     1      -7.450  13.444  21.579  0.00  0.00    +0.000 C 
ATOM     34  C   UNL     1      -2.887  12.757  23.247  0.00  0.00    +0.000 A 
ENDBRANCH  22  25
ENDBRANCH   4  22
TORSDOF 7
ENDMDL
MODEL 9
REMARK VINA RESULT:      -7.4      4.806      8.869
REMARK  Name = 
REMARK  10 active torsions:
REMARK  status: ('A' for Active; 'I' for Inactive)
REMARK    1  A    between atoms: C_1  and  O_2
REMARK    2  A    between atoms: O_2  and  C_3
REMARK    3  A    between atoms: C_6  and  O_7
REMARK    4  A    between atoms: O_7  and  C_8
REMARK    5  A    between atoms: C_9  and  C_10
REMARK    6  A    between atoms: C_10  and  N_11
REMARK    7  A    between atoms: C_12  and  C_14
REMARK    8  A    between atoms: N_17  and  S_18
REMARK    9  A    between atoms: S_18  and  C_21
REMARK   10  A    between atoms: N_28  and  C_29
REMARK                            x       y       z     vdW  Elec       q    Type
REMARK                         _______ _______ _______ _____ _____    ______ ____
ROOT
ATOM      1  C   UNL     1       0.161   9.487  18.853  0.00  0.00    +0.000 C 
ATOM      2  C   UNL     1      -0.655  10.665  18.320  0.00  0.00    +0.000 C 
ATOM      3  C   UNL     1      -0.033  11.999  18.730  0.00  0.00    +0.000 C 
ATOM      4  N   UNL     1       0.021  12.099  20.218  0.00  0.00    +0.000 NA
ATOM      5  C   UNL     1       0.809  10.982  20.822  0.00  0.00    +0.000 C 
ATOM      6  C   UNL     1       0.245   9.622  20.386  0.00  0.00    +0.000 C 
ENDROOT
BRANCH   1   8
ATOM      7  N   UNL     1       2.200   8.174  18.429  0.00  0.00    +0.000 N 
ATOM      8  C   UNL     1       1.540   9.357  18.219  0.00  0.00    +0.000 C 
ATOM      9  O   UNL     1       2.064  10.274  17.582  0.00  0.00    +0.000 OA
ATOM     10  H   UNL     1       1.731   7.393  18.880  0.00  0.00    +0.000 HD
BRANCH   7  11
ATOM     11  C   UNL     1       3.430   7.855  17.741  0.00  0.00    +0.000 C 
BRANCH  11  16
ATOM     12  C   UNL     1       2.766   4.107  17.719  0.00  0.00    +0.000 A 
ATOM     13  C   UNL     1       3.942   3.597  17.183  0.00  0.00    +0.000 A 
ATOM     14  C   UNL     1       4.974   4.452  16.796  0.00  0.00    +0.000 A 
ATOM     15  C   UNL     1       4.850   5.839  16.954  0.00  0.00    +0.000 A 
ATOM     16  C   UNL     1       3.650   6.379  17.457  0.00  0.00    +0.000 A 
ATOM     17  C   UNL     1       2.622   5.490  17.847  0.00  0.00    +0.000 A 
BRANCH  12  19
ATOM     18  C   UNL     1       1.248   3.300  19.362  0.00  0.00    +0.000 C 
ATOM     19  O   UNL     1       1.852   3.158  18.084  0.00  0.00    +0.000 OA
ENDBRANCH  12  19
BRANCH  15  20
ATOM     20  O   UNL     1       5.848   6.718  16.607  0.00  0.00    +0.000 OA
ATOM     21  C   UNL     1       7.140   6.431  17.143  0.00  0.00    +0.000 C 
ENDBRANCH  15  20
ENDBRANCH  11  16
ENDBRANCH   7  11
ENDBRANCH   1   8
BRANCH   4  22
ATOM     22  S   UNL     1       0.502  13.663  20.788  0.00  0.00    +0.000 S 
ATOM     23  O   UNL     1       1.615  13.500  21.697  0.00  0.00    +0.000 OA
ATOM     24  O   UNL     1       0.589  14.539  19.635  0.00  0.00    +0.000 OA
BRANCH  22  25
ATOM     25  C   UNL     1      -0.906  14.150  21.761  0.00  0.00    +0.000 A 
ATOM     26  C   UNL     1      -1.494  15.415  21.627  0.00  0.00    +0.000 A 
ATOM     27  C   UNL     1      -2.718  15.700  22.257  0.00  0.00    +0.000 A 
ATOM     28  C   UNL     1      -3.347  14.661  22.978  0.00  0.00    +0.000 A 
ATOM     29  C   UNL     1      -2.714  13.418  23.168  0.00  0.00    +0.000 A 
ATOM     30  C   UNL     1      -3.588  12.602  23.927  0.00  0.00    +0.000 A 
ATOM     31  C   UNL     1      -4.788  13.259  24.006  0.00  0.00    +0.000 A 
ATOM     32  N   UNL     1      -4.563  14.559  23.617  0.00  0.00    +0.000 N 
ATOM     33  C   UNL     1      -5.502  15.611  23.947  0.00  0.00    +0.000 C 
ATOM     34  C   UNL     1      -1.458  13.184  22.597  0.00  0.00    +0.000 A 
ENDBRANCH  22  25
ENDBRANCH   4  22
TORSDOF 7
ENDMDL
