MODEL 1
REMARK VINA RESULT:      -7.7      0.000      0.000
REMARK  Name = 
REMARK  11 active torsions:
REMARK  status: ('A' for Active; 'I' for Inactive)
REMARK    1  A    between atoms: C_1  and  C_2
REMARK    2  A    between atoms: C_2  and  C_3
REMARK    3  A    between atoms: C_2  and  N_4
REMARK    4  A    between atoms: C_6  and  C_7
REMARK    5  A    between atoms: C_7  and  N_8
REMARK    6  A    between atoms: N_8  and  C_9
REMARK    7  A    between atoms: C_9  and  C_10
REMARK    8  A    between atoms: C_12  and  C_13
REMARK    9  A    between atoms: C_13  and  O_14
REMARK   10  A    between atoms: N_15  and  C_16
REMARK   11  A    between atoms: C_17  and  C_18
REMARK                            x       y       z     vdW  Elec       q    Type
REMARK                         _______ _______ _______ _____ _____    ______ ____
ROOT
ATOM      1  C   UNL     1       3.491   7.329  17.902  0.00  0.00    +0.000 C 
ATOM      2  C   UNL     1       4.273   6.868  16.654  0.00  0.00    +0.000 C 
ATOM      3  C   UNL     1       5.158   5.694  17.110  0.00  0.00    +0.000 C 
ATOM      4  N   UNL     1       5.020   5.766  18.562  0.00  0.00    +0.000 NA
ATOM      5  C   UNL     1       5.691   4.765  19.359  0.00  0.00    +0.000 C 
ATOM      6  C   UNL     1       3.653   6.176  18.934  0.00  0.00    +0.000 C 
ENDROOT
BRANCH   6   7
ATOM      7  C   UNL     1       2.613   5.060  18.956  0.00  0.00    +0.000 A 
ATOM      8  C   UNL     1       2.315   4.258  17.849  0.00  0.00    +0.000 A 
ATOM      9  C   UNL     1       1.420   3.184  17.923  0.00  0.00    +0.000 A 
ATOM     10  C   UNL     1       0.798   2.879  19.118  0.00  0.00    +0.000 A 
ATOM     11  C   UNL     1       1.039   3.681  20.238  0.00  0.00    +0.000 A 
ATOM     12  C   UNL     1       1.924   4.766  20.146  0.00  0.00    +0.000 A 
ATOM     13  F   UNL     1       2.104   5.522  21.238  0.00  0.00    +0.000 F 
ENDBRANCH   6   7
BRANCH   1  14
ATOM     14  C   UNL     1       2.067   7.835  17.632  0.00  0.00    +0.000 C 
BRANCH  14  15
ATOM     15  N   UNL     1       1.981   9.298  17.675  0.00  0.00    +0.000 NA
ATOM     16  H   UNL     1       2.916   9.704  17.688  0.00  0.00    +0.000 HD
BRANCH  15  17
ATOM     17  C   UNL     1       1.256   9.724  18.876  0.00  0.00    +0.000 C 
BRANCH  17  20
ATOM     18  N   UNL     1      -1.871  10.995  17.486  0.00  0.00    +0.000 N 
ATOM     19  C   UNL     1      -0.927  10.013  17.534  0.00  0.00    +0.000 A 
ATOM     20  C   UNL     1       0.014  10.417  18.460  0.00  0.00    +0.000 A 
ATOM     21  C   UNL     1      -0.498  11.641  18.948  0.00  0.00    +0.000 A 
ATOM     22  N   UNL     1      -1.643  11.994  18.361  0.00  0.00    +0.000 NA
BRANCH  18  24
ATOM     23  C   UNL     1      -2.938   9.956  15.515  0.00  0.00    +0.000 C 
ATOM     24  C   UNL     1      -3.011  11.051  16.578  0.00  0.00    +0.000 C 
ATOM     25  C   UNL     1      -4.329  11.005  17.349  0.00  0.00    +0.000 C 
ENDBRANCH  18  24
ENDBRANCH  17  20
ENDBRANCH  15  17
ENDBRANCH  14  15
ENDBRANCH   1  14
BRANCH   3  26
ATOM     26  C   UNL     1       4.800   4.371  16.383  0.00  0.00    +0.000 C 
BRANCH  26  27
ATOM     27  O   UNL     1       5.911   3.508  16.176  0.00  0.00    +0.000 OA
ATOM     28  H   UNL     1       6.345   3.378  17.034  0.00  0.00    +0.000 HD
ENDBRANCH  26  27
ENDBRANCH   3  26
TORSDOF 8
ENDMDL
MODEL 2
REMARK VINA RESULT:      -7.7      2.677      4.505
REMARK  Name = 
REMARK  11 active torsions:
REMARK  status: ('A' for Active; 'I' for Inactive)
REMARK    1  A    between atoms: C_1  and  C_2
REMARK    2  A    between atoms: C_2  and  C_3
REMARK    3  A    between atoms: C_2  and  N_4
REMARK    4  A    between atoms: C_6  and  C_7
REMARK    5  A    between atoms: C_7  and  N_8
REMARK    6  A    between atoms: N_8  and  C_9
REMARK    7  A    between atoms: C_9  and  C_10
REMARK    8  A    between atoms: C_12  and  C_13
REMARK    9  A    between atoms: C_13  and  O_14
REMARK   10  A    between atoms: N_15  and  C_16
REMARK   11  A    between atoms: C_17  and  C_18
REMARK                            x       y       z     vdW  Elec       q    Type
REMARK                         _______ _______ _______ _____ _____    ______ ____
ROOT
ATOM      1  C   UNL     1       2.156   5.682  18.415  0.00  0.00    +0.000 C 
ATOM      2  C   UNL     1       1.847   4.980  19.754  0.00  0.00    +0.000 C 
ATOM      3  C   UNL     1       2.272   3.511  19.579  0.00  0.00    +0.000 C 
ATOM      4  N   UNL     1       2.513   3.442  18.140  0.00  0.00    +0.000 NA
ATOM      5  C   UNL     1       2.987   2.193  17.590  0.00  0.00    +0.000 C 
ATOM      6  C   UNL     1       3.096   4.705  17.649  0.00  0.00    +0.000 C 
ENDROOT
BRANCH   6   7
ATOM      7  C   UNL     1       4.604   4.848  17.829  0.00  0.00    +0.000 A 
ATOM      8  C   UNL     1       5.205   5.280  19.017  0.00  0.00    +0.000 A 
ATOM      9  C   UNL     1       6.595   5.318  19.181  0.00  0.00    +0.000 A 
ATOM     10  C   UNL     1       7.427   4.915  18.154  0.00  0.00    +0.000 A 
ATOM     11  C   UNL     1       6.866   4.514  16.938  0.00  0.00    +0.000 A 
ATOM     12  C   UNL     1       5.472   4.500  16.780  0.00  0.00    +0.000 A 
ATOM     13  F   UNL     1       4.981   4.133  15.587  0.00  0.00    +0.000 F 
ENDBRANCH   6   7
BRANCH   1  14
ATOM     14  C   UNL     1       2.606   7.144  18.530  0.00  0.00    +0.000 C 
BRANCH  14  15
ATOM     15  N   UNL     1       1.778   8.045  17.724  0.00  0.00    +0.000 NA
ATOM     16  H   UNL     1       1.986   7.921  16.734  0.00  0.00    +0.000 HD
BRANCH  15  17
ATOM     17  C   UNL     1       2.041   9.439  18.097  0.00  0.00    +0.000 C 
BRANCH  17  20
ATOM     18  N   UNL     1      -0.263  10.355  20.777  0.00  0.00    +0.000 N 
ATOM     19  C   UNL     1       0.937   9.834  20.394  0.00  0.00    +0.000 A 
ATOM     20  C   UNL     1       0.970   9.894  19.015  0.00  0.00    +0.000 A 
ATOM     21  C   UNL     1      -0.249  10.524  18.676  0.00  0.00    +0.000 A 
ATOM     22  N   UNL     1      -0.999  10.807  19.743  0.00  0.00    +0.000 NA
BRANCH  18  24
ATOM     23  C   UNL     1       0.032   9.536  23.088  0.00  0.00    +0.000 C 
ATOM     24  C   UNL     1      -0.784  10.411  22.138  0.00  0.00    +0.000 C 
ATOM     25  C   UNL     1      -0.874  11.854  22.632  0.00  0.00    +0.000 C 
ENDBRANCH  18  24
ENDBRANCH  17  20
ENDBRANCH  15  17
ENDBRANCH  14  15
ENDBRANCH   1  14
BRANCH   3  26
ATOM     26  C   UNL     1       3.410   3.109  20.554  0.00  0.00    +0.000 C 
BRANCH  26  27
ATOM     27  O   UNL     1       2.949   2.599  21.800  0.00  0.00    +0.000 OA
ATOM     28  H   UNL     1       3.450   3.043  22.501  0.00  0.00    +0.000 HD
ENDBRANCH  26  27
ENDBRANCH   3  26
TORSDOF 8
ENDMDL
MODEL 3
REMARK VINA RESULT:      -7.6      3.295      4.755
REMARK  Name = 
REMARK  11 active torsions:
REMARK  status: ('A' for Active; 'I' for Inactive)
REMARK    1  A    between atoms: C_1  and  C_2
REMARK    2  A    between atoms: C_2  and  C_3
REMARK    3  A    between atoms: C_2  and  N_4
REMARK    4  A    between atoms: C_6  and  C_7
REMARK    5  A    between atoms: C_7  and  N_8
REMARK    6  A    between atoms: N_8  and  C_9
REMARK    7  A    between atoms: C_9  and  C_10
REMARK    8  A    between atoms: C_12  and  C_13
REMARK    9  A    between atoms: C_13  and  O_14
REMARK   10  A    between atoms: N_15  and  C_16
REMARK   11  A    between atoms: C_17  and  C_18
REMARK                            x       y       z     vdW  Elec       q    Type
REMARK                         _______ _______ _______ _____ _____    ______ ____
ROOT
ATOM      1  C   UNL     1       2.089   5.792  18.693  0.00  0.00    +0.000 C 
ATOM      2  C   UNL     1       1.825   5.034  20.012  0.00  0.00    +0.000 C 
ATOM      3  C   UNL     1       2.194   3.564  19.745  0.00  0.00    +0.000 C 
ATOM      4  N   UNL     1       2.362   3.558  18.294  0.00  0.00    +0.000 NA
ATOM      5  C   UNL     1       2.768   2.325  17.661  0.00  0.00    +0.000 C 
ATOM      6  C   UNL     1       2.959   4.827  17.835  0.00  0.00    +0.000 C 
ENDROOT
BRANCH   6   7
ATOM      7  C   UNL     1       4.478   4.917  17.945  0.00  0.00    +0.000 A 
ATOM      8  C   UNL     1       5.148   5.320  19.105  0.00  0.00    +0.000 A 
ATOM      9  C   UNL     1       6.545   5.309  19.204  0.00  0.00    +0.000 A 
ATOM     10  C   UNL     1       7.313   4.886  18.137  0.00  0.00    +0.000 A 
ATOM     11  C   UNL     1       6.683   4.513  16.946  0.00  0.00    +0.000 A 
ATOM     12  C   UNL     1       5.283   4.547  16.853  0.00  0.00    +0.000 A 
ATOM     13  F   UNL     1       4.724   4.207  15.684  0.00  0.00    +0.000 F 
ENDBRANCH   6   7
BRANCH   1  14
ATOM     14  C   UNL     1       2.590   7.233  18.856  0.00  0.00    +0.000 C 
BRANCH  14  15
ATOM     15  N   UNL     1       2.023   7.888  20.037  0.00  0.00    +0.000 NA
ATOM     16  H   UNL     1       1.430   7.235  20.549  0.00  0.00    +0.000 HD
BRANCH  15  17
ATOM     17  C   UNL     1       1.220   9.047  19.633  0.00  0.00    +0.000 C 
BRANCH  17  20
ATOM     18  N   UNL     1      -0.319  11.041  22.277  0.00  0.00    +0.000 N 
ATOM     19  C   UNL     1      -0.055  10.861  20.951  0.00  0.00    +0.000 A 
ATOM     20  C   UNL     1       0.667   9.688  20.850  0.00  0.00    +0.000 A 
ATOM     21  C   UNL     1       0.731   9.216  22.181  0.00  0.00    +0.000 A 
ATOM     22  N   UNL     1       0.133  10.034  23.050  0.00  0.00    +0.000 NA
BRANCH  18  24
ATOM     23  C   UNL     1      -0.854  13.435  21.988  0.00  0.00    +0.000 C 
ATOM     24  C   UNL     1      -0.976  12.197  22.875  0.00  0.00    +0.000 C 
ATOM     25  C   UNL     1      -2.432  11.885  23.217  0.00  0.00    +0.000 C 
ENDBRANCH  18  24
ENDBRANCH  17  20
ENDBRANCH  15  17
ENDBRANCH  14  15
ENDBRANCH   1  14
BRANCH   3  26
ATOM     26  C   UNL     1       3.366   3.081  20.641  0.00  0.00    +0.000 C 
BRANCH  26  27
ATOM     27  O   UNL     1       2.949   2.490  21.866  0.00  0.00    +0.000 OA
ATOM     28  H   UNL     1       2.860   3.202  22.519  0.00  0.00    +0.000 HD
ENDBRANCH  26  27
ENDBRANCH   3  26
TORSDOF 8
ENDMDL
MODEL 4
REMARK VINA RESULT:      -7.6      1.978      2.714
REMARK  Name = 
REMARK  11 active torsions:
REMARK  status: ('A' for Active; 'I' for Inactive)
REMARK    1  A    between atoms: C_1  and  C_2
REMARK    2  A    between atoms: C_2  and  C_3
REMARK    3  A    between atoms: C_2  and  N_4
REMARK    4  A    between atoms: C_6  and  C_7
REMARK    5  A    between atoms: C_7  and  N_8
REMARK    6  A    between atoms: N_8  and  C_9
REMARK    7  A    between atoms: C_9  and  C_10
REMARK    8  A    between atoms: C_12  and  C_13
REMARK    9  A    between atoms: C_13  and  O_14
REMARK   10  A    between atoms: N_15  and  C_16
REMARK   11  A    between atoms: C_17  and  C_18
REMARK                            x       y       z     vdW  Elec       q    Type
REMARK                         _______ _______ _______ _____ _____    ______ ____
ROOT
ATOM      1  C   UNL     1       3.529   7.294  18.025  0.00  0.00    +0.000 C 
ATOM      2  C   UNL     1       4.307   6.827  16.776  0.00  0.00    +0.000 C 
ATOM      3  C   UNL     1       5.177   5.641  17.228  0.00  0.00    +0.000 C 
ATOM      4  N   UNL     1       5.039   5.709  18.681  0.00  0.00    +0.000 NA
ATOM      5  C   UNL     1       5.698   4.698  19.474  0.00  0.00    +0.000 C 
ATOM      6  C   UNL     1       3.677   6.136  19.054  0.00  0.00    +0.000 C 
ENDROOT
BRANCH   6   7
ATOM      7  C   UNL     1       2.624   5.032  19.072  0.00  0.00    +0.000 A 
ATOM      8  C   UNL     1       2.207   4.341  17.928  0.00  0.00    +0.000 A 
ATOM      9  C   UNL     1       1.303   3.274  17.988  0.00  0.00    +0.000 A 
ATOM     10  C   UNL     1       0.793   2.863  19.204  0.00  0.00    +0.000 A 
ATOM     11  C   UNL     1       1.154   3.552  20.366  0.00  0.00    +0.000 A 
ATOM     12  C   UNL     1       2.046   4.633  20.290  0.00  0.00    +0.000 A 
ATOM     13  F   UNL     1       2.343   5.281  21.425  0.00  0.00    +0.000 F 
ENDBRANCH   6   7
BRANCH   1  14
ATOM     14  C   UNL     1       2.112   7.818  17.757  0.00  0.00    +0.000 C 
BRANCH  14  15
ATOM     15  N   UNL     1       2.067   9.281  17.678  0.00  0.00    +0.000 NA
ATOM     16  H   UNL     1       2.686   9.688  18.379  0.00  0.00    +0.000 HD
BRANCH  15  17
ATOM     17  C   UNL     1       0.700   9.756  17.913  0.00  0.00    +0.000 C 
BRANCH  17  20
ATOM     18  N   UNL     1       0.127  11.056  21.277  0.00  0.00    +0.000 N 
ATOM     19  C   UNL     1      -0.204  10.172  20.293  0.00  0.00    +0.000 A 
ATOM     20  C   UNL     1       0.650  10.422  19.236  0.00  0.00    +0.000 A 
ATOM     21  C   UNL     1       1.494  11.447  19.720  0.00  0.00    +0.000 A 
ATOM     22  N   UNL     1       1.181  11.833  20.959  0.00  0.00    +0.000 NA
BRANCH  18  24
ATOM     23  C   UNL     1      -1.913  11.928  22.362  0.00  0.00    +0.000 C 
ATOM     24  C   UNL     1      -0.566  11.230  22.547  0.00  0.00    +0.000 C 
ATOM     25  C   UNL     1      -0.714   9.898  23.280  0.00  0.00    +0.000 C 
ENDBRANCH  18  24
ENDBRANCH  17  20
ENDBRANCH  15  17
ENDBRANCH  14  15
ENDBRANCH   1  14
BRANCH   3  26
ATOM     26  C   UNL     1       4.803   4.325  16.497  0.00  0.00    +0.000 C 
BRANCH  26  27
ATOM     27  O   UNL     1       5.917   3.491  16.204  0.00  0.00    +0.000 OA
ATOM     28  H   UNL     1       6.296   3.792  15.364  0.00  0.00    +0.000 HD
ENDBRANCH  26  27
ENDBRANCH   3  26
TORSDOF 8
ENDMDL
MODEL 5
REMARK VINA RESULT:      -7.5      2.218      3.756
REMARK  Name = 
REMARK  11 active torsions:
REMARK  status: ('A' for Active; 'I' for Inactive)
REMARK    1  A    between atoms: C_1  and  C_2
REMARK    2  A    between atoms: C_2  and  C_3
REMARK    3  A    between atoms: C_2  and  N_4
REMARK    4  A    between atoms: C_6  and  C_7
REMARK    5  A    between atoms: C_7  and  N_8
REMARK    6  A    between atoms: N_8  and  C_9
REMARK    7  A    between atoms: C_9  and  C_10
REMARK    8  A    between atoms: C_12  and  C_13
REMARK    9  A    between atoms: C_13  and  O_14
REMARK   10  A    between atoms: N_15  and  C_16
REMARK   11  A    between atoms: C_17  and  C_18
REMARK                            x       y       z     vdW  Elec       q    Type
REMARK                         _______ _______ _______ _____ _____    ______ ____
ROOT
ATOM      1  C   UNL     1       2.014   5.712  18.713  0.00  0.00    +0.000 C 
ATOM      2  C   UNL     1       1.755   4.913  20.008  0.00  0.00    +0.000 C 
ATOM      3  C   UNL     1       2.144   3.456  19.700  0.00  0.00    +0.000 C 
ATOM      4  N   UNL     1       2.315   3.495  18.250  0.00  0.00    +0.000 NA
ATOM      5  C   UNL     1       2.739   2.286  17.582  0.00  0.00    +0.000 C 
ATOM      6  C   UNL     1       2.898   4.784  17.830  0.00  0.00    +0.000 C 
ENDROOT
BRANCH   6   7
ATOM      7  C   UNL     1       4.416   4.890  17.947  0.00  0.00    +0.000 A 
ATOM      8  C   UNL     1       5.076   5.289  19.114  0.00  0.00    +0.000 A 
ATOM      9  C   UNL     1       6.472   5.292  19.218  0.00  0.00    +0.000 A 
ATOM     10  C   UNL     1       7.250   4.887  18.151  0.00  0.00    +0.000 A 
ATOM     11  C   UNL     1       6.629   4.518  16.954  0.00  0.00    +0.000 A 
ATOM     12  C   UNL     1       5.229   4.538  16.856  0.00  0.00    +0.000 A 
ATOM     13  F   UNL     1       4.679   4.202  15.680  0.00  0.00    +0.000 F 
ENDBRANCH   6   7
BRANCH   1  14
ATOM     14  C   UNL     1       2.497   7.154  18.919  0.00  0.00    +0.000 C 
BRANCH  14  15
ATOM     15  N   UNL     1       2.086   8.039  17.825  0.00  0.00    +0.000 NA
ATOM     16  H   UNL     1       2.709   7.921  17.026  0.00  0.00    +0.000 HD
BRANCH  15  17
ATOM     17  C   UNL     1       2.130   9.437  18.265  0.00  0.00    +0.000 C 
BRANCH  17  20
ATOM     18  N   UNL     1      -1.382  10.343  17.848  0.00  0.00    +0.000 N 
ATOM     19  C   UNL     1      -0.369   9.458  17.626  0.00  0.00    +0.000 A 
ATOM     20  C   UNL     1       0.755   9.990  18.227  0.00  0.00    +0.000 A 
ATOM     21  C   UNL     1       0.284  11.177  18.831  0.00  0.00    +0.000 A 
ATOM     22  N   UNL     1      -1.013  11.394  18.605  0.00  0.00    +0.000 NA
BRANCH  18  24
ATOM     23  C   UNL     1      -3.660  11.292  17.949  0.00  0.00    +0.000 C 
ATOM     24  C   UNL     1      -2.738  10.250  17.319  0.00  0.00    +0.000 C 
ATOM     25  C   UNL     1      -2.739  10.340  15.794  0.00  0.00    +0.000 C 
ENDBRANCH  18  24
ENDBRANCH  17  20
ENDBRANCH  15  17
ENDBRANCH  14  15
ENDBRANCH   1  14
BRANCH   3  26
ATOM     26  C   UNL     1       3.318   2.962  20.585  0.00  0.00    +0.000 C 
BRANCH  26  27
ATOM     27  O   UNL     1       2.918   2.499  21.869  0.00  0.00    +0.000 OA
ATOM     28  H   UNL     1       2.691   1.560  21.785  0.00  0.00    +0.000 HD
ENDBRANCH  26  27
ENDBRANCH   3  26
TORSDOF 8
ENDMDL
MODEL 6
REMARK VINA RESULT:      -7.5      3.904      7.222
REMARK  Name = 
REMARK  11 active torsions:
REMARK  status: ('A' for Active; 'I' for Inactive)
REMARK    1  A    between atoms: C_1  and  C_2
REMARK    2  A    between atoms: C_2  and  C_3
REMARK    3  A    between atoms: C_2  and  N_4
REMARK    4  A    between atoms: C_6  and  C_7
REMARK    5  A    between atoms: C_7  and  N_8
REMARK    6  A    between atoms: N_8  and  C_9
REMARK    7  A    between atoms: C_9  and  C_10
REMARK    8  A    between atoms: C_12  and  C_13
REMARK    9  A    between atoms: C_13  and  O_14
REMARK   10  A    between atoms: N_15  and  C_16
REMARK   11  A    between atoms: C_17  and  C_18
REMARK                            x       y       z     vdW  Elec       q    Type
REMARK                         _______ _______ _______ _____ _____    ______ ____
ROOT
ATOM      1  C   UNL     1       4.815   4.439  19.739  0.00  0.00    +0.000 C 
ATOM      2  C   UNL     1       4.322   3.346  18.767  0.00  0.00    +0.000 C 
ATOM      3  C   UNL     1       2.798   3.255  18.958  0.00  0.00    +0.000 C 
ATOM      4  N   UNL     1       2.601   4.063  20.159  0.00  0.00    +0.000 NA
ATOM      5  C   UNL     1       1.251   4.255  20.636  0.00  0.00    +0.000 C 
ATOM      6  C   UNL     1       3.533   5.206  20.175  0.00  0.00    +0.000 C 
ENDROOT
BRANCH   6   7
ATOM      7  C   UNL     1       3.097   6.423  19.364  0.00  0.00    +0.000 A 
ATOM      8  C   UNL     1       3.558   6.698  18.072  0.00  0.00    +0.000 A 
ATOM      9  C   UNL     1       3.073   7.775  17.319  0.00  0.00    +0.000 A 
ATOM     10  C   UNL     1       2.102   8.606  17.841  0.00  0.00    +0.000 A 
ATOM     11  C   UNL     1       1.644   8.388  19.144  0.00  0.00    +0.000 A 
ATOM     12  C   UNL     1       2.152   7.318  19.896  0.00  0.00    +0.000 A 
ATOM     13  F   UNL     1       1.703   7.164  21.149  0.00  0.00    +0.000 F 
ENDBRANCH   6   7
BRANCH   1  14
ATOM     14  C   UNL     1       5.999   5.276  19.238  0.00  0.00    +0.000 C 
BRANCH  14  15
ATOM     15  N   UNL     1       6.828   4.545  18.275  0.00  0.00    +0.000 NA
ATOM     16  H   UNL     1       7.675   4.205  18.729  0.00  0.00    +0.000 HD
BRANCH  15  17
ATOM     17  C   UNL     1       7.201   5.424  17.162  0.00  0.00    +0.000 C 
BRANCH  17  20
ATOM     18  N   UNL     1       6.155   4.053  13.944  0.00  0.00    +0.000 N 
ATOM     19  C   UNL     1       7.154   4.314  14.834  0.00  0.00    +0.000 A 
ATOM     20  C   UNL     1       6.560   4.921  15.924  0.00  0.00    +0.000 A 
ATOM     21  C   UNL     1       5.185   4.923  15.600  0.00  0.00    +0.000 A 
ATOM     22  N   UNL     1       4.935   4.395  14.400  0.00  0.00    +0.000 NA
BRANCH  18  24
ATOM     23  C   UNL     1       4.973   3.319  11.903  0.00  0.00    +0.000 C 
ATOM     24  C   UNL     1       6.319   3.503  12.603  0.00  0.00    +0.000 C 
ATOM     25  C   UNL     1       7.278   4.355  11.774  0.00  0.00    +0.000 C 
ENDBRANCH  18  24
ENDBRANCH  17  20
ENDBRANCH  15  17
ENDBRANCH  14  15
ENDBRANCH   1  14
BRANCH   3  26
ATOM     26  C   UNL     1       2.021   3.623  17.667  0.00  0.00    +0.000 C 
BRANCH  26  27
ATOM     27  O   UNL     1       0.665   3.192  17.667  0.00  0.00    +0.000 OA
ATOM     28  H   UNL     1       0.290   3.405  18.536  0.00  0.00    +0.000 HD
ENDBRANCH  26  27
ENDBRANCH   3  26
TORSDOF 8
ENDMDL
MODEL 7
REMARK VINA RESULT:      -7.4      1.488      2.525
REMARK  Name = 
REMARK  11 active torsions:
REMARK  status: ('A' for Active; 'I' for Inactive)
REMARK    1  A    between atoms: C_1  and  C_2
REMARK    2  A    between atoms: C_2  and  C_3
REMARK    3  A    between atoms: C_2  and  N_4
REMARK    4  A    between atoms: C_6  and  C_7
REMARK    5  A    between atoms: C_7  and  N_8
REMARK    6  A    between atoms: N_8  and  C_9
REMARK    7  A    between atoms: C_9  and  C_10
REMARK    8  A    between atoms: C_12  and  C_13
REMARK    9  A    between atoms: C_13  and  O_14
REMARK   10  A    between atoms: N_15  and  C_16
REMARK   11  A    between atoms: C_17  and  C_18
REMARK                            x       y       z     vdW  Elec       q    Type
REMARK                         _______ _______ _______ _____ _____    ______ ____
ROOT
ATOM      1  C   UNL     1       3.431   7.228  18.163  0.00  0.00    +0.000 C 
ATOM      2  C   UNL     1       4.144   6.864  16.842  0.00  0.00    +0.000 C 
ATOM      3  C   UNL     1       5.066   5.675  17.164  0.00  0.00    +0.000 C 
ATOM      4  N   UNL     1       5.014   5.645  18.623  0.00  0.00    +0.000 NA
ATOM      5  C   UNL     1       5.741   4.602  19.309  0.00  0.00    +0.000 C 
ATOM      6  C   UNL     1       3.667   6.009  19.102  0.00  0.00    +0.000 C 
ENDROOT
BRANCH   6   7
ATOM      7  C   UNL     1       2.642   4.879  19.107  0.00  0.00    +0.000 A 
ATOM      8  C   UNL     1       2.410   4.040  18.012  0.00  0.00    +0.000 A 
ATOM      9  C   UNL     1       1.526   2.955  18.076  0.00  0.00    +0.000 A 
ATOM     10  C   UNL     1       0.850   2.678  19.248  0.00  0.00    +0.000 A 
ATOM     11  C   UNL     1       1.024   3.517  20.353  0.00  0.00    +0.000 A 
ATOM     12  C   UNL     1       1.898   4.611  20.270  0.00  0.00    +0.000 A 
ATOM     13  F   UNL     1       2.013   5.403  21.345  0.00  0.00    +0.000 F 
ENDBRANCH   6   7
BRANCH   1  14
ATOM     14  C   UNL     1       1.989   7.730  18.012  0.00  0.00    +0.000 C 
BRANCH  14  15
ATOM     15  N   UNL     1       1.914   8.981  17.252  0.00  0.00    +0.000 NA
ATOM     16  H   UNL     1       2.597   8.972  16.495  0.00  0.00    +0.000 HD
BRANCH  15  17
ATOM     17  C   UNL     1       2.187  10.122  18.131  0.00  0.00    +0.000 C 
BRANCH  17  20
ATOM     18  N   UNL     1      -0.420  10.842  20.583  0.00  0.00    +0.000 N 
ATOM     19  C   UNL     1       0.905  10.714  20.290  0.00  0.00    +0.000 A 
ATOM     20  C   UNL     1       0.980  10.390  18.949  0.00  0.00    +0.000 A 
ATOM     21  C   UNL     1      -0.367  10.405  18.522  0.00  0.00    +0.000 A 
ATOM     22  N   UNL     1      -1.220  10.680  19.511  0.00  0.00    +0.000 NA
BRANCH  18  24
ATOM     23  C   UNL     1      -0.509  10.052  22.922  0.00  0.00    +0.000 C 
ATOM     24  C   UNL     1      -0.990  11.084  21.903  0.00  0.00    +0.000 C 
ATOM     25  C   UNL     1      -0.712  12.513  22.368  0.00  0.00    +0.000 C 
ENDBRANCH  18  24
ENDBRANCH  17  20
ENDBRANCH  15  17
ENDBRANCH  14  15
ENDBRANCH   1  14
BRANCH   3  26
ATOM     26  C   UNL     1       4.680   4.400  16.369  0.00  0.00    +0.000 C 
BRANCH  26  27
ATOM     27  O   UNL     1       5.778   3.541  16.088  0.00  0.00    +0.000 OA
ATOM     28  H   UNL     1       6.524   3.830  16.635  0.00  0.00    +0.000 HD
ENDBRANCH  26  27
ENDBRANCH   3  26
TORSDOF 8
ENDMDL
MODEL 8
REMARK VINA RESULT:      -7.3      2.521      3.080
REMARK  Name = 
REMARK  11 active torsions:
REMARK  status: ('A' for Active; 'I' for Inactive)
REMARK    1  A    between atoms: C_1  and  C_2
REMARK    2  A    between atoms: C_2  and  C_3
REMARK    3  A    between atoms: C_2  and  N_4
REMARK    4  A    between atoms: C_6  and  C_7
REMARK    5  A    between atoms: C_7  and  N_8
REMARK    6  A    between atoms: N_8  and  C_9
REMARK    7  A    between atoms: C_9  and  C_10
REMARK    8  A    between atoms: C_12  and  C_13
REMARK    9  A    between atoms: C_13  and  O_14
REMARK   10  A    between atoms: N_15  and  C_16
REMARK   11  A    between atoms: C_17  and  C_18
REMARK                            x       y       z     vdW  Elec       q    Type
REMARK                         _______ _______ _______ _____ _____    ______ ____
ROOT
ATOM      1  C   UNL     1       3.420   7.261  18.288  0.00  0.00    +0.000 C 
ATOM      2  C   UNL     1       4.141   6.899  16.972  0.00  0.00    +0.000 C 
ATOM      3  C   UNL     1       5.029   5.682  17.289  0.00  0.00    +0.000 C 
ATOM      4  N   UNL     1       4.956   5.633  18.747  0.00  0.00    +0.000 NA
ATOM      5  C   UNL     1       5.648   4.563  19.427  0.00  0.00    +0.000 C 
ATOM      6  C   UNL     1       3.613   6.025  19.213  0.00  0.00    +0.000 C 
ENDROOT
BRANCH   6   7
ATOM      7  C   UNL     1       2.560   4.920  19.189  0.00  0.00    +0.000 A 
ATOM      8  C   UNL     1       2.068   4.346  18.011  0.00  0.00    +0.000 A 
ATOM      9  C   UNL     1       1.167   3.274  18.023  0.00  0.00    +0.000 A 
ATOM     10  C   UNL     1       0.736   2.741  19.222  0.00  0.00    +0.000 A 
ATOM     11  C   UNL     1       1.174   3.313  20.421  0.00  0.00    +0.000 A 
ATOM     12  C   UNL     1       2.061   4.399  20.395  0.00  0.00    +0.000 A 
ATOM     13  F   UNL     1       2.433   4.932  21.568  0.00  0.00    +0.000 F 
ENDBRANCH   6   7
BRANCH   1  14
ATOM     14  C   UNL     1       1.993   7.802  18.126  0.00  0.00    +0.000 C 
BRANCH  14  15
ATOM     15  N   UNL     1       1.679   8.843  19.108  0.00  0.00    +0.000 NA
ATOM     16  H   UNL     1       2.448   9.510  19.170  0.00  0.00    +0.000 HD
BRANCH  15  17
ATOM     17  C   UNL     1       1.461   8.240  20.427  0.00  0.00    +0.000 C 
BRANCH  17  20
ATOM     18  N   UNL     1      -0.530  10.853  22.021  0.00  0.00    +0.000 N 
ATOM     19  C   UNL     1      -0.114  10.232  20.881  0.00  0.00    +0.000 A 
ATOM     20  C   UNL     1       0.725   9.208  21.275  0.00  0.00    +0.000 A 
ATOM     21  C   UNL     1       0.696   9.273  22.687  0.00  0.00    +0.000 A 
ATOM     22  N   UNL     1      -0.066  10.269  23.143  0.00  0.00    +0.000 NA
BRANCH  18  24
ATOM     23  C   UNL     1      -2.403  11.947  23.202  0.00  0.00    +0.000 C 
ATOM     24  C   UNL     1      -1.354  12.054  22.096  0.00  0.00    +0.000 C 
ATOM     25  C   UNL     1      -0.491  13.304  22.251  0.00  0.00    +0.000 C 
ENDBRANCH  18  24
ENDBRANCH  17  20
ENDBRANCH  15  17
ENDBRANCH  14  15
ENDBRANCH   1  14
BRANCH   3  26
ATOM     26  C   UNL     1       4.622   4.428  16.471  0.00  0.00    +0.000 C 
BRANCH  26  27
ATOM     27  O   UNL     1       5.126   4.418  15.141  0.00  0.00    +0.000 OA
ATOM     28  H   UNL     1       4.366   4.454  14.539  0.00  0.00    +0.000 HD
ENDBRANCH  26  27
ENDBRANCH   3  26
TORSDOF 8
ENDMDL
MODEL 9
REMARK VINA RESULT:      -7.3      2.528      4.215
REMARK  Name = 
REMARK  11 active torsions:
REMARK  status: ('A' for Active; 'I' for Inactive)
REMARK    1  A    between atoms: C_1  and  C_2
REMARK    2  A    between atoms: C_2  and  C_3
REMARK    3  A    between atoms: C_2  and  N_4
REMARK    4  A    between atoms: C_6  and  C_7
REMARK    5  A    between atoms: C_7  and  N_8
REMARK    6  A    between atoms: N_8  and  C_9
REMARK    7  A    between atoms: C_9  and  C_10
REMARK    8  A    between atoms: C_12  and  C_13
REMARK    9  A    between atoms: C_13  and  O_14
REMARK   10  A    between atoms: N_15  and  C_16
REMARK   11  A    between atoms: C_17  and  C_18
REMARK                            x       y       z     vdW  Elec       q    Type
REMARK                         _______ _______ _______ _____ _____    ______ ____
ROOT
ATOM      1  C   UNL     1       2.064   5.770  18.588  0.00  0.00    +0.000 C 
ATOM      2  C   UNL     1       1.793   5.056  19.930  0.00  0.00    +0.000 C 
ATOM      3  C   UNL     1       2.179   3.581  19.718  0.00  0.00    +0.000 C 
ATOM      4  N   UNL     1       2.361   3.527  18.270  0.00  0.00    +0.000 NA
ATOM      5  C   UNL     1       2.784   2.276  17.683  0.00  0.00    +0.000 C 
ATOM      6  C   UNL     1       2.950   4.785  17.773  0.00  0.00    +0.000 C 
ENDROOT
BRANCH   6   7
ATOM      7  C   UNL     1       4.468   4.893  17.893  0.00  0.00    +0.000 A 
ATOM      8  C   UNL     1       5.124   5.313  19.055  0.00  0.00    +0.000 A 
ATOM      9  C   UNL     1       6.520   5.319  19.165  0.00  0.00    +0.000 A 
ATOM     10  C   UNL     1       7.301   4.894  18.108  0.00  0.00    +0.000 A 
ATOM     11  C   UNL     1       6.685   4.504  16.916  0.00  0.00    +0.000 A 
ATOM     12  C   UNL     1       5.286   4.522  16.812  0.00  0.00    +0.000 A 
ATOM     13  F   UNL     1       4.740   4.164  15.641  0.00  0.00    +0.000 F 
ENDBRANCH   6   7
BRANCH   1  14
ATOM     14  C   UNL     1       2.550   7.221  18.705  0.00  0.00    +0.000 C 
BRANCH  14  15
ATOM     15  N   UNL     1       1.954   8.090  17.687  0.00  0.00    +0.000 NA
ATOM     16  H   UNL     1       2.378   7.906  16.778  0.00  0.00    +0.000 HD
BRANCH  15  17
ATOM     17  C   UNL     1       2.168   9.497  18.039  0.00  0.00    +0.000 C 
BRANCH  17  20
ATOM     18  N   UNL     1      -0.614  11.024  19.845  0.00  0.00    +0.000 N 
ATOM     19  C   UNL     1       0.722  10.771  19.754  0.00  0.00    +0.000 A 
ATOM     20  C   UNL     1       0.907  10.043  18.595  0.00  0.00    +0.000 A 
ATOM     21  C   UNL     1      -0.390   9.964  18.037  0.00  0.00    +0.000 A 
ATOM     22  N   UNL     1      -1.315  10.560  18.792  0.00  0.00    +0.000 NA
BRANCH  18  24
ATOM     23  C   UNL     1      -0.308  12.430  21.852  0.00  0.00    +0.000 C 
ATOM     24  C   UNL     1      -1.293  11.683  20.954  0.00  0.00    +0.000 C 
ATOM     25  C   UNL     1      -2.408  12.598  20.451  0.00  0.00    +0.000 C 
ENDBRANCH  18  24
ENDBRANCH  17  20
ENDBRANCH  15  17
ENDBRANCH  14  15
ENDBRANCH   1  14
BRANCH   3  26
ATOM     26  C   UNL     1       3.346   3.140  20.641  0.00  0.00    +0.000 C 
BRANCH  26  27
ATOM     27  O   UNL     1       2.923   2.499  21.838  0.00  0.00    +0.000 OA
ATOM     28  H   UNL     1       2.207   1.888  21.606  0.00  0.00    +0.000 HD
ENDBRANCH  26  27
ENDBRANCH   3  26
TORSDOF 8
ENDMDL
