MODEL 1
REMARK VINA RESULT:      -7.2      0.000      0.000
REMARK  Name = 
REMARK  11 active torsions:
REMARK  status: ('A' for Active; 'I' for Inactive)
REMARK    1  A    between atoms: C_1  and  C_2
REMARK    2  A    between atoms: C_2  and  O_3
REMARK    3  A    between atoms: C_2  and  C_4
REMARK    4  A    between atoms: C_2  and  C_6
REMARK    5  A    between atoms: C_4  and  O_5
REMARK    6  A    between atoms: C_6  and  C_7
REMARK    7  A    between atoms: C_7  and  O_8
REMARK    8  A    between atoms: O_8  and  C_9
REMARK    9  A    between atoms: C_14  and  N_15
REMARK   10  A    between atoms: N_15  and  C_16
REMARK   11  A    between atoms: C_24  and  C_25
REMARK                            x       y       z     vdW  Elec       q    Type
REMARK                         _______ _______ _______ _____ _____    ______ ____
ROOT
ATOM      1  C   UNL     1       1.940   7.370  19.986  0.00  0.00    +0.000 A 
ATOM      2  C   UNL     1       2.660   7.127  18.809  0.00  0.00    +0.000 A 
ATOM      3  C   UNL     1       2.702   8.076  17.799  0.00  0.00    +0.000 A 
ATOM      4  F   UNL     1       3.384   7.811  16.678  0.00  0.00    +0.000 F 
ATOM      5  C   UNL     1       2.048   9.284  17.931  0.00  0.00    +0.000 A 
ATOM      6  C   UNL     1       1.343   9.590  19.108  0.00  0.00    +0.000 A 
ATOM      7  C   UNL     1       1.289   8.618  20.155  0.00  0.00    +0.000 A 
ENDROOT
BRANCH   7   8
ATOM      8  C   UNL     1       0.533   8.950  21.409  0.00  0.00    +0.000 C 
ATOM      9  N   UNL     1      -0.589   8.224  21.695  0.00  0.00    +0.000 N 
ATOM     10  O   UNL     1       0.910   9.828  22.179  0.00  0.00    +0.000 OA
ATOM     11  H   UNL     1      -0.975   7.568  21.024  0.00  0.00    +0.000 HD
ATOM     12  H   UNL     1      -1.153   8.493  22.488  0.00  0.00    +0.000 HD
ENDBRANCH   7   8
BRANCH   6  13
ATOM     13  N   UNL     1       0.690  10.850  19.183  0.00  0.00    +0.000 N 
ATOM     14  H   UNL     1       1.303  11.616  18.872  0.00  0.00    +0.000 HD
BRANCH  13  15
ATOM     15  C   UNL     1      -0.671  11.121  18.892  0.00  0.00    +0.000 A 
ATOM     16  C   UNL     1      -1.304  10.362  17.898  0.00  0.00    +0.000 A 
ATOM     17  C   UNL     1      -2.667  10.528  17.622  0.00  0.00    +0.000 A 
ATOM     18  C   UNL     1      -3.417  11.448  18.354  0.00  0.00    +0.000 A 
ATOM     19  I   UNL     1      -5.464  11.606  18.034  0.00  0.00    +0.000 I 
ATOM     20  C   UNL     1      -2.808  12.233  19.327  0.00  0.00    +0.000 A 
ATOM     21  C   UNL     1      -1.449  12.062  19.590  0.00  0.00    +0.000 A 
ATOM     22  F   UNL     1      -0.907  12.810  20.564  0.00  0.00    +0.000 F 
ENDBRANCH  13  15
ENDBRANCH   6  13
BRANCH   1  23
ATOM     23  O   UNL     1       1.830   6.426  20.991  0.00  0.00    +0.000 OA
BRANCH  23  24
ATOM     24  C   UNL     1       2.265   5.105  20.654  0.00  0.00    +0.000 C 
BRANCH  24  25
ATOM     25  C   UNL     1       1.068   4.174  20.484  0.00  0.00    +0.000 C 
BRANCH  25  27
ATOM     26  C   UNL     1       1.469   3.948  18.010  0.00  0.00    +0.000 C 
ATOM     27  C   UNL     1       1.257   3.180  19.320  0.00  0.00    +0.000 C 
BRANCH  27  28
ATOM     28  O   UNL     1       0.047   2.414  19.196  0.00  0.00    +0.000 OA
ATOM     29  H   UNL     1       0.287   1.476  19.313  0.00  0.00    +0.000 HD
ENDBRANCH  27  28
BRANCH  27  30
ATOM     30  C   UNL     1       2.419   2.193  19.568  0.00  0.00    +0.000 C 
BRANCH  30  31
ATOM     31  O   UNL     1       2.717   1.460  18.380  0.00  0.00    +0.000 OA
ATOM     32  H   UNL     1       2.916   0.549  18.662  0.00  0.00    +0.000 HD
ENDBRANCH  30  31
ENDBRANCH  27  30
ENDBRANCH  25  27
ENDBRANCH  24  25
ENDBRANCH  23  24
ENDBRANCH   1  23
TORSDOF 10
ENDMDL
MODEL 2
REMARK VINA RESULT:      -7.2      3.939      5.377
REMARK  Name = 
REMARK  11 active torsions:
REMARK  status: ('A' for Active; 'I' for Inactive)
REMARK    1  A    between atoms: C_1  and  C_2
REMARK    2  A    between atoms: C_2  and  O_3
REMARK    3  A    between atoms: C_2  and  C_4
REMARK    4  A    between atoms: C_2  and  C_6
REMARK    5  A    between atoms: C_4  and  O_5
REMARK    6  A    between atoms: C_6  and  C_7
REMARK    7  A    between atoms: C_7  and  O_8
REMARK    8  A    between atoms: O_8  and  C_9
REMARK    9  A    between atoms: C_14  and  N_15
REMARK   10  A    between atoms: N_15  and  C_16
REMARK   11  A    between atoms: C_24  and  C_25
REMARK                            x       y       z     vdW  Elec       q    Type
REMARK                         _______ _______ _______ _____ _____    ______ ____
ROOT
ATOM      1  C   UNL     1       3.299   3.753  18.581  0.00  0.00    +0.000 A 
ATOM      2  C   UNL     1       2.128   3.056  18.908  0.00  0.00    +0.000 A 
ATOM      3  C   UNL     1       1.157   3.642  19.704  0.00  0.00    +0.000 A 
ATOM      4  F   UNL     1       0.055   2.946  20.014  0.00  0.00    +0.000 F 
ATOM      5  C   UNL     1       1.310   4.928  20.183  0.00  0.00    +0.000 A 
ATOM      6  C   UNL     1       2.448   5.682  19.853  0.00  0.00    +0.000 A 
ATOM      7  C   UNL     1       3.461   5.087  19.036  0.00  0.00    +0.000 A 
ENDROOT
BRANCH   7   8
ATOM      8  C   UNL     1       4.676   5.897  18.688  0.00  0.00    +0.000 C 
ATOM      9  N   UNL     1       5.859   5.575  19.292  0.00  0.00    +0.000 N 
ATOM     10  O   UNL     1       4.632   6.810  17.869  0.00  0.00    +0.000 OA
ATOM     11  H   UNL     1       5.896   4.896  20.045  0.00  0.00    +0.000 HD
ATOM     12  H   UNL     1       6.662   6.164  19.132  0.00  0.00    +0.000 HD
ENDBRANCH   7   8
BRANCH   6  13
ATOM     13  N   UNL     1       2.549   6.999  20.378  0.00  0.00    +0.000 N 
ATOM     14  H   UNL     1       3.528   7.267  20.549  0.00  0.00    +0.000 HD
BRANCH  13  15
ATOM     15  C   UNL     1       1.756   8.119  20.022  0.00  0.00    +0.000 A 
ATOM     16  C   UNL     1       1.760   8.540  18.686  0.00  0.00    +0.000 A 
ATOM     17  C   UNL     1       0.936   9.589  18.258  0.00  0.00    +0.000 A 
ATOM     18  C   UNL     1       0.084  10.217  19.166  0.00  0.00    +0.000 A 
ATOM     19  I   UNL     1      -1.230  11.688  18.509  0.00  0.00    +0.000 I 
ATOM     20  C   UNL     1       0.081   9.837  20.504  0.00  0.00    +0.000 A 
ATOM     21  C   UNL     1       0.909   8.795  20.919  0.00  0.00    +0.000 A 
ATOM     22  F   UNL     1       0.847   8.430  22.209  0.00  0.00    +0.000 F 
ENDBRANCH  13  15
ENDBRANCH   6  13
BRANCH   1  23
ATOM     23  O   UNL     1       4.314   3.182  17.836  0.00  0.00    +0.000 OA
BRANCH  23  24
ATOM     24  C   UNL     1       4.356   3.553  16.455  0.00  0.00    +0.000 C 
BRANCH  24  25
ATOM     25  C   UNL     1       5.779   3.445  15.914  0.00  0.00    +0.000 C 
BRANCH  25  27
ATOM     26  C   UNL     1       7.388   5.371  16.099  0.00  0.00    +0.000 C 
ATOM     27  C   UNL     1       6.261   4.757  15.261  0.00  0.00    +0.000 C 
BRANCH  27  28
ATOM     28  O   UNL     1       5.156   5.677  15.257  0.00  0.00    +0.000 OA
ATOM     29  H   UNL     1       5.342   6.347  14.574  0.00  0.00    +0.000 HD
ENDBRANCH  27  28
BRANCH  27  30
ATOM     30  C   UNL     1       6.715   4.557  13.798  0.00  0.00    +0.000 C 
BRANCH  30  31
ATOM     31  O   UNL     1       6.312   3.274  13.319  0.00  0.00    +0.000 OA
ATOM     32  H   UNL     1       5.376   3.170  13.569  0.00  0.00    +0.000 HD
ENDBRANCH  30  31
ENDBRANCH  27  30
ENDBRANCH  25  27
ENDBRANCH  24  25
ENDBRANCH  23  24
ENDBRANCH   1  23
TORSDOF 10
ENDMDL
MODEL 3
REMARK VINA RESULT:      -7.2      3.963      5.295
REMARK  Name = 
REMARK  11 active torsions:
REMARK  status: ('A' for Active; 'I' for Inactive)
REMARK    1  A    between atoms: C_1  and  C_2
REMARK    2  A    between atoms: C_2  and  O_3
REMARK    3  A    between atoms: C_2  and  C_4
REMARK    4  A    between atoms: C_2  and  C_6
REMARK    5  A    between atoms: C_4  and  O_5
REMARK    6  A    between atoms: C_6  and  C_7
REMARK    7  A    between atoms: C_7  and  O_8
REMARK    8  A    between atoms: O_8  and  C_9
REMARK    9  A    between atoms: C_14  and  N_15
REMARK   10  A    between atoms: N_15  and  C_16
REMARK   11  A    between atoms: C_24  and  C_25
REMARK                            x       y       z     vdW  Elec       q    Type
REMARK                         _______ _______ _______ _____ _____    ______ ____
ROOT
ATOM      1  C   UNL     1       2.525   4.854  18.239  0.00  0.00    +0.000 A 
ATOM      2  C   UNL     1       1.844   3.935  19.049  0.00  0.00    +0.000 A 
ATOM      3  C   UNL     1       1.377   4.308  20.300  0.00  0.00    +0.000 A 
ATOM      4  F   UNL     1       0.744   3.405  21.059  0.00  0.00    +0.000 F 
ATOM      5  C   UNL     1       1.558   5.592  20.774  0.00  0.00    +0.000 A 
ATOM      6  C   UNL     1       2.202   6.560  19.985  0.00  0.00    +0.000 A 
ATOM      7  C   UNL     1       2.693   6.187  18.694  0.00  0.00    +0.000 A 
ENDROOT
BRANCH   7   8
ATOM      8  C   UNL     1       3.381   7.226  17.856  0.00  0.00    +0.000 C 
ATOM      9  N   UNL     1       4.746   7.198  17.791  0.00  0.00    +0.000 N 
ATOM     10  O   UNL     1       2.752   8.067  17.222  0.00  0.00    +0.000 OA
ATOM     11  H   UNL     1       5.288   6.581  18.387  0.00  0.00    +0.000 HD
ATOM     12  H   UNL     1       5.224   7.941  17.302  0.00  0.00    +0.000 HD
ENDBRANCH   7   8
BRANCH   6  13
ATOM     13  N   UNL     1       2.360   7.863  20.529  0.00  0.00    +0.000 N 
ATOM     14  H   UNL     1       3.116   8.382  20.062  0.00  0.00    +0.000 HD
BRANCH  13  15
ATOM     15  C   UNL     1       1.329   8.730  20.972  0.00  0.00    +0.000 A 
ATOM     16  C   UNL     1       1.159   8.914  22.350  0.00  0.00    +0.000 A 
ATOM     17  C   UNL     1       0.211   9.818  22.846  0.00  0.00    +0.000 A 
ATOM     18  C   UNL     1      -0.567  10.563  21.960  0.00  0.00    +0.000 A 
ATOM     19  I   UNL     1      -1.884  11.996  22.690  0.00  0.00    +0.000 I 
ATOM     20  C   UNL     1      -0.437  10.380  20.588  0.00  0.00    +0.000 A 
ATOM     21  C   UNL     1       0.506   9.474  20.106  0.00  0.00    +0.000 A 
ATOM     22  F   UNL     1       0.630   9.355  18.775  0.00  0.00    +0.000 F 
ENDBRANCH  13  15
ENDBRANCH   6  13
BRANCH   1  23
ATOM     23  O   UNL     1       3.053   4.504  17.010  0.00  0.00    +0.000 OA
BRANCH  23  24
ATOM     24  C   UNL     1       4.404   4.034  17.024  0.00  0.00    +0.000 C 
BRANCH  24  25
ATOM     25  C   UNL     1       4.989   4.038  15.615  0.00  0.00    +0.000 C 
BRANCH  25  27
ATOM     26  C   UNL     1       7.134   4.618  16.795  0.00  0.00    +0.000 C 
ATOM     27  C   UNL     1       6.304   4.840  15.526  0.00  0.00    +0.000 C 
BRANCH  27  28
ATOM     28  O   UNL     1       5.963   6.235  15.455  0.00  0.00    +0.000 OA
ATOM     29  H   UNL     1       6.799   6.732  15.390  0.00  0.00    +0.000 HD
ENDBRANCH  27  28
BRANCH  27  30
ATOM     30  C   UNL     1       7.126   4.489  14.267  0.00  0.00    +0.000 C 
BRANCH  30  31
ATOM     31  O   UNL     1       8.026   5.548  13.944  0.00  0.00    +0.000 OA
ATOM     32  H   UNL     1       8.898   5.135  13.807  0.00  0.00    +0.000 HD
ENDBRANCH  30  31
ENDBRANCH  27  30
ENDBRANCH  25  27
ENDBRANCH  24  25
ENDBRANCH  23  24
ENDBRANCH   1  23
TORSDOF 10
ENDMDL
MODEL 4
REMARK VINA RESULT:      -7.2      3.884      5.377
REMARK  Name = 
REMARK  11 active torsions:
REMARK  status: ('A' for Active; 'I' for Inactive)
REMARK    1  A    between atoms: C_1  and  C_2
REMARK    2  A    between atoms: C_2  and  O_3
REMARK    3  A    between atoms: C_2  and  C_4
REMARK    4  A    between atoms: C_2  and  C_6
REMARK    5  A    between atoms: C_4  and  O_5
REMARK    6  A    between atoms: C_6  and  C_7
REMARK    7  A    between atoms: C_7  and  O_8
REMARK    8  A    between atoms: O_8  and  C_9
REMARK    9  A    between atoms: C_14  and  N_15
REMARK   10  A    between atoms: N_15  and  C_16
REMARK   11  A    between atoms: C_24  and  C_25
REMARK                            x       y       z     vdW  Elec       q    Type
REMARK                         _______ _______ _______ _____ _____    ______ ____
ROOT
ATOM      1  C   UNL     1       3.305   3.734  18.571  0.00  0.00    +0.000 A 
ATOM      2  C   UNL     1       2.139   3.033  18.908  0.00  0.00    +0.000 A 
ATOM      3  C   UNL     1       1.175   3.616  19.716  0.00  0.00    +0.000 A 
ATOM      4  F   UNL     1       0.078   2.918  20.036  0.00  0.00    +0.000 F 
ATOM      5  C   UNL     1       1.331   4.901  20.197  0.00  0.00    +0.000 A 
ATOM      6  C   UNL     1       2.465   5.658  19.856  0.00  0.00    +0.000 A 
ATOM      7  C   UNL     1       3.469   5.067  19.027  0.00  0.00    +0.000 A 
ENDROOT
BRANCH   7   8
ATOM      8  C   UNL     1       4.679   5.880  18.668  0.00  0.00    +0.000 C 
ATOM      9  N   UNL     1       5.896   5.462  19.130  0.00  0.00    +0.000 N 
ATOM     10  O   UNL     1       4.601   6.879  17.960  0.00  0.00    +0.000 OA
ATOM     11  H   UNL     1       5.971   4.702  19.799  0.00  0.00    +0.000 HD
ATOM     12  H   UNL     1       6.704   6.045  18.969  0.00  0.00    +0.000 HD
ENDBRANCH   7   8
BRANCH   6  13
ATOM     13  N   UNL     1       2.569   6.974  20.383  0.00  0.00    +0.000 N 
ATOM     14  H   UNL     1       3.549   7.242  20.547  0.00  0.00    +0.000 HD
BRANCH  13  15
ATOM     15  C   UNL     1       1.773   8.094  20.036  0.00  0.00    +0.000 A 
ATOM     16  C   UNL     1       1.764   8.517  18.701  0.00  0.00    +0.000 A 
ATOM     17  C   UNL     1       0.937   9.567  18.282  0.00  0.00    +0.000 A 
ATOM     18  C   UNL     1       0.093  10.194  19.198  0.00  0.00    +0.000 A 
ATOM     19  I   UNL     1      -1.228  11.665  18.555  0.00  0.00    +0.000 I 
ATOM     20  C   UNL     1       0.101   9.811  20.535  0.00  0.00    +0.000 A 
ATOM     21  C   UNL     1       0.933   8.768  20.942  0.00  0.00    +0.000 A 
ATOM     22  F   UNL     1       0.883   8.401  22.231  0.00  0.00    +0.000 F 
ENDBRANCH  13  15
ENDBRANCH   6  13
BRANCH   1  23
ATOM     23  O   UNL     1       4.313   3.166  17.813  0.00  0.00    +0.000 OA
BRANCH  23  24
ATOM     24  C   UNL     1       4.346   3.548  16.435  0.00  0.00    +0.000 C 
BRANCH  24  25
ATOM     25  C   UNL     1       5.725   3.284  15.838  0.00  0.00    +0.000 C 
BRANCH  25  27
ATOM     26  C   UNL     1       5.272   5.639  15.075  0.00  0.00    +0.000 C 
ATOM     27  C   UNL     1       6.340   4.546  15.198  0.00  0.00    +0.000 C 
BRANCH  27  28
ATOM     28  O   UNL     1       6.775   4.198  13.873  0.00  0.00    +0.000 OA
ATOM     29  H   UNL     1       5.975   4.017  13.346  0.00  0.00    +0.000 HD
ENDBRANCH  27  28
BRANCH  27  30
ATOM     30  C   UNL     1       7.567   5.067  15.979  0.00  0.00    +0.000 C 
BRANCH  30  31
ATOM     31  O   UNL     1       7.905   4.170  17.036  0.00  0.00    +0.000 OA
ATOM     32  H   UNL     1       8.139   3.324  16.614  0.00  0.00    +0.000 HD
ENDBRANCH  30  31
ENDBRANCH  27  30
ENDBRANCH  25  27
ENDBRANCH  24  25
ENDBRANCH  23  24
ENDBRANCH   1  23
TORSDOF 10
ENDMDL
MODEL 5
REMARK VINA RESULT:      -7.1      3.686      5.511
REMARK  Name = 
REMARK  11 active torsions:
REMARK  status: ('A' for Active; 'I' for Inactive)
REMARK    1  A    between atoms: C_1  and  C_2
REMARK    2  A    between atoms: C_2  and  O_3
REMARK    3  A    between atoms: C_2  and  C_4
REMARK    4  A    between atoms: C_2  and  C_6
REMARK    5  A    between atoms: C_4  and  O_5
REMARK    6  A    between atoms: C_6  and  C_7
REMARK    7  A    between atoms: C_7  and  O_8
REMARK    8  A    between atoms: O_8  and  C_9
REMARK    9  A    between atoms: C_14  and  N_15
REMARK   10  A    between atoms: N_15  and  C_16
REMARK   11  A    between atoms: C_24  and  C_25
REMARK                            x       y       z     vdW  Elec       q    Type
REMARK                         _______ _______ _______ _____ _____    ______ ____
ROOT
ATOM      1  C   UNL     1       3.406   3.504  18.692  0.00  0.00    +0.000 A 
ATOM      2  C   UNL     1       2.180   2.846  18.863  0.00  0.00    +0.000 A 
ATOM      3  C   UNL     1       1.141   3.460  19.546  0.00  0.00    +0.000 A 
ATOM      4  F   UNL     1      -0.014   2.802  19.710  0.00  0.00    +0.000 F 
ATOM      5  C   UNL     1       1.280   4.733  20.060  0.00  0.00    +0.000 A 
ATOM      6  C   UNL     1       2.477   5.448  19.881  0.00  0.00    +0.000 A 
ATOM      7  C   UNL     1       3.559   4.825  19.184  0.00  0.00    +0.000 A 
ENDROOT
BRANCH   7   8
ATOM      8  C   UNL     1       4.835   5.594  18.997  0.00  0.00    +0.000 C 
ATOM      9  N   UNL     1       6.000   5.017  19.420  0.00  0.00    +0.000 N 
ATOM     10  O   UNL     1       4.854   6.697  18.461  0.00  0.00    +0.000 OA
ATOM     11  H   UNL     1       5.995   4.156  19.958  0.00  0.00    +0.000 HD
ATOM     12  H   UNL     1       6.852   5.557  19.380  0.00  0.00    +0.000 HD
ENDBRANCH   7   8
BRANCH   6  13
ATOM     13  N   UNL     1       2.560   6.754  20.436  0.00  0.00    +0.000 N 
ATOM     14  H   UNL     1       3.536   7.036  20.601  0.00  0.00    +0.000 HD
BRANCH  13  15
ATOM     15  C   UNL     1       1.743   7.867  20.115  0.00  0.00    +0.000 A 
ATOM     16  C   UNL     1       0.970   8.442  21.133  0.00  0.00    +0.000 A 
ATOM     17  C   UNL     1       0.205   9.592  20.895  0.00  0.00    +0.000 A 
ATOM     18  C   UNL     1       0.220  10.188  19.635  0.00  0.00    +0.000 A 
ATOM     19  I   UNL     1      -0.813  11.963  19.315  0.00  0.00    +0.000 I 
ATOM     20  C   UNL     1       0.957   9.622  18.600  0.00  0.00    +0.000 A 
ATOM     21  C   UNL     1       1.711   8.475  18.846  0.00  0.00    +0.000 A 
ATOM     22  F   UNL     1       2.439   7.982  17.833  0.00  0.00    +0.000 F 
ENDBRANCH  13  15
ENDBRANCH   6  13
BRANCH   1  23
ATOM     23  O   UNL     1       4.483   2.903  18.065  0.00  0.00    +0.000 OA
BRANCH  23  24
ATOM     24  C   UNL     1       4.398   2.805  16.641  0.00  0.00    +0.000 C 
BRANCH  24  25
ATOM     25  C   UNL     1       4.557   4.180  15.999  0.00  0.00    +0.000 C 
BRANCH  25  27
ATOM     26  C   UNL     1       6.327   3.811  14.249  0.00  0.00    +0.000 C 
ATOM     27  C   UNL     1       6.016   4.476  15.594  0.00  0.00    +0.000 C 
BRANCH  27  28
ATOM     28  O   UNL     1       6.874   3.891  16.589  0.00  0.00    +0.000 OA
ATOM     29  H   UNL     1       7.370   4.620  17.006  0.00  0.00    +0.000 HD
ENDBRANCH  27  28
BRANCH  27  30
ATOM     30  C   UNL     1       6.319   5.990  15.539  0.00  0.00    +0.000 C 
BRANCH  30  31
ATOM     31  O   UNL     1       5.107   6.743  15.532  0.00  0.00    +0.000 OA
ATOM     32  H   UNL     1       4.431   6.178  15.948  0.00  0.00    +0.000 HD
ENDBRANCH  30  31
ENDBRANCH  27  30
ENDBRANCH  25  27
ENDBRANCH  24  25
ENDBRANCH  23  24
ENDBRANCH   1  23
TORSDOF 10
ENDMDL
MODEL 6
REMARK VINA RESULT:      -7.1      4.610      6.291
REMARK  Name = 
REMARK  11 active torsions:
REMARK  status: ('A' for Active; 'I' for Inactive)
REMARK    1  A    between atoms: C_1  and  C_2
REMARK    2  A    between atoms: C_2  and  O_3
REMARK    3  A    between atoms: C_2  and  C_4
REMARK    4  A    between atoms: C_2  and  C_6
REMARK    5  A    between atoms: C_4  and  O_5
REMARK    6  A    between atoms: C_6  and  C_7
REMARK    7  A    between atoms: C_7  and  O_8
REMARK    8  A    between atoms: O_8  and  C_9
REMARK    9  A    between atoms: C_14  and  N_15
REMARK   10  A    between atoms: N_15  and  C_16
REMARK   11  A    between atoms: C_24  and  C_25
REMARK                            x       y       z     vdW  Elec       q    Type
REMARK                         _______ _______ _______ _____ _____    ______ ____
ROOT
ATOM      1  C   UNL     1       4.193   4.013  17.102  0.00  0.00    +0.000 A 
ATOM      2  C   UNL     1       3.045   3.210  17.148  0.00  0.00    +0.000 A 
ATOM      3  C   UNL     1       1.984   3.543  17.976  0.00  0.00    +0.000 A 
ATOM      4  F   UNL     1       0.906   2.749  18.012  0.00  0.00    +0.000 F 
ATOM      5  C   UNL     1       2.025   4.676  18.764  0.00  0.00    +0.000 A 
ATOM      6  C   UNL     1       3.138   5.533  18.726  0.00  0.00    +0.000 A 
ATOM      7  C   UNL     1       4.241   5.198  17.879  0.00  0.00    +0.000 A 
ENDROOT
BRANCH   7   8
ATOM      8  C   UNL     1       5.428   6.117  17.844  0.00  0.00    +0.000 C 
ATOM      9  N   UNL     1       6.588   5.692  18.429  0.00  0.00    +0.000 N 
ATOM     10  O   UNL     1       5.383   7.211  17.288  0.00  0.00    +0.000 OA
ATOM     11  H   UNL     1       6.616   4.841  18.981  0.00  0.00    +0.000 HD
ATOM     12  H   UNL     1       7.365   6.333  18.488  0.00  0.00    +0.000 HD
ENDBRANCH   7   8
BRANCH   6  13
ATOM     13  N   UNL     1       3.121   6.682  19.562  0.00  0.00    +0.000 N 
ATOM     14  H   UNL     1       4.070   7.033  19.745  0.00  0.00    +0.000 HD
BRANCH  13  15
ATOM     15  C   UNL     1       2.171   7.734  19.541  0.00  0.00    +0.000 A 
ATOM     16  C   UNL     1       1.480   8.031  20.723  0.00  0.00    +0.000 A 
ATOM     17  C   UNL     1       0.588   9.110  20.786  0.00  0.00    +0.000 A 
ATOM     18  C   UNL     1       0.393   9.915  19.664  0.00  0.00    +0.000 A 
ATOM     19  I   UNL     1      -0.831  11.591  19.790  0.00  0.00    +0.000 I 
ATOM     20  C   UNL     1       1.046   9.626  18.471  0.00  0.00    +0.000 A 
ATOM     21  C   UNL     1       1.927   8.547  18.419  0.00  0.00    +0.000 A 
ATOM     22  F   UNL     1       2.568   8.325  17.261  0.00  0.00    +0.000 F 
ENDBRANCH  13  15
ENDBRANCH   6  13
BRANCH   1  23
ATOM     23  O   UNL     1       5.292   3.684  16.330  0.00  0.00    +0.000 OA
BRANCH  23  24
ATOM     24  C   UNL     1       5.265   4.152  14.978  0.00  0.00    +0.000 C 
BRANCH  24  25
ATOM     25  C   UNL     1       6.521   3.709  14.233  0.00  0.00    +0.000 C 
BRANCH  25  27
ATOM     26  C   UNL     1       4.843   3.901  12.367  0.00  0.00    +0.000 C 
ATOM     27  C   UNL     1       6.326   3.708  12.702  0.00  0.00    +0.000 C 
BRANCH  27  28
ATOM     28  O   UNL     1       6.729   2.419  12.210  0.00  0.00    +0.000 OA
ATOM     29  H   UNL     1       6.807   1.827  12.981  0.00  0.00    +0.000 HD
ENDBRANCH  27  28
BRANCH  27  30
ATOM     30  C   UNL     1       7.189   4.776  11.996  0.00  0.00    +0.000 C 
BRANCH  30  31
ATOM     31  O   UNL     1       7.926   5.538  12.952  0.00  0.00    +0.000 OA
ATOM     32  H   UNL     1       8.325   6.280  12.462  0.00  0.00    +0.000 HD
ENDBRANCH  30  31
ENDBRANCH  27  30
ENDBRANCH  25  27
ENDBRANCH  24  25
ENDBRANCH  23  24
ENDBRANCH   1  23
TORSDOF 10
ENDMDL
MODEL 7
REMARK VINA RESULT:      -7.0      4.281      5.997
REMARK  Name = 
REMARK  11 active torsions:
REMARK  status: ('A' for Active; 'I' for Inactive)
REMARK    1  A    between atoms: C_1  and  C_2
REMARK    2  A    between atoms: C_2  and  O_3
REMARK    3  A    between atoms: C_2  and  C_4
REMARK    4  A    between atoms: C_2  and  C_6
REMARK    5  A    between atoms: C_4  and  O_5
REMARK    6  A    between atoms: C_6  and  C_7
REMARK    7  A    between atoms: C_7  and  O_8
REMARK    8  A    between atoms: O_8  and  C_9
REMARK    9  A    between atoms: C_14  and  N_15
REMARK   10  A    between atoms: N_15  and  C_16
REMARK   11  A    between atoms: C_24  and  C_25
REMARK                            x       y       z     vdW  Elec       q    Type
REMARK                         _______ _______ _______ _____ _____    ______ ____
ROOT
ATOM      1  C   UNL     1       3.697   3.826  17.618  0.00  0.00    +0.000 A 
ATOM      2  C   UNL     1       2.523   3.063  17.679  0.00  0.00    +0.000 A 
ATOM      3  C   UNL     1       1.485   3.433  18.519  0.00  0.00    +0.000 A 
ATOM      4  F   UNL     1       0.381   2.676  18.571  0.00  0.00    +0.000 F 
ATOM      5  C   UNL     1       1.573   4.565  19.304  0.00  0.00    +0.000 A 
ATOM      6  C   UNL     1       2.714   5.384  19.250  0.00  0.00    +0.000 A 
ATOM      7  C   UNL     1       3.794   5.011  18.391  0.00  0.00    +0.000 A 
ENDROOT
BRANCH   7   8
ATOM      8  C   UNL     1       5.011   5.889  18.339  0.00  0.00    +0.000 C 
ATOM      9  N   UNL     1       6.096   5.530  19.089  0.00  0.00    +0.000 N 
ATOM     10  O   UNL     1       5.057   6.890  17.630  0.00  0.00    +0.000 OA
ATOM     11  H   UNL     1       6.043   4.769  19.758  0.00  0.00    +0.000 HD
ATOM     12  H   UNL     1       6.887   6.156  19.130  0.00  0.00    +0.000 HD
ENDBRANCH   7   8
BRANCH   6  13
ATOM     13  N   UNL     1       2.746   6.535  20.083  0.00  0.00    +0.000 N 
ATOM     14  H   UNL     1       3.709   6.795  20.337  0.00  0.00    +0.000 HD
BRANCH  13  15
ATOM     15  C   UNL     1       1.905   7.673  19.994  0.00  0.00    +0.000 A 
ATOM     16  C   UNL     1       1.209   8.080  21.140  0.00  0.00    +0.000 A 
ATOM     17  C   UNL     1       0.426   9.241  21.134  0.00  0.00    +0.000 A 
ATOM     18  C   UNL     1       0.347  10.020  19.980  0.00  0.00    +0.000 A 
ATOM     19  I   UNL     1      -0.710  11.809  20.007  0.00  0.00    +0.000 I 
ATOM     20  C   UNL     1       1.006   9.624  18.821  0.00  0.00    +0.000 A 
ATOM     21  C   UNL     1       1.778   8.463  18.837  0.00  0.00    +0.000 A 
ATOM     22  F   UNL     1       2.430   8.137  17.710  0.00  0.00    +0.000 F 
ENDBRANCH  13  15
ENDBRANCH   6  13
BRANCH   1  23
ATOM     23  O   UNL     1       4.775   3.458  16.833  0.00  0.00    +0.000 OA
BRANCH  23  24
ATOM     24  C   UNL     1       4.608   3.636  15.424  0.00  0.00    +0.000 C 
BRANCH  24  25
ATOM     25  C   UNL     1       5.954   3.556  14.710  0.00  0.00    +0.000 C 
BRANCH  25  27
ATOM     26  C   UNL     1       7.686   4.922  15.920  0.00  0.00    +0.000 C 
ATOM     27  C   UNL     1       6.714   4.898  14.735  0.00  0.00    +0.000 C 
BRANCH  27  28
ATOM     28  O   UNL     1       5.748   5.945  14.930  0.00  0.00    +0.000 OA
ATOM     29  H   UNL     1       6.186   6.786  14.701  0.00  0.00    +0.000 HD
ENDBRANCH  27  28
BRANCH  27  30
ATOM     30  C   UNL     1       7.459   5.181  13.412  0.00  0.00    +0.000 C 
BRANCH  30  31
ATOM     31  O   UNL     1       8.662   5.908  13.659  0.00  0.00    +0.000 OA
ATOM     32  H   UNL     1       8.639   6.684  13.071  0.00  0.00    +0.000 HD
ENDBRANCH  30  31
ENDBRANCH  27  30
ENDBRANCH  25  27
ENDBRANCH  24  25
ENDBRANCH  23  24
ENDBRANCH   1  23
TORSDOF 10
ENDMDL
MODEL 8
REMARK VINA RESULT:      -7.0      1.518      1.795
REMARK  Name = 
REMARK  11 active torsions:
REMARK  status: ('A' for Active; 'I' for Inactive)
REMARK    1  A    between atoms: C_1  and  C_2
REMARK    2  A    between atoms: C_2  and  O_3
REMARK    3  A    between atoms: C_2  and  C_4
REMARK    4  A    between atoms: C_2  and  C_6
REMARK    5  A    between atoms: C_4  and  O_5
REMARK    6  A    between atoms: C_6  and  C_7
REMARK    7  A    between atoms: C_7  and  O_8
REMARK    8  A    between atoms: O_8  and  C_9
REMARK    9  A    between atoms: C_14  and  N_15
REMARK   10  A    between atoms: N_15  and  C_16
REMARK   11  A    between atoms: C_24  and  C_25
REMARK                            x       y       z     vdW  Elec       q    Type
REMARK                         _______ _______ _______ _____ _____    ______ ____
ROOT
ATOM      1  C   UNL     1       2.189   7.005  19.748  0.00  0.00    +0.000 A 
ATOM      2  C   UNL     1       2.862   6.866  18.527  0.00  0.00    +0.000 A 
ATOM      3  C   UNL     1       2.849   7.891  17.594  0.00  0.00    +0.000 A 
ATOM      4  F   UNL     1       3.486   7.725  16.428  0.00  0.00    +0.000 F 
ATOM      5  C   UNL     1       2.187   9.076  17.847  0.00  0.00    +0.000 A 
ATOM      6  C   UNL     1       1.529   9.278  19.072  0.00  0.00    +0.000 A 
ATOM      7  C   UNL     1       1.531   8.226  20.041  0.00  0.00    +0.000 A 
ENDROOT
BRANCH   7   8
ATOM      8  C   UNL     1       0.825   8.448  21.348  0.00  0.00    +0.000 C 
ATOM      9  N   UNL     1       1.582   8.756  22.444  0.00  0.00    +0.000 N 
ATOM     10  O   UNL     1      -0.397   8.384  21.443  0.00  0.00    +0.000 OA
ATOM     11  H   UNL     1       2.595   8.713  22.411  0.00  0.00    +0.000 HD
ATOM     12  H   UNL     1       1.130   8.823  23.343  0.00  0.00    +0.000 HD
ENDBRANCH   7   8
BRANCH   6  13
ATOM     13  N   UNL     1       0.864  10.518  19.273  0.00  0.00    +0.000 N 
ATOM     14  H   UNL     1       1.498  11.317  19.135  0.00  0.00    +0.000 HD
BRANCH  13  15
ATOM     15  C   UNL     1      -0.466  10.839  18.903  0.00  0.00    +0.000 A 
ATOM     16  C   UNL     1      -1.068  10.102  17.874  0.00  0.00    +0.000 A 
ATOM     17  C   UNL     1      -2.406  10.318  17.519  0.00  0.00    +0.000 A 
ATOM     18  C   UNL     1      -3.162  11.267  18.206  0.00  0.00    +0.000 A 
ATOM     19  I   UNL     1      -5.180  11.502  17.767  0.00  0.00    +0.000 I 
ATOM     20  C   UNL     1      -2.581  12.032  19.213  0.00  0.00    +0.000 A 
ATOM     21  C   UNL     1      -1.247  11.811  19.554  0.00  0.00    +0.000 A 
ATOM     22  F   UNL     1      -0.735  12.540  20.558  0.00  0.00    +0.000 F 
ENDBRANCH  13  15
ENDBRANCH   6  13
BRANCH   1  23
ATOM     23  O   UNL     1       2.134   5.984  20.680  0.00  0.00    +0.000 OA
BRANCH  23  24
ATOM     24  C   UNL     1       2.026   4.661  20.147  0.00  0.00    +0.000 C 
BRANCH  24  25
ATOM     25  C   UNL     1       3.205   3.803  20.598  0.00  0.00    +0.000 C 
BRANCH  25  27
ATOM     26  C   UNL     1       3.336   3.190  18.161  0.00  0.00    +0.000 C 
ATOM     27  C   UNL     1       4.151   3.444  19.434  0.00  0.00    +0.000 C 
BRANCH  27  28
ATOM     28  O   UNL     1       4.828   2.224  19.780  0.00  0.00    +0.000 OA
ATOM     29  H   UNL     1       5.634   2.472  20.270  0.00  0.00    +0.000 HD
ENDBRANCH  27  28
BRANCH  27  30
ATOM     30  C   UNL     1       5.224   4.529  19.189  0.00  0.00    +0.000 C 
BRANCH  30  31
ATOM     31  O   UNL     1       6.382   3.959  18.581  0.00  0.00    +0.000 OA
ATOM     32  H   UNL     1       6.280   2.992  18.650  0.00  0.00    +0.000 HD
ENDBRANCH  30  31
ENDBRANCH  27  30
ENDBRANCH  25  27
ENDBRANCH  24  25
ENDBRANCH  23  24
ENDBRANCH   1  23
TORSDOF 10
ENDMDL
MODEL 9
REMARK VINA RESULT:      -6.9      3.756      5.152
REMARK  Name = 
REMARK  11 active torsions:
REMARK  status: ('A' for Active; 'I' for Inactive)
REMARK    1  A    between atoms: C_1  and  C_2
REMARK    2  A    between atoms: C_2  and  O_3
REMARK    3  A    between atoms: C_2  and  C_4
REMARK    4  A    between atoms: C_2  and  C_6
REMARK    5  A    between atoms: C_4  and  O_5
REMARK    6  A    between atoms: C_6  and  C_7
REMARK    7  A    between atoms: C_7  and  O_8
REMARK    8  A    between atoms: O_8  and  C_9
REMARK    9  A    between atoms: C_14  and  N_15
REMARK   10  A    between atoms: N_15  and  C_16
REMARK   11  A    between atoms: C_24  and  C_25
REMARK                            x       y       z     vdW  Elec       q    Type
REMARK                         _______ _______ _______ _____ _____    ______ ____
ROOT
ATOM      1  C   UNL     1       2.567   4.809  18.329  0.00  0.00    +0.000 A 
ATOM      2  C   UNL     1       1.853   3.913  19.137  0.00  0.00    +0.000 A 
ATOM      3  C   UNL     1       1.343   4.319  20.360  0.00  0.00    +0.000 A 
ATOM      4  F   UNL     1       0.680   3.437  21.119  0.00  0.00    +0.000 F 
ATOM      5  C   UNL     1       1.512   5.614  20.808  0.00  0.00    +0.000 A 
ATOM      6  C   UNL     1       2.187   6.560  20.018  0.00  0.00    +0.000 A 
ATOM      7  C   UNL     1       2.722   6.153  18.756  0.00  0.00    +0.000 A 
ENDROOT
BRANCH   7   8
ATOM      8  C   UNL     1       3.444   7.168  17.917  0.00  0.00    +0.000 C 
ATOM      9  N   UNL     1       4.793   7.022  17.750  0.00  0.00    +0.000 N 
ATOM     10  O   UNL     1       2.853   8.093  17.369  0.00  0.00    +0.000 OA
ATOM     11  H   UNL     1       5.315   6.329  18.275  0.00  0.00    +0.000 HD
ATOM     12  H   UNL     1       5.302   7.744  17.261  0.00  0.00    +0.000 HD
ENDBRANCH   7   8
BRANCH   6  13
ATOM     13  N   UNL     1       2.329   7.876  20.534  0.00  0.00    +0.000 N 
ATOM     14  H   UNL     1       3.063   8.402  20.039  0.00  0.00    +0.000 HD
BRANCH  13  15
ATOM     15  C   UNL     1       1.291   8.729  20.985  0.00  0.00    +0.000 A 
ATOM     16  C   UNL     1       1.096   8.870  22.366  0.00  0.00    +0.000 A 
ATOM     17  C   UNL     1       0.139   9.758  22.873  0.00  0.00    +0.000 A 
ATOM     18  C   UNL     1      -0.623  10.532  21.998  0.00  0.00    +0.000 A 
ATOM     19  I   UNL     1      -1.953  11.942  22.748  0.00  0.00    +0.000 I 
ATOM     20  C   UNL     1      -0.469  10.392  20.622  0.00  0.00    +0.000 A 
ATOM     21  C   UNL     1       0.483   9.501  20.129  0.00  0.00    +0.000 A 
ATOM     22  F   UNL     1       0.630   9.424  18.797  0.00  0.00    +0.000 F 
ENDBRANCH  13  15
ENDBRANCH   6  13
BRANCH   1  23
ATOM     23  O   UNL     1       3.137   4.427  17.129  0.00  0.00    +0.000 OA
BRANCH  23  24
ATOM     24  C   UNL     1       4.400   3.760  17.225  0.00  0.00    +0.000 C 
BRANCH  24  25
ATOM     25  C   UNL     1       4.899   3.354  15.841  0.00  0.00    +0.000 C 
BRANCH  25  27
ATOM     26  C   UNL     1       5.395   5.584  14.787  0.00  0.00    +0.000 C 
ATOM     27  C   UNL     1       6.012   4.286  15.321  0.00  0.00    +0.000 C 
BRANCH  27  28
ATOM     28  O   UNL     1       6.665   3.621  14.227  0.00  0.00    +0.000 OA
ATOM     29  H   UNL     1       7.374   4.212  13.912  0.00  0.00    +0.000 HD
ENDBRANCH  27  28
BRANCH  27  30
ATOM     30  C   UNL     1       7.079   4.591  16.396  0.00  0.00    +0.000 C 
BRANCH  30  31
ATOM     31  O   UNL     1       7.505   5.950  16.309  0.00  0.00    +0.000 OA
ATOM     32  H   UNL     1       7.613   6.262  17.226  0.00  0.00    +0.000 HD
ENDBRANCH  30  31
ENDBRANCH  27  30
ENDBRANCH  25  27
ENDBRANCH  24  25
ENDBRANCH  23  24
ENDBRANCH   1  23
TORSDOF 10
ENDMDL
