MODEL 1
REMARK VINA RESULT:      -7.1      0.000      0.000
REMARK  Name = 
REMARK  7 active torsions:
REMARK  status: ('A' for Active; 'I' for Inactive)
REMARK    1  A    between atoms: C_1  and  C_2
REMARK    2  A    between atoms: C_2  and  C_3
REMARK    3  A    between atoms: C_2  and  C_4
REMARK    4  A    between atoms: C_2  and  C_5
REMARK    5  A    between atoms: C_10  and  C_11
REMARK    6  A    between atoms: N_13  and  C_14
REMARK    7  A    between atoms: C_14  and  C_15
REMARK                            x       y       z     vdW  Elec       q    Type
REMARK                         _______ _______ _______ _____ _____    ______ ____
ROOT
ATOM      1  C   UNL     1       2.905   3.834  19.549  0.00  0.00    +0.000 C 
ATOM      2  C   UNL     1       3.713   2.738  20.273  0.00  0.00    +0.000 C 
ATOM      3  N   UNL     1       5.004   2.794  19.656  0.00  0.00    +0.000 N 
ATOM      4  C   UNL     1       5.261   4.032  19.099  0.00  0.00    +0.000 C 
ATOM      5  O   UNL     1       6.336   4.360  18.627  0.00  0.00    +0.000 OA
ATOM      6  C   UNL     1       4.040   4.884  19.331  0.00  0.00    +0.000 C 
ATOM      7  H   UNL     1       5.722   2.080  19.695  0.00  0.00    +0.000 HD
ENDROOT
BRANCH   1   9
ATOM      8  C   UNL     1       1.067   2.216  18.767  0.00  0.00    +0.000 C 
ATOM      9  C   UNL     1       2.089   3.289  18.306  0.00  0.00    +0.000 C 
ATOM     10  C   UNL     1       2.975   2.644  17.224  0.00  0.00    +0.000 C 
ATOM     11  C   UNL     1       1.233   4.401  17.659  0.00  0.00    +0.000 C 
ENDBRANCH   1   9
BRANCH   6  12
ATOM     12  C   UNL     1       3.791   5.997  18.346  0.00  0.00    +0.000 C 
ATOM     13  O   UNL     1       4.232   6.022  17.205  0.00  0.00    +0.000 OA
ATOM     14  N   UNL     1       2.933   6.976  18.833  0.00  0.00    +0.000 N 
ATOM     15  H   UNL     1       2.852   7.074  19.837  0.00  0.00    +0.000 HD
BRANCH  14  16
ATOM     16  C   UNL     1       2.561   8.100  17.995  0.00  0.00    +0.000 C 
BRANCH  16  17
ATOM     17  C   UNL     1       1.724   9.173  18.708  0.00  0.00    +0.000 C 
ATOM     18  C   UNL     1       1.313   8.742  20.124  0.00  0.00    +0.000 C 
ATOM     19  C   UNL     1       0.402   9.777  20.770  0.00  0.00    +0.000 C 
ATOM     20  O   UNL     1      -0.733  10.025  19.943  0.00  0.00    +0.000 OA
ATOM     21  C   UNL     1      -0.363  10.585  18.683  0.00  0.00    +0.000 C 
ATOM     22  C   UNL     1       0.495   9.602  17.894  0.00  0.00    +0.000 C 
ENDBRANCH  16  17
ENDBRANCH  14  16
ENDBRANCH   6  12
TORSDOF 4
ENDMDL
MODEL 2
REMARK VINA RESULT:      -7.1      0.676      1.183
REMARK  Name = 
REMARK  7 active torsions:
REMARK  status: ('A' for Active; 'I' for Inactive)
REMARK    1  A    between atoms: C_1  and  C_2
REMARK    2  A    between atoms: C_2  and  C_3
REMARK    3  A    between atoms: C_2  and  C_4
REMARK    4  A    between atoms: C_2  and  C_5
REMARK    5  A    between atoms: C_10  and  C_11
REMARK    6  A    between atoms: N_13  and  C_14
REMARK    7  A    between atoms: C_14  and  C_15
REMARK                            x       y       z     vdW  Elec       q    Type
REMARK                         _______ _______ _______ _____ _____    ______ ____
ROOT
ATOM      1  C   UNL     1       2.879   3.875  19.524  0.00  0.00    +0.000 C 
ATOM      2  C   UNL     1       3.655   2.786  20.291  0.00  0.00    +0.000 C 
ATOM      3  N   UNL     1       4.955   2.798  19.694  0.00  0.00    +0.000 N 
ATOM      4  C   UNL     1       5.246   4.014  19.105  0.00  0.00    +0.000 C 
ATOM      5  O   UNL     1       6.334   4.307  18.640  0.00  0.00    +0.000 OA
ATOM      6  C   UNL     1       4.038   4.896  19.293  0.00  0.00    +0.000 C 
ATOM      7  H   UNL     1       5.659   2.072  19.764  0.00  0.00    +0.000 HD
ENDROOT
BRANCH   1   9
ATOM      8  C   UNL     1       1.051   2.239  18.755  0.00  0.00    +0.000 C 
ATOM      9  C   UNL     1       2.072   3.310  18.285  0.00  0.00    +0.000 C 
ATOM     10  C   UNL     1       2.965   2.653  17.215  0.00  0.00    +0.000 C 
ATOM     11  C   UNL     1       1.214   4.409  17.619  0.00  0.00    +0.000 C 
ENDBRANCH   1   9
BRANCH   6  12
ATOM     12  C   UNL     1       3.826   5.985  18.272  0.00  0.00    +0.000 C 
ATOM     13  O   UNL     1       4.291   5.971  17.141  0.00  0.00    +0.000 OA
ATOM     14  N   UNL     1       2.972   6.988  18.713  0.00  0.00    +0.000 N 
ATOM     15  H   UNL     1       2.871   7.116  19.712  0.00  0.00    +0.000 HD
BRANCH  14  16
ATOM     16  C   UNL     1       2.633   8.094  17.837  0.00  0.00    +0.000 C 
BRANCH  16  17
ATOM     17  C   UNL     1       1.592   9.064  18.413  0.00  0.00    +0.000 C 
ATOM     18  C   UNL     1       1.977  10.533  18.182  0.00  0.00    +0.000 C 
ATOM     19  C   UNL     1       0.982  11.473  18.849  0.00  0.00    +0.000 C 
ATOM     20  O   UNL     1       0.867  11.169  20.239  0.00  0.00    +0.000 OA
ATOM     21  C   UNL     1       0.348   9.858  20.456  0.00  0.00    +0.000 C 
ATOM     22  C   UNL     1       1.303   8.807  19.899  0.00  0.00    +0.000 C 
ENDBRANCH  16  17
ENDBRANCH  14  16
ENDBRANCH   6  12
TORSDOF 4
ENDMDL
MODEL 3
REMARK VINA RESULT:      -7.1      1.315      1.884
REMARK  Name = 
REMARK  7 active torsions:
REMARK  status: ('A' for Active; 'I' for Inactive)
REMARK    1  A    between atoms: C_1  and  C_2
REMARK    2  A    between atoms: C_2  and  C_3
REMARK    3  A    between atoms: C_2  and  C_4
REMARK    4  A    between atoms: C_2  and  C_5
REMARK    5  A    between atoms: C_10  and  C_11
REMARK    6  A    between atoms: N_13  and  C_14
REMARK    7  A    between atoms: C_14  and  C_15
REMARK                            x       y       z     vdW  Elec       q    Type
REMARK                         _______ _______ _______ _____ _____    ______ ____
ROOT
ATOM      1  C   UNL     1       3.273   3.939  19.330  0.00  0.00    +0.000 C 
ATOM      2  C   UNL     1       4.399   2.970  19.742  0.00  0.00    +0.000 C 
ATOM      3  N   UNL     1       5.596   3.623  19.308  0.00  0.00    +0.000 N 
ATOM      4  C   UNL     1       5.434   4.992  19.204  0.00  0.00    +0.000 C 
ATOM      5  O   UNL     1       6.340   5.773  18.971  0.00  0.00    +0.000 OA
ATOM      6  C   UNL     1       4.004   5.296  19.573  0.00  0.00    +0.000 C 
ATOM      7  H   UNL     1       6.507   3.196  19.187  0.00  0.00    +0.000 HD
ENDROOT
BRANCH   1   9
ATOM      8  C   UNL     1       2.275   2.119  17.813  0.00  0.00    +0.000 C 
ATOM      9  C   UNL     1       2.665   3.618  17.904  0.00  0.00    +0.000 C 
ATOM     10  C   UNL     1       3.634   3.910  16.742  0.00  0.00    +0.000 C 
ATOM     11  C   UNL     1       1.346   4.387  17.664  0.00  0.00    +0.000 C 
ENDBRANCH   1   9
BRANCH   6  12
ATOM     12  C   UNL     1       3.399   6.541  18.976  0.00  0.00    +0.000 C 
ATOM     13  O   UNL     1       3.629   6.947  17.845  0.00  0.00    +0.000 OA
ATOM     14  N   UNL     1       2.477   7.156  19.814  0.00  0.00    +0.000 N 
ATOM     15  H   UNL     1       2.551   6.978  20.808  0.00  0.00    +0.000 HD
BRANCH  14  16
ATOM     16  C   UNL     1       1.774   8.347  19.375  0.00  0.00    +0.000 C 
BRANCH  16  17
ATOM     17  C   UNL     1       0.794   8.922  20.407  0.00  0.00    +0.000 C 
ATOM     18  C   UNL     1       0.494  10.408  20.157  0.00  0.00    +0.000 C 
ATOM     19  C   UNL     1      -0.398  10.979  21.250  0.00  0.00    +0.000 C 
ATOM     20  O   UNL     1       0.191  10.768  22.533  0.00  0.00    +0.000 OA
ATOM     21  C   UNL     1       0.317   9.380  22.840  0.00  0.00    +0.000 C 
ATOM     22  C   UNL     1       1.261   8.700  21.854  0.00  0.00    +0.000 C 
ENDBRANCH  16  17
ENDBRANCH  14  16
ENDBRANCH   6  12
TORSDOF 4
ENDMDL
MODEL 4
REMARK VINA RESULT:      -7.0      1.608      2.439
REMARK  Name = 
REMARK  7 active torsions:
REMARK  status: ('A' for Active; 'I' for Inactive)
REMARK    1  A    between atoms: C_1  and  C_2
REMARK    2  A    between atoms: C_2  and  C_3
REMARK    3  A    between atoms: C_2  and  C_4
REMARK    4  A    between atoms: C_2  and  C_5
REMARK    5  A    between atoms: C_10  and  C_11
REMARK    6  A    between atoms: N_13  and  C_14
REMARK    7  A    between atoms: C_14  and  C_15
REMARK                            x       y       z     vdW  Elec       q    Type
REMARK                         _______ _______ _______ _____ _____    ______ ____
ROOT
ATOM      1  C   UNL     1       3.368   2.848  19.884  0.00  0.00    +0.000 C 
ATOM      2  C   UNL     1       3.121   1.488  19.201  0.00  0.00    +0.000 C 
ATOM      3  N   UNL     1       2.867   1.827  17.833  0.00  0.00    +0.000 N 
ATOM      4  C   UNL     1       3.428   3.041  17.486  0.00  0.00    +0.000 C 
ATOM      5  O   UNL     1       3.452   3.485  16.351  0.00  0.00    +0.000 OA
ATOM      6  C   UNL     1       4.099   3.588  18.720  0.00  0.00    +0.000 C 
ATOM      7  H   UNL     1       2.434   1.234  17.135  0.00  0.00    +0.000 HD
ENDROOT
BRANCH   1   9
ATOM      8  C   UNL     1       1.469   2.519  21.586  0.00  0.00    +0.000 C 
ATOM      9  C   UNL     1       2.059   3.476  20.515  0.00  0.00    +0.000 C 
ATOM     10  C   UNL     1       0.948   3.749  19.483  0.00  0.00    +0.000 C 
ATOM     11  C   UNL     1       2.369   4.783  21.279  0.00  0.00    +0.000 C 
ENDBRANCH   1   9
BRANCH   6  12
ATOM     12  C   UNL     1       4.234   5.087  18.812  0.00  0.00    +0.000 C 
ATOM     13  O   UNL     1       5.067   5.665  19.496  0.00  0.00    +0.000 OA
ATOM     14  N   UNL     1       3.362   5.766  17.970  0.00  0.00    +0.000 N 
ATOM     15  H   UNL     1       2.519   5.286  17.677  0.00  0.00    +0.000 HD
BRANCH  14  16
ATOM     16  C   UNL     1       3.389   7.215  17.910  0.00  0.00    +0.000 C 
BRANCH  16  17
ATOM     17  C   UNL     1       2.116   7.896  18.434  0.00  0.00    +0.000 C 
ATOM     18  C   UNL     1       1.922   9.300  17.840  0.00  0.00    +0.000 C 
ATOM     19  C   UNL     1       0.711   9.991  18.451  0.00  0.00    +0.000 C 
ATOM     20  O   UNL     1       0.825  10.030  19.873  0.00  0.00    +0.000 OA
ATOM     21  C   UNL     1       0.836   8.721  20.442  0.00  0.00    +0.000 C 
ATOM     22  C   UNL     1       2.059   7.944  19.968  0.00  0.00    +0.000 C 
ENDBRANCH  16  17
ENDBRANCH  14  16
ENDBRANCH   6  12
TORSDOF 4
ENDMDL
MODEL 5
REMARK VINA RESULT:      -7.0      2.935      5.354
REMARK  Name = 
REMARK  7 active torsions:
REMARK  status: ('A' for Active; 'I' for Inactive)
REMARK    1  A    between atoms: C_1  and  C_2
REMARK    2  A    between atoms: C_2  and  C_3
REMARK    3  A    between atoms: C_2  and  C_4
REMARK    4  A    between atoms: C_2  and  C_5
REMARK    5  A    between atoms: C_10  and  C_11
REMARK    6  A    between atoms: N_13  and  C_14
REMARK    7  A    between atoms: C_14  and  C_15
REMARK                            x       y       z     vdW  Elec       q    Type
REMARK                         _______ _______ _______ _____ _____    ______ ____
ROOT
ATOM      1  C   UNL     1       4.403   5.572  16.676  0.00  0.00    +0.000 C 
ATOM      2  C   UNL     1       5.243   6.556  15.836  0.00  0.00    +0.000 C 
ATOM      3  N   UNL     1       6.545   6.495  16.427  0.00  0.00    +0.000 N 
ATOM      4  C   UNL     1       6.759   5.302  17.092  0.00  0.00    +0.000 C 
ATOM      5  O   UNL     1       7.829   4.967  17.570  0.00  0.00    +0.000 OA
ATOM      6  C   UNL     1       5.493   4.493  16.967  0.00  0.00    +0.000 C 
ATOM      7  H   UNL     1       7.294   7.166  16.307  0.00  0.00    +0.000 HD
ENDROOT
BRANCH   1   9
ATOM      8  C   UNL     1       3.445   7.778  17.583  0.00  0.00    +0.000 C 
ATOM      9  C   UNL     1       3.646   6.268  17.879  0.00  0.00    +0.000 C 
ATOM     10  C   UNL     1       4.394   6.161  19.222  0.00  0.00    +0.000 C 
ATOM     11  C   UNL     1       2.218   5.704  18.052  0.00  0.00    +0.000 C 
ENDBRANCH   1   9
BRANCH   6  12
ATOM     12  C   UNL     1       5.219   3.489  18.057  0.00  0.00    +0.000 C 
ATOM     13  O   UNL     1       5.705   3.536  19.179  0.00  0.00    +0.000 OA
ATOM     14  N   UNL     1       4.283   2.528  17.692  0.00  0.00    +0.000 N 
ATOM     15  H   UNL     1       4.154   2.348  16.704  0.00  0.00    +0.000 HD
BRANCH  14  16
ATOM     16  C   UNL     1       3.878   1.508  18.640  0.00  0.00    +0.000 C 
BRANCH  16  17
ATOM     17  C   UNL     1       2.571   1.818  19.386  0.00  0.00    +0.000 C 
ATOM     18  C   UNL     1       1.521   2.467  18.471  0.00  0.00    +0.000 C 
ATOM     19  C   UNL     1       0.275   2.855  19.256  0.00  0.00    +0.000 C 
ATOM     20  O   UNL     1       0.621   3.705  20.348  0.00  0.00    +0.000 OA
ATOM     21  C   UNL     1       1.466   3.045  21.290  0.00  0.00    +0.000 C 
ATOM     22  C   UNL     1       2.795   2.671  20.643  0.00  0.00    +0.000 C 
ENDBRANCH  16  17
ENDBRANCH  14  16
ENDBRANCH   6  12
TORSDOF 4
ENDMDL
MODEL 6
REMARK VINA RESULT:      -6.9      3.216      5.311
REMARK  Name = 
REMARK  7 active torsions:
REMARK  status: ('A' for Active; 'I' for Inactive)
REMARK    1  A    between atoms: C_1  and  C_2
REMARK    2  A    between atoms: C_2  and  C_3
REMARK    3  A    between atoms: C_2  and  C_4
REMARK    4  A    between atoms: C_2  and  C_5
REMARK    5  A    between atoms: C_10  and  C_11
REMARK    6  A    between atoms: N_13  and  C_14
REMARK    7  A    between atoms: C_14  and  C_15
REMARK                            x       y       z     vdW  Elec       q    Type
REMARK                         _______ _______ _______ _____ _____    ______ ____
ROOT
ATOM      1  C   UNL     1       2.637   3.847  20.114  0.00  0.00    +0.000 C 
ATOM      2  C   UNL     1       1.534   3.510  21.137  0.00  0.00    +0.000 C 
ATOM      3  N   UNL     1       0.458   3.011  20.336  0.00  0.00    +0.000 N 
ATOM      4  C   UNL     1       0.900   2.504  19.128  0.00  0.00    +0.000 C 
ATOM      5  O   UNL     1       0.190   1.915  18.332  0.00  0.00    +0.000 OA
ATOM      6  C   UNL     1       2.395   2.694  19.090  0.00  0.00    +0.000 C 
ATOM      7  H   UNL     1      -0.510   2.914  20.618  0.00  0.00    +0.000 HD
ENDROOT
BRANCH   1   9
ATOM      8  C   UNL     1       1.827   6.227  20.651  0.00  0.00    +0.000 C 
ATOM      9  C   UNL     1       2.597   5.352  19.626  0.00  0.00    +0.000 C 
ATOM     10  C   UNL     1       1.911   5.538  18.259  0.00  0.00    +0.000 C 
ATOM     11  C   UNL     1       4.014   5.966  19.566  0.00  0.00    +0.000 C 
ENDBRANCH   1   9
BRANCH   6  12
ATOM     12  C   UNL     1       3.029   2.815  17.728  0.00  0.00    +0.000 C 
ATOM     13  O   UNL     1       2.405   2.891  16.679  0.00  0.00    +0.000 OA
ATOM     14  N   UNL     1       4.415   2.913  17.778  0.00  0.00    +0.000 N 
ATOM     15  H   UNL     1       4.884   2.544  18.595  0.00  0.00    +0.000 HD
BRANCH  14  16
ATOM     16  C   UNL     1       5.178   3.072  16.555  0.00  0.00    +0.000 C 
BRANCH  16  17
ATOM     17  C   UNL     1       5.923   4.410  16.442  0.00  0.00    +0.000 C 
ATOM     18  C   UNL     1       6.793   4.696  17.675  0.00  0.00    +0.000 C 
ATOM     19  C   UNL     1       7.440   6.071  17.584  0.00  0.00    +0.000 C 
ATOM     20  O   UNL     1       6.446   7.077  17.395  0.00  0.00    +0.000 OA
ATOM     21  C   UNL     1       5.746   6.909  16.162  0.00  0.00    +0.000 C 
ATOM     22  C   UNL     1       4.981   5.590  16.158  0.00  0.00    +0.000 C 
ENDBRANCH  16  17
ENDBRANCH  14  16
ENDBRANCH   6  12
TORSDOF 4
ENDMDL
MODEL 7
REMARK VINA RESULT:      -6.9      1.446      1.701
REMARK  Name = 
REMARK  7 active torsions:
REMARK  status: ('A' for Active; 'I' for Inactive)
REMARK    1  A    between atoms: C_1  and  C_2
REMARK    2  A    between atoms: C_2  and  C_3
REMARK    3  A    between atoms: C_2  and  C_4
REMARK    4  A    between atoms: C_2  and  C_5
REMARK    5  A    between atoms: C_10  and  C_11
REMARK    6  A    between atoms: N_13  and  C_14
REMARK    7  A    between atoms: C_14  and  C_15
REMARK                            x       y       z     vdW  Elec       q    Type
REMARK                         _______ _______ _______ _____ _____    ______ ____
ROOT
ATOM      1  C   UNL     1       3.284   3.746  20.139  0.00  0.00    +0.000 C 
ATOM      2  C   UNL     1       4.291   2.579  20.141  0.00  0.00    +0.000 C 
ATOM      3  N   UNL     1       4.444   2.250  18.757  0.00  0.00    +0.000 N 
ATOM      4  C   UNL     1       4.142   3.317  17.932  0.00  0.00    +0.000 C 
ATOM      5  O   UNL     1       4.313   3.319  16.725  0.00  0.00    +0.000 OA
ATOM      6  C   UNL     1       3.724   4.459  18.822  0.00  0.00    +0.000 C 
ATOM      7  H   UNL     1       4.833   1.393  18.379  0.00  0.00    +0.000 HD
ENDROOT
BRANCH   1   9
ATOM      8  C   UNL     1       1.624   2.471  21.631  0.00  0.00    +0.000 C 
ATOM      9  C   UNL     1       1.782   3.275  20.314  0.00  0.00    +0.000 C 
ATOM     10  C   UNL     1       1.282   2.378  19.166  0.00  0.00    +0.000 C 
ATOM     11  C   UNL     1       0.825   4.479  20.466  0.00  0.00    +0.000 C 
ENDBRANCH   1   9
BRANCH   6  12
ATOM     12  C   UNL     1       2.788   5.478  18.224  0.00  0.00    +0.000 C 
ATOM     13  O   UNL     1       1.830   5.205  17.514  0.00  0.00    +0.000 OA
ATOM     14  N   UNL     1       3.070   6.779  18.625  0.00  0.00    +0.000 N 
ATOM     15  H   UNL     1       4.011   6.983  18.937  0.00  0.00    +0.000 HD
BRANCH  14  16
ATOM     16  C   UNL     1       2.240   7.877  18.168  0.00  0.00    +0.000 C 
BRANCH  16  17
ATOM     17  C   UNL     1       1.778   8.829  19.282  0.00  0.00    +0.000 C 
ATOM     18  C   UNL     1       1.489   8.088  20.596  0.00  0.00    +0.000 C 
ATOM     19  C   UNL     1       0.938   9.036  21.651  0.00  0.00    +0.000 C 
ATOM     20  O   UNL     1      -0.220   9.709  21.159  0.00  0.00    +0.000 OA
ATOM     21  C   UNL     1       0.081  10.534  20.034  0.00  0.00    +0.000 C 
ATOM     22  C   UNL     1       0.572   9.685  18.867  0.00  0.00    +0.000 C 
ENDBRANCH  16  17
ENDBRANCH  14  16
ENDBRANCH   6  12
TORSDOF 4
ENDMDL
MODEL 8
REMARK VINA RESULT:      -6.9      1.711      2.670
REMARK  Name = 
REMARK  7 active torsions:
REMARK  status: ('A' for Active; 'I' for Inactive)
REMARK    1  A    between atoms: C_1  and  C_2
REMARK    2  A    between atoms: C_2  and  C_3
REMARK    3  A    between atoms: C_2  and  C_4
REMARK    4  A    between atoms: C_2  and  C_5
REMARK    5  A    between atoms: C_10  and  C_11
REMARK    6  A    between atoms: N_13  and  C_14
REMARK    7  A    between atoms: C_14  and  C_15
REMARK                            x       y       z     vdW  Elec       q    Type
REMARK                         _______ _______ _______ _____ _____    ______ ____
ROOT
ATOM      1  C   UNL     1       3.163   2.771  19.828  0.00  0.00    +0.000 C 
ATOM      2  C   UNL     1       2.705   1.455  19.169  0.00  0.00    +0.000 C 
ATOM      3  N   UNL     1       2.238   1.856  17.877  0.00  0.00    +0.000 N 
ATOM      4  C   UNL     1       2.814   3.042  17.461  0.00  0.00    +0.000 C 
ATOM      5  O   UNL     1       2.668   3.521  16.350  0.00  0.00    +0.000 OA
ATOM      6  C   UNL     1       3.728   3.502  18.569  0.00  0.00    +0.000 C 
ATOM      7  H   UNL     1       1.648   1.317  17.254  0.00  0.00    +0.000 HD
ENDROOT
BRANCH   1   9
ATOM      8  C   UNL     1       0.812   3.810  19.803  0.00  0.00    +0.000 C 
ATOM      9  C   UNL     1       2.033   3.461  20.695  0.00  0.00    +0.000 C 
ATOM     10  C   UNL     1       2.489   4.766  21.376  0.00  0.00    +0.000 C 
ATOM     11  C   UNL     1       1.477   2.501  21.770  0.00  0.00    +0.000 C 
ENDBRANCH   1   9
BRANCH   6  12
ATOM     12  C   UNL     1       3.982   4.984  18.668  0.00  0.00    +0.000 C 
ATOM     13  O   UNL     1       4.922   5.485  19.269  0.00  0.00    +0.000 OA
ATOM     14  N   UNL     1       3.079   5.744  17.934  0.00  0.00    +0.000 N 
ATOM     15  H   UNL     1       2.178   5.332  17.724  0.00  0.00    +0.000 HD
BRANCH  14  16
ATOM     16  C   UNL     1       3.206   7.188  17.892  0.00  0.00    +0.000 C 
BRANCH  16  17
ATOM     17  C   UNL     1       1.999   7.948  18.459  0.00  0.00    +0.000 C 
ATOM     18  C   UNL     1       1.885   9.368  17.885  0.00  0.00    +0.000 C 
ATOM     19  C   UNL     1       0.742  10.134  18.538  0.00  0.00    +0.000 C 
ATOM     20  O   UNL     1       0.899  10.148  19.956  0.00  0.00    +0.000 OA
ATOM     21  C   UNL     1       0.836   8.835  20.512  0.00  0.00    +0.000 C 
ATOM     22  C   UNL     1       1.989   7.982  19.995  0.00  0.00    +0.000 C 
ENDBRANCH  16  17
ENDBRANCH  14  16
ENDBRANCH   6  12
TORSDOF 4
ENDMDL
MODEL 9
REMARK VINA RESULT:      -6.8      3.126      5.973
REMARK  Name = 
REMARK  7 active torsions:
REMARK  status: ('A' for Active; 'I' for Inactive)
REMARK    1  A    between atoms: C_1  and  C_2
REMARK    2  A    between atoms: C_2  and  C_3
REMARK    3  A    between atoms: C_2  and  C_4
REMARK    4  A    between atoms: C_2  and  C_5
REMARK    5  A    between atoms: C_10  and  C_11
REMARK    6  A    between atoms: N_13  and  C_14
REMARK    7  A    between atoms: C_14  and  C_15
REMARK                            x       y       z     vdW  Elec       q    Type
REMARK                         _______ _______ _______ _____ _____    ______ ____
ROOT
ATOM      1  C   UNL     1       2.461   4.565  20.471  0.00  0.00    +0.000 C 
ATOM      2  C   UNL     1       0.985   4.365  20.872  0.00  0.00    +0.000 C 
ATOM      3  N   UNL     1       0.490   3.422  19.916  0.00  0.00    +0.000 N 
ATOM      4  C   UNL     1       1.500   2.649  19.376  0.00  0.00    +0.000 C 
ATOM      5  O   UNL     1       1.314   1.700  18.634  0.00  0.00    +0.000 OA
ATOM      6  C   UNL     1       2.793   3.116  19.994  0.00  0.00    +0.000 C 
ATOM      7  H   UNL     1      -0.483   3.228  19.708  0.00  0.00    +0.000 HD
ENDROOT
BRANCH   1   9
ATOM      8  C   UNL     1       2.047   7.072  20.082  0.00  0.00    +0.000 C 
ATOM      9  C   UNL     1       2.680   5.785  19.487  0.00  0.00    +0.000 C 
ATOM     10  C   UNL     1       2.058   5.572  18.094  0.00  0.00    +0.000 C 
ATOM     11  C   UNL     1       4.179   6.120  19.323  0.00  0.00    +0.000 C 
ENDBRANCH   1   9
BRANCH   6  12
ATOM     12  C   UNL     1       4.047   2.910  19.183  0.00  0.00    +0.000 C 
ATOM     13  O   UNL     1       5.148   2.676  19.661  0.00  0.00    +0.000 OA
ATOM     14  N   UNL     1       3.820   2.932  17.812  0.00  0.00    +0.000 N 
ATOM     15  H   UNL     1       2.998   3.420  17.478  0.00  0.00    +0.000 HD
BRANCH  14  16
ATOM     16  C   UNL     1       4.917   2.713  16.889  0.00  0.00    +0.000 C 
BRANCH  16  17
ATOM     17  C   UNL     1       5.495   3.995  16.273  0.00  0.00    +0.000 C 
ATOM     18  C   UNL     1       6.058   3.759  14.863  0.00  0.00    +0.000 C 
ATOM     19  C   UNL     1       6.713   5.020  14.316  0.00  0.00    +0.000 C 
ATOM     20  O   UNL     1       7.718   5.487  15.215  0.00  0.00    +0.000 OA
ATOM     21  C   UNL     1       7.170   5.868  16.476  0.00  0.00    +0.000 C 
ATOM     22  C   UNL     1       6.547   4.662  17.172  0.00  0.00    +0.000 C 
ENDBRANCH  16  17
ENDBRANCH  14  16
ENDBRANCH   6  12
TORSDOF 4
ENDMDL
