MODEL 1
REMARK VINA RESULT:      -6.6      0.000      0.000
REMARK  Name = 
REMARK  1 active torsions:
REMARK  status: ('A' for Active; 'I' for Inactive)
REMARK    1  A    between atoms: C_1  and  C_2
REMARK                            x       y       z     vdW  Elec       q    Type
REMARK                         _______ _______ _______ _____ _____    ______ ____
ROOT
ATOM      1  C   UNL     1       2.217   7.677  18.974  0.00  0.00    +0.000 C 
ATOM      2  C   UNL     1       3.176   6.942  18.123  0.00  0.00    +0.000 A 
ATOM      3  N   UNL     1       4.022   7.535  17.301  0.00  0.00    +0.000 NA
ATOM      4  N   UNL     1       4.762   6.577  16.667  0.00  0.00    +0.000 NA
ATOM      5  C   UNL     1       4.360   5.407  17.109  0.00  0.00    +0.000 A 
ATOM      6  C   UNL     1       4.846   4.112  16.730  0.00  0.00    +0.000 A 
ATOM      7  S   UNL     1       6.059   3.881  15.615  0.00  0.00    +0.000 S 
ATOM      8  N   UNL     1       4.248   3.039  17.350  0.00  0.00    +0.000 N 
ATOM      9  C   UNL     1       3.219   3.183  18.299  0.00  0.00    +0.000 A 
ATOM     10  C   UNL     1       2.677   2.031  18.868  0.00  0.00    +0.000 A 
ATOM     11  C   UNL     1       1.656   2.142  19.811  0.00  0.00    +0.000 A 
ATOM     12  C   UNL     1       1.182   3.401  20.179  0.00  0.00    +0.000 A 
ATOM     13  C   UNL     1       1.720   4.562  19.612  0.00  0.00    +0.000 A 
ATOM     14  C   UNL     1       2.742   4.459  18.668  0.00  0.00    +0.000 A 
ATOM     15  N   UNL     1       3.352   5.572  18.037  0.00  0.00    +0.000 N 
ATOM     16  H   UNL     1       4.580   2.116  17.094  0.00  0.00    +0.000 HD
ENDROOT
TORSDOF 0
ENDMDL
MODEL 2
REMARK VINA RESULT:      -6.5      1.364      1.364
REMARK  Name = 
REMARK  1 active torsions:
REMARK  status: ('A' for Active; 'I' for Inactive)
REMARK    1  A    between atoms: C_1  and  C_2
REMARK                            x       y       z     vdW  Elec       q    Type
REMARK                         _______ _______ _______ _____ _____    ______ ____
ROOT
ATOM      1  C   UNL     1       1.984   7.593  18.205  0.00  0.00    +0.000 C 
ATOM      2  C   UNL     1       3.313   7.005  17.937  0.00  0.00    +0.000 A 
ATOM      3  N   UNL     1       4.216   7.572  17.158  0.00  0.00    +0.000 NA
ATOM      4  N   UNL     1       5.327   6.776  17.122  0.00  0.00    +0.000 NA
ATOM      5  C   UNL     1       5.091   5.730  17.881  0.00  0.00    +0.000 A 
ATOM      6  C   UNL     1       5.965   4.625  18.148  0.00  0.00    +0.000 A 
ATOM      7  S   UNL     1       7.494   4.493  17.504  0.00  0.00    +0.000 S 
ATOM      8  N   UNL     1       5.468   3.653  18.984  0.00  0.00    +0.000 N 
ATOM      9  C   UNL     1       4.183   3.719  19.552  0.00  0.00    +0.000 A 
ATOM     10  C   UNL     1       3.773   2.680  20.388  0.00  0.00    +0.000 A 
ATOM     11  C   UNL     1       2.504   2.718  20.964  0.00  0.00    +0.000 A 
ATOM     12  C   UNL     1       1.652   3.791  20.705  0.00  0.00    +0.000 A 
ATOM     13  C   UNL     1       2.056   4.838  19.868  0.00  0.00    +0.000 A 
ATOM     14  C   UNL     1       3.325   4.808  19.286  0.00  0.00    +0.000 A 
ATOM     15  N   UNL     1       3.826   5.817  18.427  0.00  0.00    +0.000 N 
ATOM     16  H   UNL     1       6.073   2.864  19.184  0.00  0.00    +0.000 HD
ENDROOT
TORSDOF 0
ENDMDL
MODEL 3
REMARK VINA RESULT:      -6.5      2.616      3.563
REMARK  Name = 
REMARK  1 active torsions:
REMARK  status: ('A' for Active; 'I' for Inactive)
REMARK    1  A    between atoms: C_1  and  C_2
REMARK                            x       y       z     vdW  Elec       q    Type
REMARK                         _______ _______ _______ _____ _____    ______ ____
ROOT
ATOM      1  C   UNL     1       5.244   4.050  14.098  0.00  0.00    +0.000 C 
ATOM      2  C   UNL     1       6.024   4.552  15.249  0.00  0.00    +0.000 A 
ATOM      3  N   UNL     1       7.174   5.190  15.125  0.00  0.00    +0.000 NA
ATOM      4  N   UNL     1       7.630   5.516  16.372  0.00  0.00    +0.000 NA
ATOM      5  C   UNL     1       6.753   5.075  17.245  0.00  0.00    +0.000 A 
ATOM      6  C   UNL     1       6.805   5.186  18.673  0.00  0.00    +0.000 A 
ATOM      7  S   UNL     1       8.050   5.931  19.488  0.00  0.00    +0.000 S 
ATOM      8  N   UNL     1       5.748   4.634  19.359  0.00  0.00    +0.000 N 
ATOM      9  C   UNL     1       4.673   3.994  18.716  0.00  0.00    +0.000 A 
ATOM     10  C   UNL     1       3.650   3.465  19.504  0.00  0.00    +0.000 A 
ATOM     11  C   UNL     1       2.572   2.824  18.895  0.00  0.00    +0.000 A 
ATOM     12  C   UNL     1       2.520   2.715  17.506  0.00  0.00    +0.000 A 
ATOM     13  C   UNL     1       3.542   3.243  16.708  0.00  0.00    +0.000 A 
ATOM     14  C   UNL     1       4.625   3.886  17.310  0.00  0.00    +0.000 A 
ATOM     15  N   UNL     1       5.708   4.452  16.592  0.00  0.00    +0.000 N 
ATOM     16  H   UNL     1       5.769   4.703  20.371  0.00  0.00    +0.000 HD
ENDROOT
TORSDOF 0
ENDMDL
MODEL 4
REMARK VINA RESULT:      -6.4      2.137      3.985
REMARK  Name = 
REMARK  1 active torsions:
REMARK  status: ('A' for Active; 'I' for Inactive)
REMARK    1  A    between atoms: C_1  and  C_2
REMARK                            x       y       z     vdW  Elec       q    Type
REMARK                         _______ _______ _______ _____ _____    ______ ____
ROOT
ATOM      1  C   UNL     1       2.774   8.129  17.932  0.00  0.00    +0.000 C 
ATOM      2  C   UNL     1       2.926   6.836  18.632  0.00  0.00    +0.000 A 
ATOM      3  N   UNL     1       2.315   6.547  19.766  0.00  0.00    +0.000 NA
ATOM      4  N   UNL     1       2.666   5.281  20.143  0.00  0.00    +0.000 NA
ATOM      5  C   UNL     1       3.488   4.809  19.234  0.00  0.00    +0.000 A 
ATOM      6  C   UNL     1       4.118   3.521  19.205  0.00  0.00    +0.000 A 
ATOM      7  S   UNL     1       3.890   2.365  20.380  0.00  0.00    +0.000 S 
ATOM      8  N   UNL     1       4.941   3.277  18.130  0.00  0.00    +0.000 N 
ATOM      9  C   UNL     1       5.165   4.222  17.112  0.00  0.00    +0.000 A 
ATOM     10  C   UNL     1       6.020   3.877  16.064  0.00  0.00    +0.000 A 
ATOM     11  C   UNL     1       6.262   4.793  15.042  0.00  0.00    +0.000 A 
ATOM     12  C   UNL     1       5.652   6.046  15.069  0.00  0.00    +0.000 A 
ATOM     13  C   UNL     1       4.793   6.400  16.116  0.00  0.00    +0.000 A 
ATOM     14  C   UNL     1       4.545   5.489  17.144  0.00  0.00    +0.000 A 
ATOM     15  N   UNL     1       3.694   5.752  18.246  0.00  0.00    +0.000 N 
ATOM     16  H   UNL     1       5.394   2.371  18.093  0.00  0.00    +0.000 HD
ENDROOT
TORSDOF 0
ENDMDL
MODEL 5
REMARK VINA RESULT:      -6.4      2.593      4.882
REMARK  Name = 
REMARK  1 active torsions:
REMARK  status: ('A' for Active; 'I' for Inactive)
REMARK    1  A    between atoms: C_1  and  C_2
REMARK                            x       y       z     vdW  Elec       q    Type
REMARK                         _______ _______ _______ _____ _____    ______ ____
ROOT
ATOM      1  C   UNL     1       2.433   1.854  18.733  0.00  0.00    +0.000 C 
ATOM      2  C   UNL     1       2.143   3.203  19.261  0.00  0.00    +0.000 A 
ATOM      3  N   UNL     1       1.314   3.429  20.264  0.00  0.00    +0.000 NA
ATOM      4  N   UNL     1       1.271   4.774  20.504  0.00  0.00    +0.000 NA
ATOM      5  C   UNL     1       2.076   5.357  19.644  0.00  0.00    +0.000 A 
ATOM      6  C   UNL     1       2.355   6.757  19.515  0.00  0.00    +0.000 A 
ATOM      7  S   UNL     1       1.666   7.920  20.485  0.00  0.00    +0.000 S 
ATOM      8  N   UNL     1       3.243   7.105  18.524  0.00  0.00    +0.000 N 
ATOM      9  C   UNL     1       3.851   6.159  17.678  0.00  0.00    +0.000 A 
ATOM     10  C   UNL     1       4.738   6.615  16.703  0.00  0.00    +0.000 A 
ATOM     11  C   UNL     1       5.354   5.702  15.850  0.00  0.00    +0.000 A 
ATOM     12  C   UNL     1       5.084   4.340  15.974  0.00  0.00    +0.000 A 
ATOM     13  C   UNL     1       4.195   3.873  16.949  0.00  0.00    +0.000 A 
ATOM     14  C   UNL     1       3.573   4.782  17.808  0.00  0.00    +0.000 A 
ATOM     15  N   UNL     1       2.660   4.410  18.826  0.00  0.00    +0.000 N 
ATOM     16  H   UNL     1       3.452   8.092  18.418  0.00  0.00    +0.000 HD
ENDROOT
TORSDOF 0
ENDMDL
MODEL 6
REMARK VINA RESULT:      -6.3      1.922      3.251
REMARK  Name = 
REMARK  1 active torsions:
REMARK  status: ('A' for Active; 'I' for Inactive)
REMARK    1  A    between atoms: C_1  and  C_2
REMARK                            x       y       z     vdW  Elec       q    Type
REMARK                         _______ _______ _______ _____ _____    ______ ____
ROOT
ATOM      1  C   UNL     1       6.073   3.725  15.682  0.00  0.00    +0.000 C 
ATOM      2  C   UNL     1       5.342   4.918  16.157  0.00  0.00    +0.000 A 
ATOM      3  N   UNL     1       5.628   6.148  15.770  0.00  0.00    +0.000 NA
ATOM      4  N   UNL     1       4.771   7.014  16.390  0.00  0.00    +0.000 NA
ATOM      5  C   UNL     1       3.968   6.303  17.150  0.00  0.00    +0.000 A 
ATOM      6  C   UNL     1       2.907   6.777  17.988  0.00  0.00    +0.000 A 
ATOM      7  S   UNL     1       2.505   8.385  18.134  0.00  0.00    +0.000 S 
ATOM      8  N   UNL     1       2.214   5.814  18.685  0.00  0.00    +0.000 N 
ATOM      9  C   UNL     1       2.515   4.443  18.595  0.00  0.00    +0.000 A 
ATOM     10  C   UNL     1       1.753   3.547  19.344  0.00  0.00    +0.000 A 
ATOM     11  C   UNL     1       2.029   2.182  19.276  0.00  0.00    +0.000 A 
ATOM     12  C   UNL     1       3.062   1.719  18.462  0.00  0.00    +0.000 A 
ATOM     13  C   UNL     1       3.832   2.612  17.707  0.00  0.00    +0.000 A 
ATOM     14  C   UNL     1       3.562   3.980  17.769  0.00  0.00    +0.000 A 
ATOM     15  N   UNL     1       4.282   4.963  17.045  0.00  0.00    +0.000 N 
ATOM     16  H   UNL     1       1.459   6.132  19.283  0.00  0.00    +0.000 HD
ENDROOT
TORSDOF 0
ENDMDL
MODEL 7
REMARK VINA RESULT:      -6.3      1.254      1.364
REMARK  Name = 
REMARK  1 active torsions:
REMARK  status: ('A' for Active; 'I' for Inactive)
REMARK    1  A    between atoms: C_1  and  C_2
REMARK                            x       y       z     vdW  Elec       q    Type
REMARK                         _______ _______ _______ _____ _____    ______ ____
ROOT
ATOM      1  C   UNL     1       1.632   7.883  20.178  0.00  0.00    +0.000 C 
ATOM      2  C   UNL     1       2.507   7.349  19.113  0.00  0.00    +0.000 A 
ATOM      3  N   UNL     1       2.933   8.070  18.092  0.00  0.00    +0.000 NA
ATOM      4  N   UNL     1       3.718   7.282  17.296  0.00  0.00    +0.000 NA
ATOM      5  C   UNL     1       3.764   6.088  17.841  0.00  0.00    +0.000 A 
ATOM      6  C   UNL     1       4.465   4.932  17.363  0.00  0.00    +0.000 A 
ATOM      7  S   UNL     1       5.378   4.928  15.971  0.00  0.00    +0.000 S 
ATOM      8  N   UNL     1       4.347   3.796  18.129  0.00  0.00    +0.000 N 
ATOM      9  C   UNL     1       3.588   3.750  19.313  0.00  0.00    +0.000 A 
ATOM     10  C   UNL     1       3.531   2.547  20.017  0.00  0.00    +0.000 A 
ATOM     11  C   UNL     1       2.786   2.471  21.192  0.00  0.00    +0.000 A 
ATOM     12  C   UNL     1       2.103   3.593  21.659  0.00  0.00    +0.000 A 
ATOM     13  C   UNL     1       2.154   4.804  20.958  0.00  0.00    +0.000 A 
ATOM     14  C   UNL     1       2.898   4.889  19.780  0.00  0.00    +0.000 A 
ATOM     15  N   UNL     1       3.013   6.066  18.999  0.00  0.00    +0.000 N 
ATOM     16  H   UNL     1       4.838   2.969  17.806  0.00  0.00    +0.000 HD
ENDROOT
TORSDOF 0
ENDMDL
MODEL 8
REMARK VINA RESULT:      -6.2      1.469      3.903
REMARK  Name = 
REMARK  1 active torsions:
REMARK  status: ('A' for Active; 'I' for Inactive)
REMARK    1  A    between atoms: C_1  and  C_2
REMARK                            x       y       z     vdW  Elec       q    Type
REMARK                         _______ _______ _______ _____ _____    ______ ____
ROOT
ATOM      1  C   UNL     1       2.096   3.095  21.574  0.00  0.00    +0.000 C 
ATOM      2  C   UNL     1       2.850   3.197  20.307  0.00  0.00    +0.000 A 
ATOM      3  N   UNL     1       3.491   2.180  19.759  0.00  0.00    +0.000 NA
ATOM      4  N   UNL     1       4.079   2.606  18.600  0.00  0.00    +0.000 NA
ATOM      5  C   UNL     1       3.791   3.879  18.453  0.00  0.00    +0.000 A 
ATOM      6  C   UNL     1       4.191   4.750  17.387  0.00  0.00    +0.000 A 
ATOM      7  S   UNL     1       5.129   4.256  16.104  0.00  0.00    +0.000 S 
ATOM      8  N   UNL     1       3.749   6.050  17.474  0.00  0.00    +0.000 N 
ATOM      9  C   UNL     1       2.955   6.516  18.537  0.00  0.00    +0.000 A 
ATOM     10  C   UNL     1       2.560   7.854  18.533  0.00  0.00    +0.000 A 
ATOM     11  C   UNL     1       1.773   8.344  19.574  0.00  0.00    +0.000 A 
ATOM     12  C   UNL     1       1.385   7.498  20.612  0.00  0.00    +0.000 A 
ATOM     13  C   UNL     1       1.776   6.154  20.624  0.00  0.00    +0.000 A 
ATOM     14  C   UNL     1       2.564   5.656  19.586  0.00  0.00    +0.000 A 
ATOM     15  N   UNL     1       3.012   4.313  19.506  0.00  0.00    +0.000 N 
ATOM     16  H   UNL     1       4.022   6.681  16.728  0.00  0.00    +0.000 HD
ENDROOT
TORSDOF 0
ENDMDL
MODEL 9
REMARK VINA RESULT:      -6.1      2.456      4.651
REMARK  Name = 
REMARK  1 active torsions:
REMARK  status: ('A' for Active; 'I' for Inactive)
REMARK    1  A    between atoms: C_1  and  C_2
REMARK                            x       y       z     vdW  Elec       q    Type
REMARK                         _______ _______ _______ _____ _____    ______ ____
ROOT
ATOM      1  C   UNL     1       4.843   5.628  16.311  0.00  0.00    +0.000 C 
ATOM      2  C   UNL     1       4.323   4.955  17.520  0.00  0.00    +0.000 A 
ATOM      3  N   UNL     1       4.614   3.707  17.839  0.00  0.00    +0.000 NA
ATOM      4  N   UNL     1       3.977   3.393  19.008  0.00  0.00    +0.000 NA
ATOM      5  C   UNL     1       3.304   4.455  19.391  0.00  0.00    +0.000 A 
ATOM      6  C   UNL     1       2.485   4.599  20.558  0.00  0.00    +0.000 A 
ATOM      7  S   UNL     1       2.250   3.380  21.667  0.00  0.00    +0.000 S 
ATOM      8  N   UNL     1       1.886   5.826  20.726  0.00  0.00    +0.000 N 
ATOM      9  C   UNL     1       2.054   6.887  19.817  0.00  0.00    +0.000 A 
ATOM     10  C   UNL     1       1.401   8.092  20.078  0.00  0.00    +0.000 A 
ATOM     11  C   UNL     1       1.548   9.160  19.195  0.00  0.00    +0.000 A 
ATOM     12  C   UNL     1       2.343   9.022  18.059  0.00  0.00    +0.000 A 
ATOM     13  C   UNL     1       3.001   7.816  17.789  0.00  0.00    +0.000 A 
ATOM     14  C   UNL     1       2.860   6.741  18.668  0.00  0.00    +0.000 A 
ATOM     15  N   UNL     1       3.483   5.481  18.485  0.00  0.00    +0.000 N 
ATOM     16  H   UNL     1       1.303   5.945  21.547  0.00  0.00    +0.000 HD
ENDROOT
TORSDOF 0
ENDMDL
