MODEL 1
REMARK VINA RESULT:      -8.6      0.000      0.000
REMARK  Name = 
REMARK  5 active torsions:
REMARK  status: ('A' for Active; 'I' for Inactive)
REMARK    1  A    between atoms: C_2  and  C_20
REMARK    2  A    between atoms: N_3  and  N_4
REMARK    3  A    between atoms: N_4  and  C_5
REMARK    4  A    between atoms: C_5  and  N_7
REMARK    5  A    between atoms: C_8  and  C_10
REMARK                            x       y       z     vdW  Elec       q    Type
REMARK                         _______ _______ _______ _____ _____    ______ ____
ROOT
ATOM      1  C   UNL     1       6.977   6.041  16.704  0.00  0.00    +0.000 C 
ATOM      2  S   UNL     1       7.443   7.432  17.519  0.00  0.00    +0.000 S 
ENDROOT
BRANCH   1   3
ATOM      3  N   UNL     1       5.864   5.366  17.154  0.00  0.00    +0.000 N 
ATOM      4  C   UNL     1       5.697   4.670  18.345  0.00  0.00    +0.000 C 
ATOM      5  O   UNL     1       6.626   4.469  19.125  0.00  0.00    +0.000 OA
ATOM      6  H   UNL     1       5.054   5.504  16.568  0.00  0.00    +0.000 HD
BRANCH   4   7
ATOM      7  C   UNL     1       4.269   4.142  18.602  0.00  0.00    +0.000 C 
ATOM      8  C   UNL     1       3.729   3.430  17.339  0.00  0.00    +0.000 C 
ATOM      9  C   UNL     1       2.315   2.875  17.589  0.00  0.00    +0.000 C 
ATOM     10  C   UNL     1       2.361   1.866  18.746  0.00  0.00    +0.000 C 
ATOM     11  C   UNL     1       2.869   2.553  20.023  0.00  0.00    +0.000 C 
ATOM     12  C   UNL     1       1.921   3.706  20.386  0.00  0.00    +0.000 C 
ATOM     13  C   UNL     1       1.879   4.731  19.241  0.00  0.00    +0.000 C 
ATOM     14  C   UNL     1       1.377   4.036  17.963  0.00  0.00    +0.000 C 
ATOM     15  C   UNL     1       3.296   5.285  18.994  0.00  0.00    +0.000 C 
ATOM     16  C   UNL     1       4.280   3.116  19.768  0.00  0.00    +0.000 C 
ENDBRANCH   4   7
ENDBRANCH   1   3
BRANCH   1  17
ATOM     17  N   UNL     1       7.640   5.512  15.626  0.00  0.00    +0.000 N 
ATOM     18  H   UNL     1       8.467   5.988  15.243  0.00  0.00    +0.000 HD
BRANCH  17  21
ATOM     19  O   UNL     1       7.926   5.501  12.869  0.00  0.00    +0.000 OA
ATOM     20  C   UNL     1       7.164   4.706  13.409  0.00  0.00    +0.000 C 
ATOM     21  N   UNL     1       7.003   4.596  14.778  0.00  0.00    +0.000 N 
ATOM     22  H   UNL     1       6.471   3.849  15.217  0.00  0.00    +0.000 HD
BRANCH  20  23
ATOM     23  C   UNL     1       6.351   3.772  12.588  0.00  0.00    +0.000 A 
ATOM     24  C   UNL     1       6.986   2.701  11.962  0.00  0.00    +0.000 A 
ATOM     25  C   UNL     1       6.215   1.845  11.198  0.00  0.00    +0.000 A 
ATOM     26  N   UNL     1       4.886   2.000  11.014  0.00  0.00    +0.000 NA
ATOM     27  C   UNL     1       4.301   3.060  11.607  0.00  0.00    +0.000 A 
ATOM     28  C   UNL     1       4.981   3.971  12.397  0.00  0.00    +0.000 A 
ENDBRANCH  20  23
ENDBRANCH  17  21
ENDBRANCH   1  17
TORSDOF 5
ENDMDL
MODEL 2
REMARK VINA RESULT:      -8.5      1.430      1.604
REMARK  Name = 
REMARK  5 active torsions:
REMARK  status: ('A' for Active; 'I' for Inactive)
REMARK    1  A    between atoms: C_2  and  C_20
REMARK    2  A    between atoms: N_3  and  N_4
REMARK    3  A    between atoms: N_4  and  C_5
REMARK    4  A    between atoms: C_5  and  N_7
REMARK    5  A    between atoms: C_8  and  C_10
REMARK                            x       y       z     vdW  Elec       q    Type
REMARK                         _______ _______ _______ _____ _____    ______ ____
ROOT
ATOM      1  C   UNL     1       6.178   6.424  17.239  0.00  0.00    +0.000 C 
ATOM      2  S   UNL     1       7.588   6.882  18.025  0.00  0.00    +0.000 S 
ENDROOT
BRANCH   1   3
ATOM      3  N   UNL     1       5.263   5.666  17.936  0.00  0.00    +0.000 N 
ATOM      4  C   UNL     1       3.909   5.908  18.129  0.00  0.00    +0.000 C 
ATOM      5  O   UNL     1       3.370   6.954  17.773  0.00  0.00    +0.000 OA
ATOM      6  H   UNL     1       5.636   4.779  18.243  0.00  0.00    +0.000 HD
BRANCH   4   7
ATOM      7  C   UNL     1       3.137   4.780  18.849  0.00  0.00    +0.000 C 
ATOM      8  C   UNL     1       1.955   4.301  17.972  0.00  0.00    +0.000 C 
ATOM      9  C   UNL     1       1.191   3.159  18.665  0.00  0.00    +0.000 C 
ATOM     10  C   UNL     1       2.145   1.977  18.901  0.00  0.00    +0.000 C 
ATOM     11  C   UNL     1       3.317   2.418  19.791  0.00  0.00    +0.000 C 
ATOM     12  C   UNL     1       2.768   2.910  21.139  0.00  0.00    +0.000 C 
ATOM     13  C   UNL     1       1.823   4.102  20.918  0.00  0.00    +0.000 C 
ATOM     14  C   UNL     1       0.656   3.658  20.019  0.00  0.00    +0.000 C 
ATOM     15  C   UNL     1       2.592   5.244  20.224  0.00  0.00    +0.000 C 
ATOM     16  C   UNL     1       4.074   3.568  19.101  0.00  0.00    +0.000 C 
ENDBRANCH   4   7
ENDBRANCH   1   3
BRANCH   1  17
ATOM     17  N   UNL     1       5.877   6.735  15.937  0.00  0.00    +0.000 N 
ATOM     18  H   UNL     1       5.534   7.674  15.696  0.00  0.00    +0.000 HD
BRANCH  17  21
ATOM     19  O   UNL     1       7.850   5.367  14.552  0.00  0.00    +0.000 OA
ATOM     20  C   UNL     1       6.668   5.135  14.323  0.00  0.00    +0.000 C 
ATOM     21  N   UNL     1       5.618   5.721  15.005  0.00  0.00    +0.000 N 
ATOM     22  H   UNL     1       4.651   5.425  14.898  0.00  0.00    +0.000 HD
BRANCH  20  23
ATOM     23  C   UNL     1       6.288   4.162  13.267  0.00  0.00    +0.000 A 
ATOM     24  C   UNL     1       7.291   3.593  12.485  0.00  0.00    +0.000 A 
ATOM     25  C   UNL     1       6.918   2.693  11.504  0.00  0.00    +0.000 A 
ATOM     26  N   UNL     1       5.635   2.348  11.254  0.00  0.00    +0.000 NA
ATOM     27  C   UNL     1       4.682   2.935  12.006  0.00  0.00    +0.000 A 
ATOM     28  C   UNL     1       4.950   3.842  13.017  0.00  0.00    +0.000 A 
ENDBRANCH  20  23
ENDBRANCH  17  21
ENDBRANCH   1  17
TORSDOF 5
ENDMDL
MODEL 3
REMARK VINA RESULT:      -8.5      1.368      2.029
REMARK  Name = 
REMARK  5 active torsions:
REMARK  status: ('A' for Active; 'I' for Inactive)
REMARK    1  A    between atoms: C_2  and  C_20
REMARK    2  A    between atoms: N_3  and  N_4
REMARK    3  A    between atoms: N_4  and  C_5
REMARK    4  A    between atoms: C_5  and  N_7
REMARK    5  A    between atoms: C_8  and  C_10
REMARK                            x       y       z     vdW  Elec       q    Type
REMARK                         _______ _______ _______ _____ _____    ______ ____
ROOT
ATOM      1  C   UNL     1       6.205   6.344  17.140  0.00  0.00    +0.000 C 
ATOM      2  S   UNL     1       7.596   6.826  17.945  0.00  0.00    +0.000 S 
ENDROOT
BRANCH   1   3
ATOM      3  N   UNL     1       5.278   5.598  17.834  0.00  0.00    +0.000 N 
ATOM      4  C   UNL     1       3.933   5.872  18.047  0.00  0.00    +0.000 C 
ATOM      5  O   UNL     1       3.418   6.939  17.716  0.00  0.00    +0.000 OA
ATOM      6  H   UNL     1       5.630   4.696  18.120  0.00  0.00    +0.000 HD
BRANCH   4   7
ATOM      7  C   UNL     1       3.139   4.752  18.755  0.00  0.00    +0.000 C 
ATOM      8  C   UNL     1       4.059   3.538  19.027  0.00  0.00    +0.000 C 
ATOM      9  C   UNL     1       3.288   2.423  19.756  0.00  0.00    +0.000 C 
ATOM     10  C   UNL     1       2.765   2.959  21.098  0.00  0.00    +0.000 C 
ATOM     11  C   UNL     1       1.827   4.151  20.857  0.00  0.00    +0.000 C 
ATOM     12  C   UNL     1       0.643   3.694  19.992  0.00  0.00    +0.000 C 
ATOM     13  C   UNL     1       1.152   3.169  18.640  0.00  0.00    +0.000 C 
ATOM     14  C   UNL     1       2.098   1.981  18.886  0.00  0.00    +0.000 C 
ATOM     15  C   UNL     1       1.923   4.288  17.912  0.00  0.00    +0.000 C 
ATOM     16  C   UNL     1       2.597   5.262  20.119  0.00  0.00    +0.000 C 
ENDBRANCH   4   7
ENDBRANCH   1   3
BRANCH   1  17
ATOM     17  N   UNL     1       5.931   6.624  15.825  0.00  0.00    +0.000 N 
ATOM     18  H   UNL     1       5.606   7.561  15.553  0.00  0.00    +0.000 HD
BRANCH  17  21
ATOM     19  O   UNL     1       7.871   5.449  14.232  0.00  0.00    +0.000 OA
ATOM     20  C   UNL     1       6.699   5.105  14.124  0.00  0.00    +0.000 C 
ATOM     21  N   UNL     1       5.674   5.589  14.915  0.00  0.00    +0.000 N 
ATOM     22  H   UNL     1       4.734   5.203  14.906  0.00  0.00    +0.000 HD
BRANCH  20  23
ATOM     23  C   UNL     1       6.306   4.100  13.104  0.00  0.00    +0.000 A 
ATOM     24  C   UNL     1       4.952   3.909  12.836  0.00  0.00    +0.000 A 
ATOM     25  C   UNL     1       4.604   2.965  11.887  0.00  0.00    +0.000 A 
ATOM     26  N   UNL     1       5.504   2.211  11.219  0.00  0.00    +0.000 NA
ATOM     27  C   UNL     1       6.805   2.395  11.517  0.00  0.00    +0.000 A 
ATOM     28  C   UNL     1       7.258   3.318  12.444  0.00  0.00    +0.000 A 
ENDBRANCH  20  23
ENDBRANCH  17  21
ENDBRANCH   1  17
TORSDOF 5
ENDMDL
MODEL 4
REMARK VINA RESULT:      -8.5      1.342      2.151
REMARK  Name = 
REMARK  5 active torsions:
REMARK  status: ('A' for Active; 'I' for Inactive)
REMARK    1  A    between atoms: C_2  and  C_20
REMARK    2  A    between atoms: N_3  and  N_4
REMARK    3  A    between atoms: N_4  and  C_5
REMARK    4  A    between atoms: C_5  and  N_7
REMARK    5  A    between atoms: C_8  and  C_10
REMARK                            x       y       z     vdW  Elec       q    Type
REMARK                         _______ _______ _______ _____ _____    ______ ____
ROOT
ATOM      1  C   UNL     1       6.353   6.273  17.312  0.00  0.00    +0.000 C 
ATOM      2  S   UNL     1       7.723   6.753  18.153  0.00  0.00    +0.000 S 
ENDROOT
BRANCH   1   3
ATOM      3  N   UNL     1       5.409   5.525  17.982  0.00  0.00    +0.000 N 
ATOM      4  C   UNL     1       4.072   5.823  18.210  0.00  0.00    +0.000 C 
ATOM      5  O   UNL     1       3.583   6.914  17.920  0.00  0.00    +0.000 OA
ATOM      6  H   UNL     1       5.740   4.605  18.233  0.00  0.00    +0.000 HD
BRANCH   4   7
ATOM      7  C   UNL     1       3.253   4.698  18.879  0.00  0.00    +0.000 C 
ATOM      8  C   UNL     1       2.738   5.164  20.262  0.00  0.00    +0.000 C 
ATOM      9  C   UNL     1       1.898   4.062  20.931  0.00  0.00    +0.000 C 
ATOM     10  C   UNL     1       0.692   3.729  20.039  0.00  0.00    +0.000 C 
ATOM     11  C   UNL     1       1.174   3.237  18.666  0.00  0.00    +0.000 C 
ATOM     12  C   UNL     1       2.034   1.978  18.854  0.00  0.00    +0.000 C 
ATOM     13  C   UNL     1       3.253   2.302  19.734  0.00  0.00    +0.000 C 
ATOM     14  C   UNL     1       2.765   2.802  21.104  0.00  0.00    +0.000 C 
ATOM     15  C   UNL     1       4.092   3.407  19.060  0.00  0.00    +0.000 C 
ATOM     16  C   UNL     1       2.023   4.338  18.002  0.00  0.00    +0.000 C 
ENDBRANCH   4   7
ENDBRANCH   1   3
BRANCH   1  17
ATOM     17  N   UNL     1       6.110   6.556  15.992  0.00  0.00    +0.000 N 
ATOM     18  H   UNL     1       5.838   7.506  15.709  0.00  0.00    +0.000 HD
BRANCH  17  21
ATOM     19  O   UNL     1       7.924   5.533  14.163  0.00  0.00    +0.000 OA
ATOM     20  C   UNL     1       6.768   5.124  14.174  0.00  0.00    +0.000 C 
ATOM     21  N   UNL     1       5.812   5.529  15.086  0.00  0.00    +0.000 N 
ATOM     22  H   UNL     1       4.899   5.088  15.169  0.00  0.00    +0.000 HD
BRANCH  20  23
ATOM     23  C   UNL     1       6.321   4.120  13.175  0.00  0.00    +0.000 A 
ATOM     24  C   UNL     1       7.281   3.444  12.424  0.00  0.00    +0.000 A 
ATOM     25  C   UNL     1       6.846   2.516  11.496  0.00  0.00    +0.000 A 
ATOM     26  N   UNL     1       5.542   2.243  11.268  0.00  0.00    +0.000 NA
ATOM     27  C   UNL     1       4.633   2.930  11.987  0.00  0.00    +0.000 A 
ATOM     28  C   UNL     1       4.964   3.874  12.945  0.00  0.00    +0.000 A 
ENDBRANCH  20  23
ENDBRANCH  17  21
ENDBRANCH   1  17
TORSDOF 5
ENDMDL
MODEL 5
REMARK VINA RESULT:      -8.4      5.800      8.289
REMARK  Name = 
REMARK  5 active torsions:
REMARK  status: ('A' for Active; 'I' for Inactive)
REMARK    1  A    between atoms: C_2  and  C_20
REMARK    2  A    between atoms: N_3  and  N_4
REMARK    3  A    between atoms: N_4  and  C_5
REMARK    4  A    between atoms: C_5  and  N_7
REMARK    5  A    between atoms: C_8  and  C_10
REMARK                            x       y       z     vdW  Elec       q    Type
REMARK                         _______ _______ _______ _____ _____    ______ ____
ROOT
ATOM      1  C   UNL     1       1.285   8.763  20.687  0.00  0.00    +0.000 C 
ATOM      2  S   UNL     1       1.063   9.195  22.293  0.00  0.00    +0.000 S 
ENDROOT
BRANCH   1   3
ATOM      3  N   UNL     1       1.451   7.428  20.390  0.00  0.00    +0.000 N 
ATOM      4  C   UNL     1       2.215   6.855  19.381  0.00  0.00    +0.000 C 
ATOM      5  O   UNL     1       2.770   7.528  18.514  0.00  0.00    +0.000 OA
ATOM      6  H   UNL     1       1.035   6.815  21.076  0.00  0.00    +0.000 HD
BRANCH   4   7
ATOM      7  C   UNL     1       2.293   5.313  19.411  0.00  0.00    +0.000 C 
ATOM      8  C   UNL     1       1.353   4.754  20.507  0.00  0.00    +0.000 C 
ATOM      9  C   UNL     1       1.400   3.216  20.532  0.00  0.00    +0.000 C 
ATOM     10  C   UNL     1       0.951   2.670  19.167  0.00  0.00    +0.000 C 
ATOM     11  C   UNL     1       1.884   3.189  18.062  0.00  0.00    +0.000 C 
ATOM     12  C   UNL     1       3.318   2.723  18.352  0.00  0.00    +0.000 C 
ATOM     13  C   UNL     1       3.784   3.275  19.709  0.00  0.00    +0.000 C 
ATOM     14  C   UNL     1       2.843   2.760  20.812  0.00  0.00    +0.000 C 
ATOM     15  C   UNL     1       3.737   4.816  19.680  0.00  0.00    +0.000 C 
ATOM     16  C   UNL     1       1.843   4.728  18.045  0.00  0.00    +0.000 C 
ENDBRANCH   4   7
ENDBRANCH   1   3
BRANCH   1  17
ATOM     17  N   UNL     1       1.332   9.650  19.642  0.00  0.00    +0.000 N 
ATOM     18  H   UNL     1       1.998  10.433  19.658  0.00  0.00    +0.000 HD
BRANCH  17  21
ATOM     19  O   UNL     1      -0.589  11.638  19.848  0.00  0.00    +0.000 OA
ATOM     20  C   UNL     1      -0.694  10.772  18.986  0.00  0.00    +0.000 C 
ATOM     21  N   UNL     1       0.243   9.779  18.768  0.00  0.00    +0.000 N 
ATOM     22  H   UNL     1       0.212   9.150  17.970  0.00  0.00    +0.000 HD
BRANCH  20  23
ATOM     23  C   UNL     1      -1.875  10.752  18.085  0.00  0.00    +0.000 A 
ATOM     24  C   UNL     1      -1.850   9.927  16.962  0.00  0.00    +0.000 A 
ATOM     25  C   UNL     1      -2.956   9.925  16.133  0.00  0.00    +0.000 A 
ATOM     26  N   UNL     1      -4.051  10.688  16.345  0.00  0.00    +0.000 NA
ATOM     27  C   UNL     1      -4.038  11.497  17.423  0.00  0.00    +0.000 A 
ATOM     28  C   UNL     1      -2.985  11.569  18.318  0.00  0.00    +0.000 A 
ENDBRANCH  20  23
ENDBRANCH  17  21
ENDBRANCH   1  17
TORSDOF 5
ENDMDL
MODEL 6
REMARK VINA RESULT:      -8.4      5.804      8.240
REMARK  Name = 
REMARK  5 active torsions:
REMARK  status: ('A' for Active; 'I' for Inactive)
REMARK    1  A    between atoms: C_2  and  C_20
REMARK    2  A    between atoms: N_3  and  N_4
REMARK    3  A    between atoms: N_4  and  C_5
REMARK    4  A    between atoms: C_5  and  N_7
REMARK    5  A    between atoms: C_8  and  C_10
REMARK                            x       y       z     vdW  Elec       q    Type
REMARK                         _______ _______ _______ _____ _____    ______ ____
ROOT
ATOM      1  C   UNL     1       1.267   8.797  20.672  0.00  0.00    +0.000 C 
ATOM      2  S   UNL     1       1.020   9.218  22.277  0.00  0.00    +0.000 S 
ENDROOT
BRANCH   1   3
ATOM      3  N   UNL     1       1.422   7.462  20.367  0.00  0.00    +0.000 N 
ATOM      4  C   UNL     1       2.195   6.889  19.365  0.00  0.00    +0.000 C 
ATOM      5  O   UNL     1       2.770   7.562  18.511  0.00  0.00    +0.000 OA
ATOM      6  H   UNL     1       0.989   6.849  21.042  0.00  0.00    +0.000 HD
BRANCH   4   7
ATOM      7  C   UNL     1       2.253   5.345  19.383  0.00  0.00    +0.000 C 
ATOM      8  C   UNL     1       1.853   4.780  17.999  0.00  0.00    +0.000 C 
ATOM      9  C   UNL     1       1.932   3.244  17.995  0.00  0.00    +0.000 C 
ATOM     10  C   UNL     1       3.370   2.806  18.312  0.00  0.00    +0.000 C 
ATOM     11  C   UNL     1       3.787   3.332  19.694  0.00  0.00    +0.000 C 
ATOM     12  C   UNL     1       2.833   2.765  20.757  0.00  0.00    +0.000 C 
ATOM     13  C   UNL     1       1.392   3.208  20.459  0.00  0.00    +0.000 C 
ATOM     14  C   UNL     1       0.982   2.687  19.071  0.00  0.00    +0.000 C 
ATOM     15  C   UNL     1       1.317   4.748  20.465  0.00  0.00    +0.000 C 
ATOM     16  C   UNL     1       3.697   4.869  19.700  0.00  0.00    +0.000 C 
ENDBRANCH   4   7
ENDBRANCH   1   3
BRANCH   1  17
ATOM     17  N   UNL     1       1.346   9.693  19.636  0.00  0.00    +0.000 N 
ATOM     18  H   UNL     1       2.015  10.472  19.676  0.00  0.00    +0.000 HD
BRANCH  17  21
ATOM     19  O   UNL     1      -0.723  11.508  19.959  0.00  0.00    +0.000 OA
ATOM     20  C   UNL     1      -0.734  10.730  19.011  0.00  0.00    +0.000 C 
ATOM     21  N   UNL     1       0.282   9.833  18.735  0.00  0.00    +0.000 N 
ATOM     22  H   UNL     1       0.325   9.288  17.878  0.00  0.00    +0.000 HD
BRANCH  20  23
ATOM     23  C   UNL     1      -1.878  10.719  18.064  0.00  0.00    +0.000 A 
ATOM     24  C   UNL     1      -2.982  11.525  18.335  0.00  0.00    +0.000 A 
ATOM     25  C   UNL     1      -4.040  11.499  17.445  0.00  0.00    +0.000 A 
ATOM     26  N   UNL     1      -4.067  10.723  16.339  0.00  0.00    +0.000 NA
ATOM     27  C   UNL     1      -2.999   9.931  16.116  0.00  0.00    +0.000 A 
ATOM     28  C   UNL     1      -1.887   9.888  16.940  0.00  0.00    +0.000 A 
ENDBRANCH  20  23
ENDBRANCH  17  21
ENDBRANCH   1  17
TORSDOF 5
ENDMDL
MODEL 7
REMARK VINA RESULT:      -8.4      1.653      2.105
REMARK  Name = 
REMARK  5 active torsions:
REMARK  status: ('A' for Active; 'I' for Inactive)
REMARK    1  A    between atoms: C_2  and  C_20
REMARK    2  A    between atoms: N_3  and  N_4
REMARK    3  A    between atoms: N_4  and  C_5
REMARK    4  A    between atoms: C_5  and  N_7
REMARK    5  A    between atoms: C_8  and  C_10
REMARK                            x       y       z     vdW  Elec       q    Type
REMARK                         _______ _______ _______ _____ _____    ______ ____
ROOT
ATOM      1  C   UNL     1       6.626   6.256  18.206  0.00  0.00    +0.000 C 
ATOM      2  S   UNL     1       8.061   6.216  19.074  0.00  0.00    +0.000 S 
ENDROOT
BRANCH   1   3
ATOM      3  N   UNL     1       5.561   5.521  18.677  0.00  0.00    +0.000 N 
ATOM      4  C   UNL     1       4.203   5.766  18.516  0.00  0.00    +0.000 C 
ATOM      5  O   UNL     1       3.777   6.798  18.000  0.00  0.00    +0.000 OA
ATOM      6  H   UNL     1       5.839   4.647  19.099  0.00  0.00    +0.000 HD
BRANCH   4   7
ATOM      7  C   UNL     1       3.268   4.663  19.059  0.00  0.00    +0.000 C 
ATOM      8  C   UNL     1       2.245   4.251  17.973  0.00  0.00    +0.000 C 
ATOM      9  C   UNL     1       1.322   3.133  18.490  0.00  0.00    +0.000 C 
ATOM     10  C   UNL     1       2.169   1.906  18.865  0.00  0.00    +0.000 C 
ATOM     11  C   UNL     1       3.178   2.280  19.962  0.00  0.00    +0.000 C 
ATOM     12  C   UNL     1       2.416   2.774  21.201  0.00  0.00    +0.000 C 
ATOM     13  C   UNL     1       1.576   4.010  20.842  0.00  0.00    +0.000 C 
ATOM     14  C   UNL     1       0.573   3.634  19.738  0.00  0.00    +0.000 C 
ATOM     15  C   UNL     1       2.504   5.128  20.325  0.00  0.00    +0.000 C 
ATOM     16  C   UNL     1       4.094   3.405  19.446  0.00  0.00    +0.000 C 
ENDBRANCH   4   7
ENDBRANCH   1   3
BRANCH   1  17
ATOM     17  N   UNL     1       6.441   6.958  17.042  0.00  0.00    +0.000 N 
ATOM     18  H   UNL     1       6.173   7.950  17.073  0.00  0.00    +0.000 HD
BRANCH  17  21
ATOM     19  O   UNL     1       7.795   4.677  16.237  0.00  0.00    +0.000 OA
ATOM     20  C   UNL     1       6.960   5.186  15.497  0.00  0.00    +0.000 C 
ATOM     21  N   UNL     1       6.193   6.285  15.837  0.00  0.00    +0.000 N 
ATOM     22  H   UNL     1       5.415   6.617  15.272  0.00  0.00    +0.000 HD
BRANCH  20  23
ATOM     23  C   UNL     1       6.709   4.618  14.148  0.00  0.00    +0.000 A 
ATOM     24  C   UNL     1       5.602   3.792  13.963  0.00  0.00    +0.000 A 
ATOM     25  C   UNL     1       5.386   3.268  12.701  0.00  0.00    +0.000 A 
ATOM     26  N   UNL     1       6.198   3.501  11.647  0.00  0.00    +0.000 NA
ATOM     27  C   UNL     1       7.278   4.280  11.860  0.00  0.00    +0.000 A 
ATOM     28  C   UNL     1       7.579   4.858  13.082  0.00  0.00    +0.000 A 
ENDBRANCH  20  23
ENDBRANCH  17  21
ENDBRANCH   1  17
TORSDOF 5
ENDMDL
MODEL 8
REMARK VINA RESULT:      -8.3      0.352      1.777
REMARK  Name = 
REMARK  5 active torsions:
REMARK  status: ('A' for Active; 'I' for Inactive)
REMARK    1  A    between atoms: C_2  and  C_20
REMARK    2  A    between atoms: N_3  and  N_4
REMARK    3  A    between atoms: N_4  and  C_5
REMARK    4  A    between atoms: C_5  and  N_7
REMARK    5  A    between atoms: C_8  and  C_10
REMARK                            x       y       z     vdW  Elec       q    Type
REMARK                         _______ _______ _______ _____ _____    ______ ____
ROOT
ATOM      1  C   UNL     1       7.071   6.338  16.851  0.00  0.00    +0.000 C 
ATOM      2  S   UNL     1       7.593   7.579  17.853  0.00  0.00    +0.000 S 
ENDROOT
BRANCH   1   3
ATOM      3  N   UNL     1       5.974   5.604  17.244  0.00  0.00    +0.000 N 
ATOM      4  C   UNL     1       5.827   4.802  18.369  0.00  0.00    +0.000 C 
ATOM      5  O   UNL     1       6.764   4.552  19.125  0.00  0.00    +0.000 OA
ATOM      6  H   UNL     1       5.158   5.776  16.674  0.00  0.00    +0.000 HD
BRANCH   4   7
ATOM      7  C   UNL     1       4.411   4.224  18.583  0.00  0.00    +0.000 C 
ATOM      8  C   UNL     1       3.400   5.371  18.826  0.00  0.00    +0.000 C 
ATOM      9  C   UNL     1       1.979   4.813  19.016  0.00  0.00    +0.000 C 
ATOM     10  C   UNL     1       1.561   4.043  17.753  0.00  0.00    +0.000 C 
ATOM     11  C   UNL     1       2.533   2.880  17.501  0.00  0.00    +0.000 C 
ATOM     12  C   UNL     1       2.510   1.932  18.710  0.00  0.00    +0.000 C 
ATOM     13  C   UNL     1       2.941   2.688  19.977  0.00  0.00    +0.000 C 
ATOM     14  C   UNL     1       1.969   3.855  20.221  0.00  0.00    +0.000 C 
ATOM     15  C   UNL     1       4.365   3.245  19.784  0.00  0.00    +0.000 C 
ATOM     16  C   UNL     1       3.957   3.440  17.322  0.00  0.00    +0.000 C 
ENDBRANCH   4   7
ENDBRANCH   1   3
BRANCH   1  17
ATOM     17  N   UNL     1       7.675   5.986  15.670  0.00  0.00    +0.000 N 
ATOM     18  H   UNL     1       8.354   6.617  15.229  0.00  0.00    +0.000 HD
BRANCH  17  21
ATOM     19  O   UNL     1       8.370   5.615  13.013  0.00  0.00    +0.000 OA
ATOM     20  C   UNL     1       7.474   4.942  13.511  0.00  0.00    +0.000 C 
ATOM     21  N   UNL     1       7.100   5.013  14.840  0.00  0.00    +0.000 N 
ATOM     22  H   UNL     1       6.450   4.361  15.271  0.00  0.00    +0.000 HD
BRANCH  20  23
ATOM     23  C   UNL     1       6.722   3.966  12.681  0.00  0.00    +0.000 A 
ATOM     24  C   UNL     1       5.331   3.946  12.762  0.00  0.00    +0.000 A 
ATOM     25  C   UNL     1       4.648   3.028  11.986  0.00  0.00    +0.000 A 
ATOM     26  N   UNL     1       5.257   2.141  11.168  0.00  0.00    +0.000 NA
ATOM     27  C   UNL     1       6.604   2.163  11.130  0.00  0.00    +0.000 A 
ATOM     28  C   UNL     1       7.381   3.046  11.861  0.00  0.00    +0.000 A 
ENDBRANCH  20  23
ENDBRANCH  17  21
ENDBRANCH   1  17
TORSDOF 5
ENDMDL
MODEL 9
REMARK VINA RESULT:      -8.3      0.982      1.000
REMARK  Name = 
REMARK  5 active torsions:
REMARK  status: ('A' for Active; 'I' for Inactive)
REMARK    1  A    between atoms: C_2  and  C_20
REMARK    2  A    between atoms: N_3  and  N_4
REMARK    3  A    between atoms: N_4  and  C_5
REMARK    4  A    between atoms: C_5  and  N_7
REMARK    5  A    between atoms: C_8  and  C_10
REMARK                            x       y       z     vdW  Elec       q    Type
REMARK                         _______ _______ _______ _____ _____    ______ ____
ROOT
ATOM      1  C   UNL     1       6.964   6.121  16.846  0.00  0.00    +0.000 C 
ATOM      2  S   UNL     1       7.278   7.644  17.474  0.00  0.00    +0.000 S 
ENDROOT
BRANCH   1   3
ATOM      3  N   UNL     1       5.989   5.357  17.450  0.00  0.00    +0.000 N 
ATOM      4  C   UNL     1       4.641   5.652  17.619  0.00  0.00    +0.000 C 
ATOM      5  O   UNL     1       4.167   6.749  17.331  0.00  0.00    +0.000 OA
ATOM      6  H   UNL     1       6.307   4.431  17.695  0.00  0.00    +0.000 HD
BRANCH   4   7
ATOM      7  C   UNL     1       3.791   4.511  18.220  0.00  0.00    +0.000 C 
ATOM      8  C   UNL     1       3.281   3.578  17.096  0.00  0.00    +0.000 C 
ATOM      9  C   UNL     1       2.453   2.421  17.682  0.00  0.00    +0.000 C 
ATOM     10  C   UNL     1       3.329   1.604  18.645  0.00  0.00    +0.000 C 
ATOM     11  C   UNL     1       3.830   2.501  19.788  0.00  0.00    +0.000 C 
ATOM     12  C   UNL     1       2.622   3.067  20.550  0.00  0.00    +0.000 C 
ATOM     13  C   UNL     1       1.745   3.898  19.600  0.00  0.00    +0.000 C 
ATOM     14  C   UNL     1       1.253   2.999  18.453  0.00  0.00    +0.000 C 
ATOM     15  C   UNL     1       2.577   5.057  19.015  0.00  0.00    +0.000 C 
ATOM     16  C   UNL     1       4.649   3.663  19.198  0.00  0.00    +0.000 C 
ENDBRANCH   4   7
ENDBRANCH   1   3
BRANCH   1  17
ATOM     17  N   UNL     1       7.625   5.568  15.778  0.00  0.00    +0.000 N 
ATOM     18  H   UNL     1       8.474   6.014  15.409  0.00  0.00    +0.000 HD
BRANCH  17  21
ATOM     19  O   UNL     1       8.001   5.503  13.033  0.00  0.00    +0.000 OA
ATOM     20  C   UNL     1       7.181   4.757  13.556  0.00  0.00    +0.000 C 
ATOM     21  N   UNL     1       6.968   4.675  14.920  0.00  0.00    +0.000 N 
ATOM     22  H   UNL     1       6.384   3.963  15.350  0.00  0.00    +0.000 HD
BRANCH  20  23
ATOM     23  C   UNL     1       6.349   3.855  12.719  0.00  0.00    +0.000 A 
ATOM     24  C   UNL     1       6.963   2.791  12.062  0.00  0.00    +0.000 A 
ATOM     25  C   UNL     1       6.173   1.964  11.284  0.00  0.00    +0.000 A 
ATOM     26  N   UNL     1       4.845   2.143  11.115  0.00  0.00    +0.000 NA
ATOM     27  C   UNL     1       4.280   3.196  11.739  0.00  0.00    +0.000 A 
ATOM     28  C   UNL     1       4.980   4.078  12.545  0.00  0.00    +0.000 A 
ENDBRANCH  20  23
ENDBRANCH  17  21
ENDBRANCH   1  17
TORSDOF 5
ENDMDL
