MODEL 1
REMARK VINA RESULT:      -7.9      0.000      0.000
REMARK  Name = 
REMARK  8 active torsions:
REMARK  status: ('A' for Active; 'I' for Inactive)
REMARK    1  A    between atoms: C_1  and  C_2
REMARK    2  A    between atoms: C_2  and  C_4
REMARK    3  A    between atoms: C_11  and  N_12
REMARK    4  A    between atoms: N_12  and  C_13
REMARK    5  A    between atoms: C_13  and  C_14
REMARK    6  A    between atoms: N_16  and  C_17
REMARK    7  A    between atoms: C_22  and  C_23
REMARK    8  A    between atoms: C_23  and  O_25
REMARK                            x       y       z     vdW  Elec       q    Type
REMARK                         _______ _______ _______ _____ _____    ______ ____
ROOT
ATOM      1  C   UNL     1       3.425   3.292  16.991  0.00  0.00    +0.000 C 
ENDROOT
BRANCH   1   2
ATOM      2  C   UNL     1       2.515   4.393  17.533  0.00  0.00    +0.000 C 
ATOM      3  O   UNL     1       1.296   4.342  17.387  0.00  0.00    +0.000 OA
ATOM      4  N   UNL     1       3.196   5.373  18.234  0.00  0.00    +0.000 N 
ATOM      5  H   UNL     1       4.131   5.565  17.866  0.00  0.00    +0.000 HD
BRANCH   4   6
ATOM      6  C   UNL     1       2.543   6.401  18.954  0.00  0.00    +0.000 A 
ATOM      7  C   UNL     1       2.541   7.710  18.453  0.00  0.00    +0.000 A 
ATOM      8  C   UNL     1       1.886   8.738  19.134  0.00  0.00    +0.000 A 
ATOM      9  C   UNL     1       1.242   8.473  20.336  0.00  0.00    +0.000 A 
ATOM     10  C   UNL     1       1.233   7.173  20.852  0.00  0.00    +0.000 A 
ATOM     11  C   UNL     1       1.857   6.124  20.149  0.00  0.00    +0.000 A 
BRANCH  11  12
ATOM     12  C   UNL     1       1.879   4.746  20.713  0.00  0.00    +0.000 C 
ATOM     13  O   UNL     1       2.879   4.247  21.207  0.00  0.00    +0.000 OA
BRANCH  12  14
ATOM     14  O   UNL     1       0.722   4.065  20.576  0.00  0.00    +0.000 OA
ATOM     15  H   UNL     1       0.798   3.188  20.161  0.00  0.00    +0.000 HD
ENDBRANCH  12  14
ENDBRANCH  11  12
ENDBRANCH   4   6
ENDBRANCH   1   2
BRANCH   1  16
ATOM     16  N   UNL     1       4.857   3.529  17.297  0.00  0.00    +0.000 N 
ATOM     17  H   UNL     1       4.913   4.178  18.084  0.00  0.00    +0.000 HD
BRANCH  16  25
ATOM     18  C   UNL     1       6.745   4.858  16.347  0.00  0.00    +0.000 A 
ATOM     19  C   UNL     1       7.446   5.310  15.210  0.00  0.00    +0.000 A 
ATOM     20  C   UNL     1       7.111   4.853  13.943  0.00  0.00    +0.000 A 
ATOM     21  F   UNL     1       7.793   5.311  12.884  0.00  0.00    +0.000 F 
ATOM     22  C   UNL     1       6.098   3.922  13.787  0.00  0.00    +0.000 A 
ATOM     23 CL   UNL     1       5.692   3.310  12.230  0.00  0.00    +0.000 Cl
ATOM     24  C   UNL     1       5.388   3.478  14.906  0.00  0.00    +0.000 A 
ATOM     25  C   UNL     1       5.640   3.981  16.202  0.00  0.00    +0.000 A 
BRANCH  18  27
ATOM     26  C   UNL     1       7.428   6.904  17.795  0.00  0.00    +0.000 C 
ATOM     27  C   UNL     1       7.237   5.419  17.640  0.00  0.00    +0.000 C 
ATOM     28  O   UNL     1       7.440   4.651  18.580  0.00  0.00    +0.000 OA
ENDBRANCH  18  27
ENDBRANCH  16  25
ENDBRANCH   1  16
TORSDOF 7
ENDMDL
MODEL 2
REMARK VINA RESULT:      -7.7      1.358      2.139
REMARK  Name = 
REMARK  8 active torsions:
REMARK  status: ('A' for Active; 'I' for Inactive)
REMARK    1  A    between atoms: C_1  and  C_2
REMARK    2  A    between atoms: C_2  and  C_4
REMARK    3  A    between atoms: C_11  and  N_12
REMARK    4  A    between atoms: N_12  and  C_13
REMARK    5  A    between atoms: C_13  and  C_14
REMARK    6  A    between atoms: N_16  and  C_17
REMARK    7  A    between atoms: C_22  and  C_23
REMARK    8  A    between atoms: C_23  and  O_25
REMARK                            x       y       z     vdW  Elec       q    Type
REMARK                         _______ _______ _______ _____ _____    ______ ____
ROOT
ATOM      1  C   UNL     1       3.334   3.149  17.304  0.00  0.00    +0.000 C 
ENDROOT
BRANCH   1   2
ATOM      2  C   UNL     1       2.439   4.275  17.820  0.00  0.00    +0.000 C 
ATOM      3  O   UNL     1       1.255   4.345  17.502  0.00  0.00    +0.000 OA
ATOM      4  N   UNL     1       3.082   5.125  18.703  0.00  0.00    +0.000 N 
ATOM      5  H   UNL     1       4.072   5.266  18.491  0.00  0.00    +0.000 HD
BRANCH   4   6
ATOM      6  C   UNL     1       2.409   6.140  19.424  0.00  0.00    +0.000 A 
ATOM      7  C   UNL     1       1.737   5.821  20.613  0.00  0.00    +0.000 A 
ATOM      8  C   UNL     1       1.084   6.807  21.355  0.00  0.00    +0.000 A 
ATOM      9  C   UNL     1       1.076   8.122  20.904  0.00  0.00    +0.000 A 
ATOM     10  C   UNL     1       1.741   8.459  19.721  0.00  0.00    +0.000 A 
ATOM     11  C   UNL     1       2.436   7.476  18.990  0.00  0.00    +0.000 A 
BRANCH  11  12
ATOM     12  C   UNL     1       3.114   7.825  17.712  0.00  0.00    +0.000 C 
ATOM     13  O   UNL     1       4.140   7.279  17.333  0.00  0.00    +0.000 OA
BRANCH  12  14
ATOM     14  O   UNL     1       2.543   8.842  17.034  0.00  0.00    +0.000 OA
ATOM     15  H   UNL     1       1.643   8.673  16.702  0.00  0.00    +0.000 HD
ENDBRANCH  12  14
ENDBRANCH  11  12
ENDBRANCH   4   6
ENDBRANCH   1   2
BRANCH   1  16
ATOM     16  N   UNL     1       4.762   3.344  17.656  0.00  0.00    +0.000 N 
ATOM     17  H   UNL     1       4.809   3.924  18.496  0.00  0.00    +0.000 HD
BRANCH  16  25
ATOM     18  C   UNL     1       6.625   4.798  16.850  0.00  0.00    +0.000 A 
ATOM     19  C   UNL     1       7.353   5.331  15.766  0.00  0.00    +0.000 A 
ATOM     20  C   UNL     1       7.099   4.913  14.468  0.00  0.00    +0.000 A 
ATOM     21  F   UNL     1       7.805   5.446  13.461  0.00  0.00    +0.000 F 
ATOM     22  C   UNL     1       6.140   3.943  14.227  0.00  0.00    +0.000 A 
ATOM     23 CL   UNL     1       5.833   3.381  12.629  0.00  0.00    +0.000 Cl
ATOM     24  C   UNL     1       5.402   3.420  15.292  0.00  0.00    +0.000 A 
ATOM     25  C   UNL     1       5.571   3.878  16.618  0.00  0.00    +0.000 A 
BRANCH  18  27
ATOM     26  C   UNL     1       7.736   6.651  18.293  0.00  0.00    +0.000 C 
ATOM     27  C   UNL     1       7.031   5.326  18.186  0.00  0.00    +0.000 C 
ATOM     28  O   UNL     1       6.740   4.678  19.192  0.00  0.00    +0.000 OA
ENDBRANCH  18  27
ENDBRANCH  16  25
ENDBRANCH   1  16
TORSDOF 7
ENDMDL
MODEL 3
REMARK VINA RESULT:      -7.6      0.831      1.089
REMARK  Name = 
REMARK  8 active torsions:
REMARK  status: ('A' for Active; 'I' for Inactive)
REMARK    1  A    between atoms: C_1  and  C_2
REMARK    2  A    between atoms: C_2  and  C_4
REMARK    3  A    between atoms: C_11  and  N_12
REMARK    4  A    between atoms: N_12  and  C_13
REMARK    5  A    between atoms: C_13  and  C_14
REMARK    6  A    between atoms: N_16  and  C_17
REMARK    7  A    between atoms: C_22  and  C_23
REMARK    8  A    between atoms: C_23  and  O_25
REMARK                            x       y       z     vdW  Elec       q    Type
REMARK                         _______ _______ _______ _____ _____    ______ ____
ROOT
ATOM      1  C   UNL     1       3.801   3.671  17.067  0.00  0.00    +0.000 C 
ENDROOT
BRANCH   1   2
ATOM      2  C   UNL     1       3.599   4.755  18.124  0.00  0.00    +0.000 C 
ATOM      3  O   UNL     1       4.461   4.993  18.967  0.00  0.00    +0.000 OA
ATOM      4  N   UNL     1       2.410   5.448  17.979  0.00  0.00    +0.000 N 
ATOM      5  H   UNL     1       1.640   4.873  17.628  0.00  0.00    +0.000 HD
BRANCH   4   6
ATOM      6  C   UNL     1       2.086   6.593  18.745  0.00  0.00    +0.000 A 
ATOM      7  C   UNL     1       2.140   7.864  18.155  0.00  0.00    +0.000 A 
ATOM      8  C   UNL     1       1.805   9.007  18.882  0.00  0.00    +0.000 A 
ATOM      9  C   UNL     1       1.432   8.895  20.217  0.00  0.00    +0.000 A 
ATOM     10  C   UNL     1       1.371   7.636  20.822  0.00  0.00    +0.000 A 
ATOM     11  C   UNL     1       1.669   6.475  20.081  0.00  0.00    +0.000 A 
BRANCH  11  12
ATOM     12  C   UNL     1       1.640   5.137  20.733  0.00  0.00    +0.000 C 
ATOM     13  O   UNL     1       0.743   4.328  20.548  0.00  0.00    +0.000 OA
BRANCH  12  14
ATOM     14  O   UNL     1       2.651   4.913  21.598  0.00  0.00    +0.000 OA
ATOM     15  H   UNL     1       3.177   4.111  21.430  0.00  0.00    +0.000 HD
ENDBRANCH  12  14
ENDBRANCH  11  12
ENDBRANCH   4   6
ENDBRANCH   1   2
BRANCH   1  16
ATOM     16  N   UNL     1       5.214   3.232  16.959  0.00  0.00    +0.000 N 
ATOM     17  H   UNL     1       5.672   3.403  17.856  0.00  0.00    +0.000 HD
BRANCH  16  25
ATOM     18  C   UNL     1       6.982   4.762  16.083  0.00  0.00    +0.000 A 
ATOM     19  C   UNL     1       7.630   5.340  14.971  0.00  0.00    +0.000 A 
ATOM     20  C   UNL     1       7.317   4.939  13.680  0.00  0.00    +0.000 A 
ATOM     21  F   UNL     1       7.948   5.516  12.648  0.00  0.00    +0.000 F 
ATOM     22  C   UNL     1       6.377   3.943  13.473  0.00  0.00    +0.000 A 
ATOM     23 CL   UNL     1       6.000   3.403  11.883  0.00  0.00    +0.000 Cl
ATOM     24  C   UNL     1       5.718   3.375  14.565  0.00  0.00    +0.000 A 
ATOM     25  C   UNL     1       5.946   3.813  15.890  0.00  0.00    +0.000 A 
BRANCH  18  27
ATOM     26  C   UNL     1       7.427   6.754  17.690  0.00  0.00    +0.000 C 
ATOM     27  C   UNL     1       7.445   5.276  17.405  0.00  0.00    +0.000 C 
ATOM     28  O   UNL     1       7.797   4.469  18.265  0.00  0.00    +0.000 OA
ENDBRANCH  18  27
ENDBRANCH  16  25
ENDBRANCH   1  16
TORSDOF 7
ENDMDL
MODEL 4
REMARK VINA RESULT:      -7.4      3.735      5.126
REMARK  Name = 
REMARK  8 active torsions:
REMARK  status: ('A' for Active; 'I' for Inactive)
REMARK    1  A    between atoms: C_1  and  C_2
REMARK    2  A    between atoms: C_2  and  C_4
REMARK    3  A    between atoms: C_11  and  N_12
REMARK    4  A    between atoms: N_12  and  C_13
REMARK    5  A    between atoms: C_13  and  C_14
REMARK    6  A    between atoms: N_16  and  C_17
REMARK    7  A    between atoms: C_22  and  C_23
REMARK    8  A    between atoms: C_23  and  O_25
REMARK                            x       y       z     vdW  Elec       q    Type
REMARK                         _______ _______ _______ _____ _____    ______ ____
ROOT
ATOM      1  C   UNL     1       2.530   7.438  19.060  0.00  0.00    +0.000 C 
ENDROOT
BRANCH   1   2
ATOM      2  C   UNL     1       1.824   8.696  18.556  0.00  0.00    +0.000 C 
ATOM      3  O   UNL     1       2.092   9.182  17.460  0.00  0.00    +0.000 OA
ATOM      4  N   UNL     1       0.845   9.158  19.418  0.00  0.00    +0.000 N 
ATOM      5  H   UNL     1       1.064   9.011  20.406  0.00  0.00    +0.000 HD
BRANCH   4   6
ATOM      6  C   UNL     1      -0.040  10.211  19.086  0.00  0.00    +0.000 A 
ATOM      7  C   UNL     1      -0.954  10.049  18.034  0.00  0.00    +0.000 A 
ATOM      8  C   UNL     1      -1.851  11.064  17.701  0.00  0.00    +0.000 A 
ATOM      9  C   UNL     1      -1.832  12.264  18.401  0.00  0.00    +0.000 A 
ATOM     10  C   UNL     1      -0.929  12.444  19.454  0.00  0.00    +0.000 A 
ATOM     11  C   UNL     1      -0.048  11.408  19.821  0.00  0.00    +0.000 A 
BRANCH  11  12
ATOM     12  C   UNL     1       0.938  11.611  20.918  0.00  0.00    +0.000 C 
ATOM     13  O   UNL     1       1.756  12.519  20.915  0.00  0.00    +0.000 OA
BRANCH  12  14
ATOM     14  O   UNL     1       0.902  10.671  21.885  0.00  0.00    +0.000 OA
ATOM     15  H   UNL     1       1.282   9.807  21.646  0.00  0.00    +0.000 HD
ENDBRANCH  12  14
ENDBRANCH  11  12
ENDBRANCH   4   6
ENDBRANCH   1   2
BRANCH   1  16
ATOM     16  N   UNL     1       2.466   6.317  18.090  0.00  0.00    +0.000 N 
ATOM     17  H   UNL     1       1.829   5.610  18.460  0.00  0.00    +0.000 HD
BRANCH  16  25
ATOM     18  C   UNL     1       3.892   4.372  17.443  0.00  0.00    +0.000 A 
ATOM     19  C   UNL     1       5.176   3.863  17.161  0.00  0.00    +0.000 A 
ATOM     20  C   UNL     1       6.276   4.707  17.103  0.00  0.00    +0.000 A 
ATOM     21  F   UNL     1       7.483   4.188  16.840  0.00  0.00    +0.000 F 
ATOM     22  C   UNL     1       6.116   6.069  17.298  0.00  0.00    +0.000 A 
ATOM     23 CL   UNL     1       7.459   7.141  17.193  0.00  0.00    +0.000 Cl
ATOM     24  C   UNL     1       4.851   6.582  17.593  0.00  0.00    +0.000 A 
ATOM     25  C   UNL     1       3.720   5.748  17.744  0.00  0.00    +0.000 A 
BRANCH  18  27
ATOM     26  C   UNL     1       3.083   1.955  17.947  0.00  0.00    +0.000 C 
ATOM     27  C   UNL     1       2.807   3.347  17.445  0.00  0.00    +0.000 C 
ATOM     28  O   UNL     1       1.681   3.675  17.069  0.00  0.00    +0.000 OA
ENDBRANCH  18  27
ENDBRANCH  16  25
ENDBRANCH   1  16
TORSDOF 7
ENDMDL
MODEL 5
REMARK VINA RESULT:      -7.3      4.203      5.377
REMARK  Name = 
REMARK  8 active torsions:
REMARK  status: ('A' for Active; 'I' for Inactive)
REMARK    1  A    between atoms: C_1  and  C_2
REMARK    2  A    between atoms: C_2  and  C_4
REMARK    3  A    between atoms: C_11  and  N_12
REMARK    4  A    between atoms: N_12  and  C_13
REMARK    5  A    between atoms: C_13  and  C_14
REMARK    6  A    between atoms: N_16  and  C_17
REMARK    7  A    between atoms: C_22  and  C_23
REMARK    8  A    between atoms: C_23  and  O_25
REMARK                            x       y       z     vdW  Elec       q    Type
REMARK                         _______ _______ _______ _____ _____    ______ ____
ROOT
ATOM      1  C   UNL     1       2.565   7.708  18.916  0.00  0.00    +0.000 C 
ENDROOT
BRANCH   1   2
ATOM      2  C   UNL     1       1.761   8.941  18.508  0.00  0.00    +0.000 C 
ATOM      3  O   UNL     1       1.969   9.514  17.441  0.00  0.00    +0.000 OA
ATOM      4  N   UNL     1       0.772   9.277  19.416  0.00  0.00    +0.000 N 
ATOM      5  H   UNL     1       1.024   9.083  20.388  0.00  0.00    +0.000 HD
BRANCH   4   6
ATOM      6  C   UNL     1      -0.192  10.283  19.169  0.00  0.00    +0.000 A 
ATOM      7  C   UNL     1      -1.136  10.109  18.147  0.00  0.00    +0.000 A 
ATOM      8  C   UNL     1      -2.110  11.076  17.897  0.00  0.00    +0.000 A 
ATOM      9  C   UNL     1      -2.140  12.242  18.654  0.00  0.00    +0.000 A 
ATOM     10  C   UNL     1      -1.207  12.433  19.679  0.00  0.00    +0.000 A 
ATOM     11  C   UNL     1      -0.247  11.442  19.962  0.00  0.00    +0.000 A 
BRANCH  11  12
ATOM     12  C   UNL     1       0.768  11.659  21.029  0.00  0.00    +0.000 C 
ATOM     13  O   UNL     1       1.522  12.621  21.042  0.00  0.00    +0.000 OA
BRANCH  12  14
ATOM     14  O   UNL     1       0.837  10.673  21.947  0.00  0.00    +0.000 OA
ATOM     15  H   UNL     1       1.731  10.340  22.141  0.00  0.00    +0.000 HD
ENDBRANCH  12  14
ENDBRANCH  11  12
ENDBRANCH   4   6
ENDBRANCH   1   2
BRANCH   1  16
ATOM     16  N   UNL     1       3.317   7.114  17.784  0.00  0.00    +0.000 N 
ATOM     17  H   UNL     1       2.963   7.519  16.916  0.00  0.00    +0.000 HD
BRANCH  16  25
ATOM     18  C   UNL     1       4.321   4.931  17.103  0.00  0.00    +0.000 A 
ATOM     19  C   UNL     1       4.216   3.526  17.040  0.00  0.00    +0.000 A 
ATOM     20  C   UNL     1       3.159   2.866  17.649  0.00  0.00    +0.000 A 
ATOM     21  F   UNL     1       3.087   1.530  17.562  0.00  0.00    +0.000 F 
ATOM     22  C   UNL     1       2.205   3.584  18.352  0.00  0.00    +0.000 A 
ATOM     23 CL   UNL     1       0.906   2.784  19.148  0.00  0.00    +0.000 Cl
ATOM     24  C   UNL     1       2.291   4.977  18.408  0.00  0.00    +0.000 A 
ATOM     25  C   UNL     1       3.304   5.694  17.731  0.00  0.00    +0.000 A 
BRANCH  18  27
ATOM     26  C   UNL     1       6.812   4.712  16.399  0.00  0.00    +0.000 C 
ATOM     27  C   UNL     1       5.526   5.492  16.424  0.00  0.00    +0.000 C 
ATOM     28  O   UNL     1       5.432   6.579  15.853  0.00  0.00    +0.000 OA
ENDBRANCH  18  27
ENDBRANCH  16  25
ENDBRANCH   1  16
TORSDOF 7
ENDMDL
MODEL 6
REMARK VINA RESULT:      -7.3      4.443      5.824
REMARK  Name = 
REMARK  8 active torsions:
REMARK  status: ('A' for Active; 'I' for Inactive)
REMARK    1  A    between atoms: C_1  and  C_2
REMARK    2  A    between atoms: C_2  and  C_4
REMARK    3  A    between atoms: C_11  and  N_12
REMARK    4  A    between atoms: N_12  and  C_13
REMARK    5  A    between atoms: C_13  and  C_14
REMARK    6  A    between atoms: N_16  and  C_17
REMARK    7  A    between atoms: C_22  and  C_23
REMARK    8  A    between atoms: C_23  and  O_25
REMARK                            x       y       z     vdW  Elec       q    Type
REMARK                         _______ _______ _______ _____ _____    ______ ____
ROOT
ATOM      1  C   UNL     1       2.465   8.246  17.687  0.00  0.00    +0.000 C 
ENDROOT
BRANCH   1   2
ATOM      2  C   UNL     1       1.492   9.059  18.538  0.00  0.00    +0.000 C 
ATOM      3  O   UNL     1       1.385   8.863  19.747  0.00  0.00    +0.000 OA
ATOM      4  N   UNL     1       0.827  10.042  17.826  0.00  0.00    +0.000 N 
ATOM      5  H   UNL     1       0.623   9.781  16.859  0.00  0.00    +0.000 HD
BRANCH   4   6
ATOM      6  C   UNL     1      -0.000  11.012  18.439  0.00  0.00    +0.000 A 
ATOM      7  C   UNL     1      -1.355  10.730  18.666  0.00  0.00    +0.000 A 
ATOM      8  C   UNL     1      -2.188  11.661  19.288  0.00  0.00    +0.000 A 
ATOM      9  C   UNL     1      -1.680  12.897  19.672  0.00  0.00    +0.000 A 
ATOM     10  C   UNL     1      -0.332  13.196  19.455  0.00  0.00    +0.000 A 
ATOM     11  C   UNL     1       0.523  12.245  18.864  0.00  0.00    +0.000 A 
BRANCH  11  12
ATOM     12  C   UNL     1       1.950  12.575  18.599  0.00  0.00    +0.000 C 
ATOM     13  O   UNL     1       2.683  13.076  19.440  0.00  0.00    +0.000 OA
BRANCH  12  14
ATOM     14  O   UNL     1       2.355  12.338  17.335  0.00  0.00    +0.000 OA
ATOM     15  H   UNL     1       1.936  11.577  16.895  0.00  0.00    +0.000 HD
ENDBRANCH  12  14
ENDBRANCH  11  12
ENDBRANCH   4   6
ENDBRANCH   1   2
BRANCH   1  16
ATOM     16  N   UNL     1       3.304   7.327  18.494  0.00  0.00    +0.000 N 
ATOM     17  H   UNL     1       4.279   7.617  18.400  0.00  0.00    +0.000 HD
BRANCH  16  25
ATOM     18  C   UNL     1       3.997   5.247  17.297  0.00  0.00    +0.000 A 
ATOM     19  C   UNL     1       3.750   3.891  17.001  0.00  0.00    +0.000 A 
ATOM     20  C   UNL     1       2.722   3.203  17.630  0.00  0.00    +0.000 A 
ATOM     21  F   UNL     1       2.512   1.917  17.318  0.00  0.00    +0.000 F 
ATOM     22  C   UNL     1       1.942   3.841  18.580  0.00  0.00    +0.000 A 
ATOM     23 CL   UNL     1       0.685   2.998  19.402  0.00  0.00    +0.000 Cl
ATOM     24  C   UNL     1       2.167   5.189  18.870  0.00  0.00    +0.000 A 
ATOM     25  C   UNL     1       3.148   5.948  18.192  0.00  0.00    +0.000 A 
BRANCH  18  27
ATOM     26  C   UNL     1       5.528   5.321  15.200  0.00  0.00    +0.000 C 
ATOM     27  C   UNL     1       5.152   5.841  16.561  0.00  0.00    +0.000 C 
ATOM     28  O   UNL     1       5.756   6.786  17.069  0.00  0.00    +0.000 OA
ENDBRANCH  18  27
ENDBRANCH  16  25
ENDBRANCH   1  16
TORSDOF 7
ENDMDL
MODEL 7
REMARK VINA RESULT:      -7.2      4.355      5.750
REMARK  Name = 
REMARK  8 active torsions:
REMARK  status: ('A' for Active; 'I' for Inactive)
REMARK    1  A    between atoms: C_1  and  C_2
REMARK    2  A    between atoms: C_2  and  C_4
REMARK    3  A    between atoms: C_11  and  N_12
REMARK    4  A    between atoms: N_12  and  C_13
REMARK    5  A    between atoms: C_13  and  C_14
REMARK    6  A    between atoms: N_16  and  C_17
REMARK    7  A    between atoms: C_22  and  C_23
REMARK    8  A    between atoms: C_23  and  O_25
REMARK                            x       y       z     vdW  Elec       q    Type
REMARK                         _______ _______ _______ _____ _____    ______ ____
ROOT
ATOM      1  C   UNL     1       2.176   8.277  17.591  0.00  0.00    +0.000 C 
ENDROOT
BRANCH   1   2
ATOM      2  C   UNL     1       1.512   9.252  18.561  0.00  0.00    +0.000 C 
ATOM      3  O   UNL     1       1.316   8.948  19.736  0.00  0.00    +0.000 OA
ATOM      4  N   UNL     1       1.234  10.484  17.997  0.00  0.00    +0.000 N 
ATOM      5  H   UNL     1       0.977  10.435  17.009  0.00  0.00    +0.000 HD
BRANCH   4   6
ATOM      6  C   UNL     1       0.766  11.588  18.748  0.00  0.00    +0.000 A 
ATOM      7  C   UNL     1       1.663  12.328  19.533  0.00  0.00    +0.000 A 
ATOM      8  C   UNL     1       1.231  13.434  20.267  0.00  0.00    +0.000 A 
ATOM      9  C   UNL     1      -0.109  13.802  20.241  0.00  0.00    +0.000 A 
ATOM     10  C   UNL     1      -1.018  13.078  19.464  0.00  0.00    +0.000 A 
ATOM     11  C   UNL     1      -0.580  11.985  18.690  0.00  0.00    +0.000 A 
BRANCH  11  12
ATOM     12  C   UNL     1      -1.553  11.191  17.889  0.00  0.00    +0.000 C 
ATOM     13  O   UNL     1      -1.925  10.073  18.216  0.00  0.00    +0.000 OA
BRANCH  12  14
ATOM     14  O   UNL     1      -1.941  11.776  16.738  0.00  0.00    +0.000 OA
ATOM     15  H   UNL     1      -1.302  12.396  16.345  0.00  0.00    +0.000 HD
ENDBRANCH  12  14
ENDBRANCH  11  12
ENDBRANCH   4   6
ENDBRANCH   1   2
BRANCH   1  16
ATOM     16  N   UNL     1       3.272   7.498  18.219  0.00  0.00    +0.000 N 
ATOM     17  H   UNL     1       4.162   7.876  17.891  0.00  0.00    +0.000 HD
BRANCH  16  25
ATOM     18  C   UNL     1       4.123   5.381  17.205  0.00  0.00    +0.000 A 
ATOM     19  C   UNL     1       3.965   3.994  17.006  0.00  0.00    +0.000 A 
ATOM     20  C   UNL     1       2.956   3.295  17.653  0.00  0.00    +0.000 A 
ATOM     21  F   UNL     1       2.831   1.979  17.434  0.00  0.00    +0.000 F 
ATOM     22  C   UNL     1       2.108   3.954  18.528  0.00  0.00    +0.000 A 
ATOM     23 CL   UNL     1       0.874   3.101  19.372  0.00  0.00    +0.000 Cl
ATOM     24  C   UNL     1       2.246   5.330  18.722  0.00  0.00    +0.000 A 
ATOM     25  C   UNL     1       3.205   6.094  18.018  0.00  0.00    +0.000 A 
BRANCH  18  27
ATOM     26  C   UNL     1       6.649   5.407  16.598  0.00  0.00    +0.000 C 
ATOM     27  C   UNL     1       5.267   5.987  16.462  0.00  0.00    +0.000 C 
ATOM     28  O   UNL     1       5.048   6.935  15.708  0.00  0.00    +0.000 OA
ENDBRANCH  18  27
ENDBRANCH  16  25
ENDBRANCH   1  16
TORSDOF 7
ENDMDL
MODEL 8
REMARK VINA RESULT:      -7.2      4.810      8.164
REMARK  Name = 
REMARK  8 active torsions:
REMARK  status: ('A' for Active; 'I' for Inactive)
REMARK    1  A    between atoms: C_1  and  C_2
REMARK    2  A    between atoms: C_2  and  C_4
REMARK    3  A    between atoms: C_11  and  N_12
REMARK    4  A    between atoms: N_12  and  C_13
REMARK    5  A    between atoms: C_13  and  C_14
REMARK    6  A    between atoms: N_16  and  C_17
REMARK    7  A    between atoms: C_22  and  C_23
REMARK    8  A    between atoms: C_23  and  O_25
REMARK                            x       y       z     vdW  Elec       q    Type
REMARK                         _______ _______ _______ _____ _____    ______ ____
ROOT
ATOM      1  C   UNL     1       1.918   8.775  18.473  0.00  0.00    +0.000 C 
ENDROOT
BRANCH   1   2
ATOM      2  C   UNL     1       2.234   7.347  18.915  0.00  0.00    +0.000 C 
ATOM      3  O   UNL     1       2.115   7.002  20.089  0.00  0.00    +0.000 OA
ATOM      4  N   UNL     1       2.588   6.514  17.869  0.00  0.00    +0.000 N 
ATOM      5  H   UNL     1       3.109   6.986  17.126  0.00  0.00    +0.000 HD
BRANCH   4   6
ATOM      6  C   UNL     1       2.769   5.119  18.021  0.00  0.00    +0.000 A 
ATOM      7  C   UNL     1       1.673   4.255  17.888  0.00  0.00    +0.000 A 
ATOM      8  C   UNL     1       1.828   2.873  18.013  0.00  0.00    +0.000 A 
ATOM      9  C   UNL     1       3.080   2.339  18.294  0.00  0.00    +0.000 A 
ATOM     10  C   UNL     1       4.186   3.185  18.429  0.00  0.00    +0.000 A 
ATOM     11  C   UNL     1       4.042   4.577  18.264  0.00  0.00    +0.000 A 
BRANCH  11  12
ATOM     12  C   UNL     1       5.211   5.482  18.443  0.00  0.00    +0.000 C 
ATOM     13  O   UNL     1       5.606   6.237  17.567  0.00  0.00    +0.000 OA
BRANCH  12  14
ATOM     14  O   UNL     1       5.841   5.355  19.629  0.00  0.00    +0.000 OA
ATOM     15  H   UNL     1       6.368   6.125  19.909  0.00  0.00    +0.000 HD
ENDBRANCH  12  14
ENDBRANCH  11  12
ENDBRANCH   4   6
ENDBRANCH   1   2
BRANCH   1  16
ATOM     16  N   UNL     1       1.314   9.590  19.555  0.00  0.00    +0.000 N 
ATOM     17  H   UNL     1       1.219   9.002  20.385  0.00  0.00    +0.000 HD
BRANCH  16  25
ATOM     18  C   UNL     1      -0.533  11.200  20.037  0.00  0.00    +0.000 A 
ATOM     19  C   UNL     1      -1.785  11.738  19.674  0.00  0.00    +0.000 A 
ATOM     20  C   UNL     1      -2.400  11.365  18.487  0.00  0.00    +0.000 A 
ATOM     21  F   UNL     1      -3.594  11.891  18.178  0.00  0.00    +0.000 F 
ATOM     22  C   UNL     1      -1.772  10.477  17.630  0.00  0.00    +0.000 A 
ATOM     23 CL   UNL     1      -2.497  10.029  16.135  0.00  0.00    +0.000 Cl
ATOM     24  C   UNL     1      -0.538   9.926  17.987  0.00  0.00    +0.000 A 
ATOM     25  C   UNL     1       0.082  10.214  19.224  0.00  0.00    +0.000 A 
BRANCH  18  27
ATOM     26  C   UNL     1      -0.857  11.748  22.556  0.00  0.00    +0.000 C 
ATOM     27  C   UNL     1       0.012  11.716  21.327  0.00  0.00    +0.000 C 
ATOM     28  O   UNL     1       1.189  12.072  21.373  0.00  0.00    +0.000 OA
ENDBRANCH  18  27
ENDBRANCH  16  25
ENDBRANCH   1  16
TORSDOF 7
ENDMDL
MODEL 9
REMARK VINA RESULT:      -7.1      3.717      4.948
REMARK  Name = 
REMARK  8 active torsions:
REMARK  status: ('A' for Active; 'I' for Inactive)
REMARK    1  A    between atoms: C_1  and  C_2
REMARK    2  A    between atoms: C_2  and  C_4
REMARK    3  A    between atoms: C_11  and  N_12
REMARK    4  A    between atoms: N_12  and  C_13
REMARK    5  A    between atoms: C_13  and  C_14
REMARK    6  A    between atoms: N_16  and  C_17
REMARK    7  A    between atoms: C_22  and  C_23
REMARK    8  A    between atoms: C_23  and  O_25
REMARK                            x       y       z     vdW  Elec       q    Type
REMARK                         _______ _______ _______ _____ _____    ______ ____
ROOT
ATOM      1  C   UNL     1       2.461   8.284  17.419  0.00  0.00    +0.000 C 
ENDROOT
BRANCH   1   2
ATOM      2  C   UNL     1       1.904   9.441  18.247  0.00  0.00    +0.000 C 
ATOM      3  O   UNL     1       2.222  10.605  18.011  0.00  0.00    +0.000 OA
ATOM      4  N   UNL     1       0.990   9.041  19.205  0.00  0.00    +0.000 N 
ATOM      5  H   UNL     1       1.195   8.125  19.611  0.00  0.00    +0.000 HD
BRANCH   4   6
ATOM      6  C   UNL     1       0.232   9.953  19.977  0.00  0.00    +0.000 A 
ATOM      7  C   UNL     1      -0.675  10.816  19.346  0.00  0.00    +0.000 A 
ATOM      8  C   UNL     1      -1.449  11.710  20.086  0.00  0.00    +0.000 A 
ATOM      9  C   UNL     1      -1.311  11.767  21.468  0.00  0.00    +0.000 A 
ATOM     10  C   UNL     1      -0.412  10.914  22.116  0.00  0.00    +0.000 A 
ATOM     11  C   UNL     1       0.342   9.981  21.378  0.00  0.00    +0.000 A 
BRANCH  11  12
ATOM     12  C   UNL     1       1.325   9.096  22.061  0.00  0.00    +0.000 C 
ATOM     13  O   UNL     1       2.076   9.493  22.940  0.00  0.00    +0.000 OA
BRANCH  12  14
ATOM     14  O   UNL     1       1.369   7.834  21.587  0.00  0.00    +0.000 OA
ATOM     15  H   UNL     1       1.524   7.140  22.252  0.00  0.00    +0.000 HD
ENDBRANCH  12  14
ENDBRANCH  11  12
ENDBRANCH   4   6
ENDBRANCH   1   2
BRANCH   1  16
ATOM     16  N   UNL     1       3.425   7.449  18.177  0.00  0.00    +0.000 N 
ATOM     17  H   UNL     1       4.370   7.766  17.952  0.00  0.00    +0.000 HD
BRANCH  16  25
ATOM     18  C   UNL     1       4.168   5.295  17.156  0.00  0.00    +0.000 A 
ATOM     19  C   UNL     1       3.945   3.916  16.961  0.00  0.00    +0.000 A 
ATOM     20  C   UNL     1       2.916   3.263  17.625  0.00  0.00    +0.000 A 
ATOM     21  F   UNL     1       2.730   1.953  17.410  0.00  0.00    +0.000 F 
ATOM     22  C   UNL     1       2.111   3.960  18.510  0.00  0.00    +0.000 A 
ATOM     23 CL   UNL     1       0.853   3.164  19.374  0.00  0.00    +0.000 Cl
ATOM     24  C   UNL     1       2.312   5.329  18.699  0.00  0.00    +0.000 A 
ATOM     25  C   UNL     1       3.294   6.049  17.980  0.00  0.00    +0.000 A 
BRANCH  18  27
ATOM     26  C   UNL     1       6.691   5.230  16.540  0.00  0.00    +0.000 C 
ATOM     27  C   UNL     1       5.326   5.848  16.394  0.00  0.00    +0.000 C 
ATOM     28  O   UNL     1       5.134   6.785  15.619  0.00  0.00    +0.000 OA
ENDBRANCH  18  27
ENDBRANCH  16  25
ENDBRANCH   1  16
TORSDOF 7
ENDMDL
