MODEL 1
REMARK VINA RESULT:      -7.8      0.000      0.000
REMARK  Name = 
REMARK  8 active torsions:
REMARK  status: ('A' for Active; 'I' for Inactive)
REMARK    1  A    between atoms: C_1  and  C_2
REMARK    2  A    between atoms: C_5  and  C_6
REMARK    3  A    between atoms: C_7  and  N_8
REMARK    4  A    between atoms: C_9  and  C_11
REMARK    5  A    between atoms: N_14  and  C_15
REMARK    6  A    between atoms: C_17  and  C_18
REMARK    7  A    between atoms: C_21  and  C_22
REMARK    8  A    between atoms: C_29  and  C_30
REMARK                            x       y       z     vdW  Elec       q    Type
REMARK                         _______ _______ _______ _____ _____    ______ ____
ROOT
ATOM      1  C   UNL     1       6.256  15.836  19.247  0.00  0.00    +0.000 C 
ATOM      2  C   UNL     1       5.263  16.008  20.425  0.00  0.00    +0.000 C 
ATOM      3  C   UNL     1       4.252  14.882  20.556  0.00  0.00    +0.000 C 
ATOM      4  N   UNL     1       3.562  14.724  19.276  0.00  0.00    +0.000 N 
ATOM      5  C   UNL     1       4.474  14.184  18.258  0.00  0.00    +0.000 C 
ATOM      6  C   UNL     1       5.647  15.144  18.017  0.00  0.00    +0.000 C 
ENDROOT
BRANCH   4   7
ATOM      7  C   UNL     1       2.156  14.883  19.125  0.00  0.00    +0.000 A 
ATOM      8  C   UNL     1       1.591  16.070  18.822  0.00  0.00    +0.000 A 
ATOM      9  C   UNL     1       0.114  16.126  18.646  0.00  0.00    +0.000 A 
ATOM     10  C   UNL     1      -0.481  17.461  18.266  0.00  0.00    +0.000 C 
ATOM     11  N   UNL     1      -0.697  15.122  18.794  0.00  0.00    +0.000 NA
ATOM     12  C   UNL     1      -0.136  13.919  19.138  0.00  0.00    +0.000 A 
ATOM     13  C   UNL     1      -0.703  12.677  19.389  0.00  0.00    +0.000 A 
ATOM     14  C   UNL     1       0.393  11.832  19.701  0.00  0.00    +0.000 A 
ATOM     15  C   UNL     1       0.408  10.395  20.085  0.00  0.00    +0.000 C 
ATOM     16  N   UNL     1       1.556  12.484  19.658  0.00  0.00    +0.000 NA
ATOM     17  N   UNL     1       1.257  13.769  19.299  0.00  0.00    +0.000 N 
BRANCH  13  18
ATOM     18  C   UNL     1      -2.137  12.386  19.394  0.00  0.00    +0.000 A 
ATOM     19  C   UNL     1      -2.945  12.835  20.450  0.00  0.00    +0.000 A 
ATOM     20  C   UNL     1      -4.335  12.730  20.394  0.00  0.00    +0.000 A 
ATOM     21  C   UNL     1      -4.931  12.098  19.309  0.00  0.00    +0.000 A 
ATOM     22 CL   UNL     1      -6.643  11.956  19.245  0.00  0.00    +0.000 Cl
ATOM     23  C   UNL     1      -4.149  11.581  18.282  0.00  0.00    +0.000 A 
ATOM     24  C   UNL     1      -2.758  11.740  18.316  0.00  0.00    +0.000 A 
ENDBRANCH  13  18
ENDBRANCH   4   7
BRANCH   1  26
ATOM     25  N   UNL     1       7.932  14.114  19.143  0.00  0.00    +0.000 N 
ATOM     26  C   UNL     1       7.636  15.337  19.748  0.00  0.00    +0.000 C 
ATOM     27  O   UNL     1       8.341  15.971  20.528  0.00  0.00    +0.000 OA
ATOM     28  H   UNL     1       7.323  13.814  18.393  0.00  0.00    +0.000 HD
BRANCH  25  35
ATOM     29  C   UNL     1      12.329  13.127  17.127  0.00  0.00    +0.000 C 
ATOM     30  C   UNL     1      11.353  12.982  18.258  0.00  0.00    +0.000 A 
ATOM     31  C   UNL     1      11.723  12.315  19.430  0.00  0.00    +0.000 A 
ATOM     32  C   UNL     1      10.824  12.212  20.487  0.00  0.00    +0.000 A 
ATOM     33  C   UNL     1       9.545  12.784  20.403  0.00  0.00    +0.000 A 
ATOM     34  C   UNL     1       8.616  12.612  21.573  0.00  0.00    +0.000 C 
ATOM     35  C   UNL     1       9.159  13.425  19.207  0.00  0.00    +0.000 A 
ATOM     36  C   UNL     1      10.062  13.524  18.147  0.00  0.00    +0.000 A 
ENDBRANCH  25  35
ENDBRANCH   1  26
TORSDOF 4
ENDMDL
MODEL 2
REMARK VINA RESULT:      -7.2      5.731      7.000
REMARK  Name = 
REMARK  8 active torsions:
REMARK  status: ('A' for Active; 'I' for Inactive)
REMARK    1  A    between atoms: C_1  and  C_2
REMARK    2  A    between atoms: C_5  and  C_6
REMARK    3  A    between atoms: C_7  and  N_8
REMARK    4  A    between atoms: C_9  and  C_11
REMARK    5  A    between atoms: N_14  and  C_15
REMARK    6  A    between atoms: C_17  and  C_18
REMARK    7  A    between atoms: C_21  and  C_22
REMARK    8  A    between atoms: C_29  and  C_30
REMARK                            x       y       z     vdW  Elec       q    Type
REMARK                         _______ _______ _______ _____ _____    ______ ____
ROOT
ATOM      1  C   UNL     1       0.486   9.774  19.004  0.00  0.00    +0.000 C 
ATOM      2  C   UNL     1       0.421  11.213  18.429  0.00  0.00    +0.000 C 
ATOM      3  C   UNL     1       1.053  12.267  19.320  0.00  0.00    +0.000 C 
ATOM      4  N   UNL     1       0.449  12.180  20.648  0.00  0.00    +0.000 N 
ATOM      5  C   UNL     1       0.858  10.940  21.324  0.00  0.00    +0.000 C 
ATOM      6  C   UNL     1       0.383   9.712  20.536  0.00  0.00    +0.000 C 
ENDROOT
BRANCH   4   7
ATOM      7  C   UNL     1      -0.261  13.255  21.253  0.00  0.00    +0.000 A 
ATOM      8  C   UNL     1       0.351  14.192  22.006  0.00  0.00    +0.000 A 
ATOM      9  C   UNL     1      -0.473  15.300  22.564  0.00  0.00    +0.000 A 
ATOM     10  C   UNL     1       0.251  16.355  23.367  0.00  0.00    +0.000 C 
ATOM     11  N   UNL     1      -1.757  15.428  22.414  0.00  0.00    +0.000 NA
ATOM     12  C   UNL     1      -2.394  14.460  21.681  0.00  0.00    +0.000 A 
ATOM     13  C   UNL     1      -3.731  14.285  21.352  0.00  0.00    +0.000 A 
ATOM     14  C   UNL     1      -3.763  13.096  20.579  0.00  0.00    +0.000 A 
ATOM     15  C   UNL     1      -4.922  12.388  19.969  0.00  0.00    +0.000 C 
ATOM     16  N   UNL     1      -2.551  12.558  20.434  0.00  0.00    +0.000 NA
ATOM     17  N   UNL     1      -1.688  13.390  21.093  0.00  0.00    +0.000 N 
BRANCH  13  18
ATOM     18  C   UNL     1      -4.833  15.135  21.804  0.00  0.00    +0.000 A 
ATOM     19  C   UNL     1      -5.492  14.853  23.010  0.00  0.00    +0.000 A 
ATOM     20  C   UNL     1      -6.420  15.742  23.554  0.00  0.00    +0.000 A 
ATOM     21  C   UNL     1      -6.759  16.893  22.852  0.00  0.00    +0.000 A 
ATOM     22 CL   UNL     1      -7.911  17.984  23.513  0.00  0.00    +0.000 Cl
ATOM     23  C   UNL     1      -6.171  17.161  21.619  0.00  0.00    +0.000 A 
ATOM     24  C   UNL     1      -5.200  16.294  21.106  0.00  0.00    +0.000 A 
ENDBRANCH  13  18
ENDBRANCH   4   7
BRANCH   1  26
ATOM     25  N   UNL     1       1.906   7.835  19.106  0.00  0.00    +0.000 N 
ATOM     26  C   UNL     1       1.607   8.950  18.320  0.00  0.00    +0.000 C 
ATOM     27  O   UNL     1       2.102   9.249  17.237  0.00  0.00    +0.000 OA
ATOM     28  H   UNL     1       1.287   7.642  19.883  0.00  0.00    +0.000 HD
BRANCH  25  35
ATOM     29  C   UNL     1       5.626   6.119  16.352  0.00  0.00    +0.000 C 
ATOM     30  C   UNL     1       4.618   5.922  17.446  0.00  0.00    +0.000 A 
ATOM     31  C   UNL     1       4.625   4.753  18.212  0.00  0.00    +0.000 A 
ATOM     32  C   UNL     1       3.708   4.591  19.247  0.00  0.00    +0.000 A 
ATOM     33  C   UNL     1       2.775   5.596  19.546  0.00  0.00    +0.000 A 
ATOM     34  C   UNL     1       1.796   5.344  20.659  0.00  0.00    +0.000 C 
ATOM     35  C   UNL     1       2.743   6.761  18.749  0.00  0.00    +0.000 A 
ATOM     36  C   UNL     1       3.663   6.919  17.711  0.00  0.00    +0.000 A 
ENDBRANCH  25  35
ENDBRANCH   1  26
TORSDOF 4
ENDMDL
MODEL 3
REMARK VINA RESULT:      -7.1      6.394      7.733
REMARK  Name = 
REMARK  8 active torsions:
REMARK  status: ('A' for Active; 'I' for Inactive)
REMARK    1  A    between atoms: C_1  and  C_2
REMARK    2  A    between atoms: C_5  and  C_6
REMARK    3  A    between atoms: C_7  and  N_8
REMARK    4  A    between atoms: C_9  and  C_11
REMARK    5  A    between atoms: N_14  and  C_15
REMARK    6  A    between atoms: C_17  and  C_18
REMARK    7  A    between atoms: C_21  and  C_22
REMARK    8  A    between atoms: C_29  and  C_30
REMARK                            x       y       z     vdW  Elec       q    Type
REMARK                         _______ _______ _______ _____ _____    ______ ____
ROOT
ATOM      1  C   UNL     1       1.828   5.579  18.625  0.00  0.00    +0.000 C 
ATOM      2  C   UNL     1       1.474   6.634  17.545  0.00  0.00    +0.000 C 
ATOM      3  C   UNL     1       2.027   8.021  17.826  0.00  0.00    +0.000 C 
ATOM      4  N   UNL     1       1.592   8.435  19.160  0.00  0.00    +0.000 N 
ATOM      5  C   UNL     1       2.263   7.635  20.195  0.00  0.00    +0.000 C 
ATOM      6  C   UNL     1       1.904   6.150  20.050  0.00  0.00    +0.000 C 
ENDROOT
BRANCH   4   7
ATOM      7  C   UNL     1       0.792   9.588  19.395  0.00  0.00    +0.000 A 
ATOM      8  C   UNL     1       0.440  10.436  18.408  0.00  0.00    +0.000 A 
ATOM      9  C   UNL     1      -0.433  11.594  18.748  0.00  0.00    +0.000 A 
ATOM     10  C   UNL     1      -0.844  12.500  17.611  0.00  0.00    +0.000 C 
ATOM     11  N   UNL     1      -0.864  11.883  19.938  0.00  0.00    +0.000 NA
ATOM     12  C   UNL     1      -0.480  11.047  20.956  0.00  0.00    +0.000 A 
ATOM     13  C   UNL     1      -0.739  11.077  22.319  0.00  0.00    +0.000 A 
ATOM     14  C   UNL     1      -0.062   9.945  22.843  0.00  0.00    +0.000 A 
ATOM     15  C   UNL     1       0.049   9.470  24.248  0.00  0.00    +0.000 C 
ATOM     16  N   UNL     1       0.578   9.260  21.894  0.00  0.00    +0.000 NA
ATOM     17  N   UNL     1       0.323   9.912  20.719  0.00  0.00    +0.000 N 
BRANCH  13  18
ATOM     18  C   UNL     1      -1.489  12.122  23.016  0.00  0.00    +0.000 A 
ATOM     19  C   UNL     1      -0.932  13.398  23.182  0.00  0.00    +0.000 A 
ATOM     20  C   UNL     1      -1.689  14.460  23.680  0.00  0.00    +0.000 A 
ATOM     21  C   UNL     1      -2.997  14.234  24.093  0.00  0.00    +0.000 A 
ATOM     22 CL   UNL     1      -3.927  15.538  24.718  0.00  0.00    +0.000 Cl
ATOM     23  C   UNL     1      -3.551  12.961  24.005  0.00  0.00    +0.000 A 
ATOM     24  C   UNL     1      -2.805  11.913  23.452  0.00  0.00    +0.000 A 
ENDBRANCH  13  18
ENDBRANCH   4   7
BRANCH   1  26
ATOM     25  N   UNL     1       3.761   5.344  17.213  0.00  0.00    +0.000 N 
ATOM     26  C   UNL     1       2.983   4.661  18.151  0.00  0.00    +0.000 C 
ATOM     27  O   UNL     1       3.170   3.528  18.586  0.00  0.00    +0.000 OA
ATOM     28  H   UNL     1       3.573   6.331  17.093  0.00  0.00    +0.000 HD
BRANCH  25  35
ATOM     29  C   UNL     1       6.358   3.840  13.294  0.00  0.00    +0.000 C 
ATOM     30  C   UNL     1       6.296   4.239  14.740  0.00  0.00    +0.000 A 
ATOM     31  C   UNL     1       7.468   4.349  15.494  0.00  0.00    +0.000 A 
ATOM     32  C   UNL     1       7.406   4.751  16.825  0.00  0.00    +0.000 A 
ATOM     33  C   UNL     1       6.177   5.063  17.426  0.00  0.00    +0.000 A 
ATOM     34  C   UNL     1       6.180   5.466  18.875  0.00  0.00    +0.000 C 
ATOM     35  C   UNL     1       4.991   4.917  16.676  0.00  0.00    +0.000 A 
ATOM     36  C   UNL     1       5.057   4.511  15.341  0.00  0.00    +0.000 A 
ENDBRANCH  25  35
ENDBRANCH   1  26
TORSDOF 4
ENDMDL
MODEL 4
REMARK VINA RESULT:      -7.1      5.871      8.002
REMARK  Name = 
REMARK  8 active torsions:
REMARK  status: ('A' for Active; 'I' for Inactive)
REMARK    1  A    between atoms: C_1  and  C_2
REMARK    2  A    between atoms: C_5  and  C_6
REMARK    3  A    between atoms: C_7  and  N_8
REMARK    4  A    between atoms: C_9  and  C_11
REMARK    5  A    between atoms: N_14  and  C_15
REMARK    6  A    between atoms: C_17  and  C_18
REMARK    7  A    between atoms: C_21  and  C_22
REMARK    8  A    between atoms: C_29  and  C_30
REMARK                            x       y       z     vdW  Elec       q    Type
REMARK                         _______ _______ _______ _____ _____    ______ ____
ROOT
ATOM      1  C   UNL     1       1.614   5.609  18.738  0.00  0.00    +0.000 C 
ATOM      2  C   UNL     1       1.658   6.987  18.029  0.00  0.00    +0.000 C 
ATOM      3  C   UNL     1       2.334   8.081  18.837  0.00  0.00    +0.000 C 
ATOM      4  N   UNL     1       1.691   8.159  20.148  0.00  0.00    +0.000 N 
ATOM      5  C   UNL     1       2.001   6.967  20.949  0.00  0.00    +0.000 C 
ATOM      6  C   UNL     1       1.468   5.701  20.265  0.00  0.00    +0.000 C 
ENDROOT
BRANCH   4   7
ATOM      7  C   UNL     1       1.036   9.330  20.625  0.00  0.00    +0.000 A 
ATOM      8  C   UNL     1       0.170   9.302  21.659  0.00  0.00    +0.000 A 
ATOM      9  C   UNL     1      -0.433  10.586  22.111  0.00  0.00    +0.000 A 
ATOM     10  C   UNL     1      -1.366  10.525  23.297  0.00  0.00    +0.000 C 
ATOM     11  N   UNL     1      -0.221  11.746  21.566  0.00  0.00    +0.000 NA
ATOM     12  C   UNL     1       0.629  11.778  20.490  0.00  0.00    +0.000 A 
ATOM     13  C   UNL     1       1.048  12.824  19.680  0.00  0.00    +0.000 A 
ATOM     14  C   UNL     1       1.923  12.226  18.737  0.00  0.00    +0.000 A 
ATOM     15  C   UNL     1       2.657  12.840  17.598  0.00  0.00    +0.000 C 
ATOM     16  N   UNL     1       2.043  10.911  18.928  0.00  0.00    +0.000 NA
ATOM     17  N   UNL     1       1.266  10.614  20.013  0.00  0.00    +0.000 N 
BRANCH  13  18
ATOM     18  C   UNL     1       0.588  14.210  19.779  0.00  0.00    +0.000 A 
ATOM     19  C   UNL     1       1.012  15.019  20.844  0.00  0.00    +0.000 A 
ATOM     20  C   UNL     1       0.737  16.388  20.867  0.00  0.00    +0.000 A 
ATOM     21  C   UNL     1      -0.038  16.948  19.859  0.00  0.00    +0.000 A 
ATOM     22 CL   UNL     1      -0.389  18.631  19.893  0.00  0.00    +0.000 Cl
ATOM     23  C   UNL     1      -0.531  16.154  18.828  0.00  0.00    +0.000 A 
ATOM     24  C   UNL     1      -0.204  14.793  18.780  0.00  0.00    +0.000 A 
ENDBRANCH  13  18
ENDBRANCH   4   7
BRANCH   1  26
ATOM     25  N   UNL     1       3.641   5.400  17.460  0.00  0.00    +0.000 N 
ATOM     26  C   UNL     1       2.697   4.655  18.172  0.00  0.00    +0.000 C 
ATOM     27  O   UNL     1       2.706   3.445  18.374  0.00  0.00    +0.000 OA
ATOM     28  H   UNL     1       3.582   6.407  17.534  0.00  0.00    +0.000 HD
BRANCH  25  35
ATOM     29  C   UNL     1       6.268   3.908  13.556  0.00  0.00    +0.000 C 
ATOM     30  C   UNL     1       6.185   4.252  15.014  0.00  0.00    +0.000 A 
ATOM     31  C   UNL     1       7.338   4.265  15.805  0.00  0.00    +0.000 A 
ATOM     32  C   UNL     1       7.258   4.617  17.149  0.00  0.00    +0.000 A 
ATOM     33  C   UNL     1       6.030   4.974  17.728  0.00  0.00    +0.000 A 
ATOM     34  C   UNL     1       6.012   5.318  19.192  0.00  0.00    +0.000 C 
ATOM     35  C   UNL     1       4.861   4.925  16.940  0.00  0.00    +0.000 A 
ATOM     36  C   UNL     1       4.945   4.570  15.592  0.00  0.00    +0.000 A 
ENDBRANCH  25  35
ENDBRANCH   1  26
TORSDOF 4
ENDMDL
MODEL 5
REMARK VINA RESULT:      -7.0      5.776      7.605
REMARK  Name = 
REMARK  8 active torsions:
REMARK  status: ('A' for Active; 'I' for Inactive)
REMARK    1  A    between atoms: C_1  and  C_2
REMARK    2  A    between atoms: C_5  and  C_6
REMARK    3  A    between atoms: C_7  and  N_8
REMARK    4  A    between atoms: C_9  and  C_11
REMARK    5  A    between atoms: N_14  and  C_15
REMARK    6  A    between atoms: C_17  and  C_18
REMARK    7  A    between atoms: C_21  and  C_22
REMARK    8  A    between atoms: C_29  and  C_30
REMARK                            x       y       z     vdW  Elec       q    Type
REMARK                         _______ _______ _______ _____ _____    ______ ____
ROOT
ATOM      1  C   UNL     1       1.792   9.656  19.193  0.00  0.00    +0.000 C 
ATOM      2  C   UNL     1       0.690   9.451  20.264  0.00  0.00    +0.000 C 
ATOM      3  C   UNL     1      -0.623  10.146  19.947  0.00  0.00    +0.000 C 
ATOM      4  N   UNL     1      -0.353  11.562  19.703  0.00  0.00    +0.000 N 
ATOM      5  C   UNL     1       0.385  11.739  18.444  0.00  0.00    +0.000 C 
ATOM      6  C   UNL     1       1.745  11.032  18.509  0.00  0.00    +0.000 C 
ENDROOT
BRANCH   4   7
ATOM      7  C   UNL     1      -0.920  12.609  20.483  0.00  0.00    +0.000 A 
ATOM      8  C   UNL     1      -0.179  13.373  21.311  0.00  0.00    +0.000 A 
ATOM      9  C   UNL     1      -0.857  14.470  22.057  0.00  0.00    +0.000 A 
ATOM     10  C   UNL     1       0.009  15.334  22.943  0.00  0.00    +0.000 C 
ATOM     11  N   UNL     1      -2.127  14.738  22.004  0.00  0.00    +0.000 NA
ATOM     12  C   UNL     1      -2.895  13.941  21.194  0.00  0.00    +0.000 A 
ATOM     13  C   UNL     1      -4.257  13.940  20.928  0.00  0.00    +0.000 A 
ATOM     14  C   UNL     1      -4.448  12.874  20.012  0.00  0.00    +0.000 A 
ATOM     15  C   UNL     1      -5.701  12.367  19.389  0.00  0.00    +0.000 C 
ATOM     16  N   UNL     1      -3.305  12.248  19.725  0.00  0.00    +0.000 NA
ATOM     17  N   UNL     1      -2.331  12.898  20.430  0.00  0.00    +0.000 N 
BRANCH  13  18
ATOM     18  C   UNL     1      -5.243  14.822  21.553  0.00  0.00    +0.000 A 
ATOM     19  C   UNL     1      -5.761  14.515  22.821  0.00  0.00    +0.000 A 
ATOM     20  C   UNL     1      -6.561  15.424  23.516  0.00  0.00    +0.000 A 
ATOM     21  C   UNL     1      -6.918  16.623  22.912  0.00  0.00    +0.000 A 
ATOM     22 CL   UNL     1      -7.914  17.738  23.761  0.00  0.00    +0.000 Cl
ATOM     23  C   UNL     1      -6.477  16.921  21.627  0.00  0.00    +0.000 A 
ATOM     24  C   UNL     1      -5.628  16.031  20.957  0.00  0.00    +0.000 A 
ENDBRANCH  13  18
ENDBRANCH   4   7
BRANCH   1  26
ATOM     25  N   UNL     1       2.721   7.452  18.939  0.00  0.00    +0.000 N 
ATOM     26  C   UNL     1       1.932   8.404  18.289  0.00  0.00    +0.000 C 
ATOM     27  O   UNL     1       1.386   8.294  17.195  0.00  0.00    +0.000 OA
ATOM     28  H   UNL     1       2.950   7.630  19.908  0.00  0.00    +0.000 HD
BRANCH  25  35
ATOM     29  C   UNL     1       1.073   2.811  18.594  0.00  0.00    +0.000 C 
ATOM     30  C   UNL     1       2.113   3.850  18.289  0.00  0.00    +0.000 A 
ATOM     31  C   UNL     1       3.197   3.543  17.461  0.00  0.00    +0.000 A 
ATOM     32  C   UNL     1       4.140   4.520  17.156  0.00  0.00    +0.000 A 
ATOM     33  C   UNL     1       4.014   5.824  17.659  0.00  0.00    +0.000 A 
ATOM     34  C   UNL     1       5.083   6.823  17.310  0.00  0.00    +0.000 C 
ATOM     35  C   UNL     1       2.941   6.124  18.524  0.00  0.00    +0.000 A 
ATOM     36  C   UNL     1       1.998   5.141  18.830  0.00  0.00    +0.000 A 
ENDBRANCH  25  35
ENDBRANCH   1  26
TORSDOF 4
ENDMDL
MODEL 6
REMARK VINA RESULT:      -7.0      5.774      7.661
REMARK  Name = 
REMARK  8 active torsions:
REMARK  status: ('A' for Active; 'I' for Inactive)
REMARK    1  A    between atoms: C_1  and  C_2
REMARK    2  A    between atoms: C_5  and  C_6
REMARK    3  A    between atoms: C_7  and  N_8
REMARK    4  A    between atoms: C_9  and  C_11
REMARK    5  A    between atoms: N_14  and  C_15
REMARK    6  A    between atoms: C_17  and  C_18
REMARK    7  A    between atoms: C_21  and  C_22
REMARK    8  A    between atoms: C_29  and  C_30
REMARK                            x       y       z     vdW  Elec       q    Type
REMARK                         _______ _______ _______ _____ _____    ______ ____
ROOT
ATOM      1  C   UNL     1       1.375  10.115  19.439  0.00  0.00    +0.000 C 
ATOM      2  C   UNL     1      -0.055  10.243  20.024  0.00  0.00    +0.000 C 
ATOM      3  C   UNL     1      -0.952  11.208  19.267  0.00  0.00    +0.000 C 
ATOM      4  N   UNL     1      -0.277  12.502  19.181  0.00  0.00    +0.000 N 
ATOM      5  C   UNL     1       0.888  12.421  18.288  0.00  0.00    +0.000 C 
ATOM      6  C   UNL     1       1.915  11.417  18.828  0.00  0.00    +0.000 C 
ENDROOT
BRANCH   4   7
ATOM      7  C   UNL     1      -0.816  13.699  19.730  0.00  0.00    +0.000 A 
ATOM      8  C   UNL     1      -0.602  14.909  19.173  0.00  0.00    +0.000 A 
ATOM      9  C   UNL     1      -1.242  16.099  19.800  0.00  0.00    +0.000 A 
ATOM     10  C   UNL     1      -1.017  17.432  19.126  0.00  0.00    +0.000 C 
ATOM     11  N   UNL     1      -1.973  16.078  20.873  0.00  0.00    +0.000 NA
ATOM     12  C   UNL     1      -2.164  14.858  21.468  0.00  0.00    +0.000 A 
ATOM     13  C   UNL     1      -2.858  14.491  22.613  0.00  0.00    +0.000 A 
ATOM     14  C   UNL     1      -2.685  13.085  22.709  0.00  0.00    +0.000 A 
ATOM     15  C   UNL     1      -3.173  12.135  23.744  0.00  0.00    +0.000 C 
ATOM     16  N   UNL     1      -1.939  12.603  21.713  0.00  0.00    +0.000 NA
ATOM     17  N   UNL     1      -1.619  13.675  20.927  0.00  0.00    +0.000 N 
BRANCH  13  18
ATOM     18  C   UNL     1      -3.535  15.412  23.526  0.00  0.00    +0.000 A 
ATOM     19  C   UNL     1      -2.787  16.210  24.405  0.00  0.00    +0.000 A 
ATOM     20  C   UNL     1      -3.388  17.222  25.155  0.00  0.00    +0.000 A 
ATOM     21  C   UNL     1      -4.766  17.394  25.092  0.00  0.00    +0.000 A 
ATOM     22 CL   UNL     1      -5.511  18.631  26.025  0.00  0.00    +0.000 Cl
ATOM     23  C   UNL     1      -5.540  16.569  24.283  0.00  0.00    +0.000 A 
ATOM     24  C   UNL     1      -4.924  15.593  23.489  0.00  0.00    +0.000 A 
ENDBRANCH  13  18
ENDBRANCH   4   7
BRANCH   1  26
ATOM     25  N   UNL     1       2.255   7.878  19.353  0.00  0.00    +0.000 N 
ATOM     26  C   UNL     1       1.526   8.811  18.613  0.00  0.00    +0.000 C 
ATOM     27  O   UNL     1       1.032   8.654  17.501  0.00  0.00    +0.000 OA
ATOM     28  H   UNL     1       2.441   8.104  20.322  0.00  0.00    +0.000 HD
BRANCH  25  35
ATOM     29  C   UNL     1       0.884   3.162  19.845  0.00  0.00    +0.000 C 
ATOM     30  C   UNL     1       1.752   4.205  19.205  0.00  0.00    +0.000 A 
ATOM     31  C   UNL     1       2.630   3.858  18.174  0.00  0.00    +0.000 A 
ATOM     32  C   UNL     1       3.408   4.836  17.562  0.00  0.00    +0.000 A 
ATOM     33  C   UNL     1       3.318   6.180  17.957  0.00  0.00    +0.000 A 
ATOM     34  C   UNL     1       4.207   7.180  17.271  0.00  0.00    +0.000 C 
ATOM     35  C   UNL     1       2.459   6.524  19.023  0.00  0.00    +0.000 A 
ATOM     36  C   UNL     1       1.681   5.540  19.636  0.00  0.00    +0.000 A 
ENDBRANCH  25  35
ENDBRANCH   1  26
TORSDOF 4
ENDMDL
MODEL 7
REMARK VINA RESULT:      -6.9      2.257      2.522
REMARK  Name = 
REMARK  8 active torsions:
REMARK  status: ('A' for Active; 'I' for Inactive)
REMARK    1  A    between atoms: C_1  and  C_2
REMARK    2  A    between atoms: C_5  and  C_6
REMARK    3  A    between atoms: C_7  and  N_8
REMARK    4  A    between atoms: C_9  and  C_11
REMARK    5  A    between atoms: N_14  and  C_15
REMARK    6  A    between atoms: C_17  and  C_18
REMARK    7  A    between atoms: C_21  and  C_22
REMARK    8  A    between atoms: C_29  and  C_30
REMARK                            x       y       z     vdW  Elec       q    Type
REMARK                         _______ _______ _______ _____ _____    ______ ____
ROOT
ATOM      1  C   UNL     1       5.615  15.233  19.068  0.00  0.00    +0.000 C 
ATOM      2  C   UNL     1       5.461  15.181  20.610  0.00  0.00    +0.000 C 
ATOM      3  C   UNL     1       4.469  14.141  21.102  0.00  0.00    +0.000 C 
ATOM      4  N   UNL     1       3.189  14.365  20.431  0.00  0.00    +0.000 N 
ATOM      5  C   UNL     1       3.286  14.027  19.003  0.00  0.00    +0.000 C 
ATOM      6  C   UNL     1       4.318  14.922  18.304  0.00  0.00    +0.000 C 
ENDROOT
BRANCH   4   7
ATOM      7  C   UNL     1       1.986  14.667  21.129  0.00  0.00    +0.000 A 
ATOM      8  C   UNL     1       1.828  15.803  21.837  0.00  0.00    +0.000 A 
ATOM      9  C   UNL     1       0.517  16.047  22.500  0.00  0.00    +0.000 A 
ATOM     10  C   UNL     1       0.359  17.349  23.249  0.00  0.00    +0.000 C 
ATOM     11  N   UNL     1      -0.493  15.231  22.485  0.00  0.00    +0.000 NA
ATOM     12  C   UNL     1      -0.329  14.055  21.799  0.00  0.00    +0.000 A 
ATOM     13  C   UNL     1      -1.180  12.976  21.604  0.00  0.00    +0.000 A 
ATOM     14  C   UNL     1      -0.437  12.064  20.811  0.00  0.00    +0.000 A 
ATOM     15  C   UNL     1      -0.813  10.716  20.307  0.00  0.00    +0.000 C 
ATOM     16  N   UNL     1       0.785  12.522  20.532  0.00  0.00    +0.000 NA
ATOM     17  N   UNL     1       0.869  13.755  21.118  0.00  0.00    +0.000 N 
BRANCH  13  18
ATOM     18  C   UNL     1      -2.516  12.835  22.185  0.00  0.00    +0.000 A 
ATOM     19  C   UNL     1      -2.665  12.432  23.521  0.00  0.00    +0.000 A 
ATOM     20  C   UNL     1      -3.909  12.463  24.152  0.00  0.00    +0.000 A 
ATOM     21  C   UNL     1      -5.038  12.823  23.425  0.00  0.00    +0.000 A 
ATOM     22 CL   UNL     1      -6.573  12.848  24.198  0.00  0.00    +0.000 Cl
ATOM     23  C   UNL     1      -4.928  13.158  22.079  0.00  0.00    +0.000 A 
ATOM     24  C   UNL     1      -3.669  13.180  21.467  0.00  0.00    +0.000 A 
ENDBRANCH  13  18
ENDBRANCH   4   7
BRANCH   1  26
ATOM     25  N   UNL     1       7.806  14.455  19.683  0.00  0.00    +0.000 N 
ATOM     26  C   UNL     1       6.912  14.517  18.612  0.00  0.00    +0.000 C 
ATOM     27  O   UNL     1       7.071  14.058  17.484  0.00  0.00    +0.000 OA
ATOM     28  H   UNL     1       7.454  14.727  20.591  0.00  0.00    +0.000 HD
BRANCH  25  35
ATOM     29  C   UNL     1      12.333  13.725  17.854  0.00  0.00    +0.000 C 
ATOM     30  C   UNL     1      11.274  13.415  18.872  0.00  0.00    +0.000 A 
ATOM     31  C   UNL     1      11.550  12.556  19.939  0.00  0.00    +0.000 A 
ATOM     32  C   UNL     1      10.574  12.298  20.898  0.00  0.00    +0.000 A 
ATOM     33  C   UNL     1       9.309  12.901  20.817  0.00  0.00    +0.000 A 
ATOM     34  C   UNL     1       8.294  12.558  21.872  0.00  0.00    +0.000 C 
ATOM     35  C   UNL     1       9.019  13.739  19.720  0.00  0.00    +0.000 A 
ATOM     36  C   UNL     1      10.000  13.994  18.760  0.00  0.00    +0.000 A 
ENDBRANCH  25  35
ENDBRANCH   1  26
TORSDOF 4
ENDMDL
MODEL 8
REMARK VINA RESULT:      -6.9      6.032      7.424
REMARK  Name = 
REMARK  8 active torsions:
REMARK  status: ('A' for Active; 'I' for Inactive)
REMARK    1  A    between atoms: C_1  and  C_2
REMARK    2  A    between atoms: C_5  and  C_6
REMARK    3  A    between atoms: C_7  and  N_8
REMARK    4  A    between atoms: C_9  and  C_11
REMARK    5  A    between atoms: N_14  and  C_15
REMARK    6  A    between atoms: C_17  and  C_18
REMARK    7  A    between atoms: C_21  and  C_22
REMARK    8  A    between atoms: C_29  and  C_30
REMARK                            x       y       z     vdW  Elec       q    Type
REMARK                         _______ _______ _______ _____ _____    ______ ____
ROOT
ATOM      1  C   UNL     1       1.715   9.676  19.350  0.00  0.00    +0.000 C 
ATOM      2  C   UNL     1       0.596   9.486  20.406  0.00  0.00    +0.000 C 
ATOM      3  C   UNL     1      -0.703  10.199  20.071  0.00  0.00    +0.000 C 
ATOM      4  N   UNL     1      -0.411  11.612  19.831  0.00  0.00    +0.000 N 
ATOM      5  C   UNL     1       0.347  11.779  18.583  0.00  0.00    +0.000 C 
ATOM      6  C   UNL     1       1.696  11.052  18.666  0.00  0.00    +0.000 C 
ENDROOT
BRANCH   4   7
ATOM      7  C   UNL     1      -0.973  12.666  20.605  0.00  0.00    +0.000 A 
ATOM      8  C   UNL     1      -0.237  13.407  21.457  0.00  0.00    +0.000 A 
ATOM      9  C   UNL     1      -0.909  14.514  22.193  0.00  0.00    +0.000 A 
ATOM     10  C   UNL     1      -0.047  15.352  23.108  0.00  0.00    +0.000 C 
ATOM     11  N   UNL     1      -2.170  14.812  22.109  0.00  0.00    +0.000 NA
ATOM     12  C   UNL     1      -2.935  14.039  21.273  0.00  0.00    +0.000 A 
ATOM     13  C   UNL     1      -4.289  14.071  20.972  0.00  0.00    +0.000 A 
ATOM     14  C   UNL     1      -4.481  13.016  20.043  0.00  0.00    +0.000 A 
ATOM     15  C   UNL     1      -5.728  12.544  19.384  0.00  0.00    +0.000 C 
ATOM     16  N   UNL     1      -3.346  12.366  19.781  0.00  0.00    +0.000 NA
ATOM     17  N   UNL     1      -2.375  12.988  20.517  0.00  0.00    +0.000 N 
BRANCH  13  18
ATOM     18  C   UNL     1      -5.271  14.972  21.577  0.00  0.00    +0.000 A 
ATOM     19  C   UNL     1      -5.594  14.851  22.937  0.00  0.00    +0.000 A 
ATOM     20  C   UNL     1      -6.386  15.803  23.581  0.00  0.00    +0.000 A 
ATOM     21  C   UNL     1      -6.931  16.851  22.847  0.00  0.00    +0.000 A 
ATOM     22 CL   UNL     1      -7.916  18.017  23.636  0.00  0.00    +0.000 Cl
ATOM     23  C   UNL     1      -6.683  16.954  21.482  0.00  0.00    +0.000 A 
ATOM     24  C   UNL     1      -5.842  16.027  20.853  0.00  0.00    +0.000 A 
ENDBRANCH  13  18
ENDBRANCH   4   7
BRANCH   1  26
ATOM     25  N   UNL     1       2.696   7.498  19.065  0.00  0.00    +0.000 N 
ATOM     26  C   UNL     1       1.850   8.422  18.448  0.00  0.00    +0.000 C 
ATOM     27  O   UNL     1       1.257   8.289  17.381  0.00  0.00    +0.000 OA
ATOM     28  H   UNL     1       2.964   7.690  20.022  0.00  0.00    +0.000 HD
BRANCH  25  35
ATOM     29  C   UNL     1       5.070   4.388  16.057  0.00  0.00    +0.000 C 
ATOM     30  C   UNL     1       4.149   4.628  17.216  0.00  0.00    +0.000 A 
ATOM     31  C   UNL     1       3.673   3.555  17.975  0.00  0.00    +0.000 A 
ATOM     32  C   UNL     1       2.844   3.788  19.070  0.00  0.00    +0.000 A 
ATOM     33  C   UNL     1       2.485   5.094  19.436  0.00  0.00    +0.000 A 
ATOM     34  C   UNL     1       1.566   5.271  20.613  0.00  0.00    +0.000 C 
ATOM     35  C   UNL     1       2.935   6.175  18.648  0.00  0.00    +0.000 A 
ATOM     36  C   UNL     1       3.764   5.937  17.550  0.00  0.00    +0.000 A 
ENDBRANCH  25  35
ENDBRANCH   1  26
TORSDOF 4
ENDMDL
MODEL 9
REMARK VINA RESULT:      -6.8      5.279      6.981
REMARK  Name = 
REMARK  8 active torsions:
REMARK  status: ('A' for Active; 'I' for Inactive)
REMARK    1  A    between atoms: C_1  and  C_2
REMARK    2  A    between atoms: C_5  and  C_6
REMARK    3  A    between atoms: C_7  and  N_8
REMARK    4  A    between atoms: C_9  and  C_11
REMARK    5  A    between atoms: N_14  and  C_15
REMARK    6  A    between atoms: C_17  and  C_18
REMARK    7  A    between atoms: C_21  and  C_22
REMARK    8  A    between atoms: C_29  and  C_30
REMARK                            x       y       z     vdW  Elec       q    Type
REMARK                         _______ _______ _______ _____ _____    ______ ____
ROOT
ATOM      1  C   UNL     1       0.764   8.700  19.574  0.00  0.00    +0.000 C 
ATOM      2  C   UNL     1       1.025   9.825  18.539  0.00  0.00    +0.000 C 
ATOM      3  C   UNL     1       1.574  11.108  19.139  0.00  0.00    +0.000 C 
ATOM      4  N   UNL     1       0.676  11.544  20.208  0.00  0.00    +0.000 N 
ATOM      5  C   UNL     1       0.751  10.627  21.354  0.00  0.00    +0.000 C 
ATOM      6  C   UNL     1       0.307   9.215  20.949  0.00  0.00    +0.000 C 
ENDROOT
BRANCH   4   7
ATOM      7  C   UNL     1      -0.002  12.795  20.193  0.00  0.00    +0.000 A 
ATOM      8  C   UNL     1       0.359  13.802  19.372  0.00  0.00    +0.000 A 
ATOM      9  C   UNL     1      -0.438  15.060  19.403  0.00  0.00    +0.000 A 
ATOM     10  C   UNL     1      -0.033  16.152  18.441  0.00  0.00    +0.000 C 
ATOM     11  N   UNL     1      -1.447  15.289  20.188  0.00  0.00    +0.000 NA
ATOM     12  C   UNL     1      -1.798  14.284  21.053  0.00  0.00    +0.000 A 
ATOM     13  C   UNL     1      -2.791  14.207  22.019  0.00  0.00    +0.000 A 
ATOM     14  C   UNL     1      -2.648  12.914  22.586  0.00  0.00    +0.000 A 
ATOM     15  C   UNL     1      -3.412  12.269  23.688  0.00  0.00    +0.000 C 
ATOM     16  N   UNL     1      -1.646  12.231  22.031  0.00  0.00    +0.000 NA
ATOM     17  N   UNL     1      -1.116  13.050  21.072  0.00  0.00    +0.000 N 
BRANCH  13  18
ATOM     18  C   UNL     1      -3.705  15.290  22.384  0.00  0.00    +0.000 A 
ATOM     19  C   UNL     1      -5.046  15.251  21.970  0.00  0.00    +0.000 A 
ATOM     20  C   UNL     1      -5.979  16.171  22.450  0.00  0.00    +0.000 A 
ATOM     21  C   UNL     1      -5.561  17.195  23.292  0.00  0.00    +0.000 A 
ATOM     22 CL   UNL     1      -6.706  18.337  23.873  0.00  0.00    +0.000 Cl
ATOM     23  C   UNL     1      -4.223  17.299  23.660  0.00  0.00    +0.000 A 
ATOM     24  C   UNL     1      -3.302  16.339  23.221  0.00  0.00    +0.000 A 
ENDBRANCH  13  18
ENDBRANCH   4   7
BRANCH   1  26
ATOM     25  N   UNL     1       2.199   7.335  18.210  0.00  0.00    +0.000 N 
ATOM     26  C   UNL     1       1.891   7.636  19.538  0.00  0.00    +0.000 C 
ATOM     27  O   UNL     1       2.427   7.184  20.546  0.00  0.00    +0.000 OA
ATOM     28  H   UNL     1       1.784   7.923  17.498  0.00  0.00    +0.000 HD
BRANCH  25  35
ATOM     29  C   UNL     1       7.013   6.955  17.190  0.00  0.00    +0.000 C 
ATOM     30  C   UNL     1       5.656   6.328  17.316  0.00  0.00    +0.000 A 
ATOM     31  C   UNL     1       5.497   4.948  17.155  0.00  0.00    +0.000 A 
ATOM     32  C   UNL     1       4.241   4.368  17.305  0.00  0.00    +0.000 A 
ATOM     33  C   UNL     1       3.122   5.150  17.632  0.00  0.00    +0.000 A 
ATOM     34  C   UNL     1       1.790   4.462  17.754  0.00  0.00    +0.000 C 
ATOM     35  C   UNL     1       3.275   6.547  17.759  0.00  0.00    +0.000 A 
ATOM     36  C   UNL     1       4.537   7.125  17.605  0.00  0.00    +0.000 A 
ENDBRANCH  25  35
ENDBRANCH   1  26
TORSDOF 4
ENDMDL
