MODEL 1
REMARK VINA RESULT:      -8.5      0.000      0.000
REMARK  Name = 
REMARK  11 active torsions:
REMARK  status: ('A' for Active; 'I' for Inactive)
REMARK    1  A    between atoms: C_1  and  O_2
REMARK    2  A    between atoms: O_2  and  C_3
REMARK    3  A    between atoms: C_5  and  C_6
REMARK    4  A    between atoms: C_8  and  C_9
REMARK    5  A    between atoms: C_14  and  S_15
REMARK    6  A    between atoms: S_15  and  N_18
REMARK    7  A    between atoms: N_18  and  C_19
REMARK    8  A    between atoms: C_19  and  C_20
REMARK    9  A    between atoms: C_20  and  C_21
REMARK   10  A    between atoms: C_29  and  O_30
REMARK   11  A    between atoms: O_30  and  C_31
REMARK                            x       y       z     vdW  Elec       q    Type
REMARK                         _______ _______ _______ _____ _____    ______ ____
ROOT
ATOM      1  C   UNL     1       2.361   6.670  19.800  0.00  0.00    +0.000 A 
ATOM      2  C   UNL     1       1.744   5.412  20.010  0.00  0.00    +0.000 A 
ATOM      3  C   UNL     1       2.455   4.201  19.990  0.00  0.00    +0.000 A 
ATOM      4  C   UNL     1       3.805   4.229  19.638  0.00  0.00    +0.000 A 
ATOM      5  C   UNL     1       4.422   5.444  19.323  0.00  0.00    +0.000 A 
ATOM      6  C   UNL     1       3.716   6.657  19.420  0.00  0.00    +0.000 A 
ENDROOT
BRANCH   1   9
ATOM      7  C   UNL     1       0.334   9.180  21.759  0.00  0.00    +0.000 A 
ATOM      8  C   UNL     1       1.013   8.034  21.399  0.00  0.00    +0.000 A 
ATOM      9  C   UNL     1       1.614   7.920  20.130  0.00  0.00    +0.000 A 
ATOM     10  C   UNL     1       1.473   9.047  19.313  0.00  0.00    +0.000 A 
ATOM     11  N   UNL     1       0.806  10.165  19.709  0.00  0.00    +0.000 NA
ATOM     12  N   UNL     1       0.233  10.235  20.938  0.00  0.00    +0.000 NA
BRANCH   7  14
ATOM     13  C   UNL     1      -1.010  10.379  23.244  0.00  0.00    +0.000 C 
ATOM     14  O   UNL     1      -0.259   9.192  23.003  0.00  0.00    +0.000 OA
ENDBRANCH   7  14
BRANCH  10  15
ATOM     15  O   UNL     1       2.020   9.051  18.044  0.00  0.00    +0.000 OA
ATOM     16  C   UNL     1       2.349  10.367  17.590  0.00  0.00    +0.000 C 
ENDBRANCH  10  15
ENDBRANCH   1   9
BRANCH   3  17
ATOM     17  C   UNL     1       1.813   2.908  20.429  0.00  0.00    +0.000 C 
ATOM     18  F   UNL     1       2.713   1.962  20.819  0.00  0.00    +0.000 F 
ATOM     19  F   UNL     1       0.954   3.066  21.470  0.00  0.00    +0.000 F 
ATOM     20  F   UNL     1       1.089   2.335  19.425  0.00  0.00    +0.000 F 
ENDBRANCH   3  17
BRANCH   5  21
ATOM     21  S   UNL     1       6.159   5.447  18.932  0.00  0.00    +0.000 S 
ATOM     22  O   UNL     1       6.395   6.587  18.069  0.00  0.00    +0.000 OA
ATOM     23  O   UNL     1       6.910   5.246  20.146  0.00  0.00    +0.000 OA
BRANCH  21  24
ATOM     24  N   UNL     1       6.350   4.081  17.965  0.00  0.00    +0.000 NA
ATOM     25  H   UNL     1       5.556   3.451  18.094  0.00  0.00    +0.000 HD
BRANCH  24  26
ATOM     26  C   UNL     1       6.817   4.237  16.574  0.00  0.00    +0.000 C 
BRANCH  26  27
ATOM     27  C   UNL     1       5.670   4.474  15.595  0.00  0.00    +0.000 C 
BRANCH  27  28
ATOM     28  C   UNL     1       6.093   4.228  14.174  0.00  0.00    +0.000 A 
ATOM     29  C   UNL     1       7.200   4.916  13.649  0.00  0.00    +0.000 A 
ATOM     30  C   UNL     1       7.584   4.729  12.323  0.00  0.00    +0.000 A 
ATOM     31  C   UNL     1       6.864   3.855  11.511  0.00  0.00    +0.000 A 
ATOM     32  C   UNL     1       5.771   3.173  12.035  0.00  0.00    +0.000 A 
ATOM     33  F   UNL     1       5.080   2.334  11.251  0.00  0.00    +0.000 F 
ATOM     34  C   UNL     1       5.379   3.348  13.356  0.00  0.00    +0.000 A 
ENDBRANCH  27  28
ENDBRANCH  26  27
ENDBRANCH  24  26
ENDBRANCH  21  24
ENDBRANCH   5  21
TORSDOF 9
ENDMDL
MODEL 2
REMARK VINA RESULT:      -8.4      3.186      9.611
REMARK  Name = 
REMARK  11 active torsions:
REMARK  status: ('A' for Active; 'I' for Inactive)
REMARK    1  A    between atoms: C_1  and  O_2
REMARK    2  A    between atoms: O_2  and  C_3
REMARK    3  A    between atoms: C_5  and  C_6
REMARK    4  A    between atoms: C_8  and  C_9
REMARK    5  A    between atoms: C_14  and  S_15
REMARK    6  A    between atoms: S_15  and  N_18
REMARK    7  A    between atoms: N_18  and  C_19
REMARK    8  A    between atoms: C_19  and  C_20
REMARK    9  A    between atoms: C_20  and  C_21
REMARK   10  A    between atoms: C_29  and  O_30
REMARK   11  A    between atoms: O_30  and  C_31
REMARK                            x       y       z     vdW  Elec       q    Type
REMARK                         _______ _______ _______ _____ _____    ______ ____
ROOT
ATOM      1  C   UNL     1       4.307   6.229  17.631  0.00  0.00    +0.000 A 
ATOM      2  C   UNL     1       3.818   5.281  18.564  0.00  0.00    +0.000 A 
ATOM      3  C   UNL     1       2.632   5.471  19.292  0.00  0.00    +0.000 A 
ATOM      4  C   UNL     1       1.968   6.693  19.176  0.00  0.00    +0.000 A 
ATOM      5  C   UNL     1       2.482   7.692  18.342  0.00  0.00    +0.000 A 
ATOM      6  C   UNL     1       3.629   7.459  17.562  0.00  0.00    +0.000 A 
ENDROOT
BRANCH   1   9
ATOM      7  C   UNL     1       6.069   4.514  14.768  0.00  0.00    +0.000 A 
ATOM      8  C   UNL     1       5.106   4.889  15.682  0.00  0.00    +0.000 A 
ATOM      9  C   UNL     1       5.393   5.836  16.684  0.00  0.00    +0.000 A 
ATOM     10  C   UNL     1       6.695   6.349  16.649  0.00  0.00    +0.000 A 
ATOM     11  N   UNL     1       7.614   5.962  15.723  0.00  0.00    +0.000 NA
ATOM     12  N   UNL     1       7.302   5.041  14.776  0.00  0.00    +0.000 NA
BRANCH   7  14
ATOM     13  C   UNL     1       6.376   3.719  12.595  0.00  0.00    +0.000 C 
ATOM     14  O   UNL     1       5.717   3.550  13.846  0.00  0.00    +0.000 OA
ENDBRANCH   7  14
BRANCH  10  15
ATOM     15  O   UNL     1       7.092   7.285  17.585  0.00  0.00    +0.000 OA
ATOM     16  C   UNL     1       7.949   6.731  18.587  0.00  0.00    +0.000 C 
ENDBRANCH  10  15
ENDBRANCH   1   9
BRANCH   3  17
ATOM     17  C   UNL     1       2.027   4.355  20.110  0.00  0.00    +0.000 C 
ATOM     18  F   UNL     1       0.730   4.091  19.789  0.00  0.00    +0.000 F 
ATOM     19  F   UNL     1       2.697   3.180  19.983  0.00  0.00    +0.000 F 
ATOM     20  F   UNL     1       2.024   4.647  21.441  0.00  0.00    +0.000 F 
ENDBRANCH   3  17
BRANCH   5  21
ATOM     21  S   UNL     1       1.579   9.218  18.177  0.00  0.00    +0.000 S 
ATOM     22  O   UNL     1       2.508  10.204  17.663  0.00  0.00    +0.000 OA
ATOM     23  O   UNL     1       0.322   8.947  17.525  0.00  0.00    +0.000 OA
BRANCH  21  24
ATOM     24  N   UNL     1       1.258   9.663  19.770  0.00  0.00    +0.000 NA
ATOM     25  H   UNL     1       2.080  10.112  20.176  0.00  0.00    +0.000 HD
BRANCH  24  26
ATOM     26  C   UNL     1      -0.037  10.289  20.099  0.00  0.00    +0.000 C 
BRANCH  26  27
ATOM     27  C   UNL     1       0.055  11.223  21.302  0.00  0.00    +0.000 C 
BRANCH  27  28
ATOM     28  C   UNL     1      -1.288  11.787  21.671  0.00  0.00    +0.000 A 
ATOM     29  C   UNL     1      -1.731  11.716  23.003  0.00  0.00    +0.000 A 
ATOM     30  C   UNL     1      -2.988  12.201  23.357  0.00  0.00    +0.000 A 
ATOM     31  C   UNL     1      -3.814  12.758  22.382  0.00  0.00    +0.000 A 
ATOM     32  C   UNL     1      -3.371  12.830  21.065  0.00  0.00    +0.000 A 
ATOM     33  F   UNL     1      -4.168  13.366  20.131  0.00  0.00    +0.000 F 
ATOM     34  C   UNL     1      -2.119  12.353  20.700  0.00  0.00    +0.000 A 
ENDBRANCH  27  28
ENDBRANCH  26  27
ENDBRANCH  24  26
ENDBRANCH  21  24
ENDBRANCH   5  21
TORSDOF 9
ENDMDL
MODEL 3
REMARK VINA RESULT:      -8.4      4.894      6.097
REMARK  Name = 
REMARK  11 active torsions:
REMARK  status: ('A' for Active; 'I' for Inactive)
REMARK    1  A    between atoms: C_1  and  O_2
REMARK    2  A    between atoms: O_2  and  C_3
REMARK    3  A    between atoms: C_5  and  C_6
REMARK    4  A    between atoms: C_8  and  C_9
REMARK    5  A    between atoms: C_14  and  S_15
REMARK    6  A    between atoms: S_15  and  N_18
REMARK    7  A    between atoms: N_18  and  C_19
REMARK    8  A    between atoms: C_19  and  C_20
REMARK    9  A    between atoms: C_20  and  C_21
REMARK   10  A    between atoms: C_29  and  O_30
REMARK   11  A    between atoms: O_30  and  C_31
REMARK                            x       y       z     vdW  Elec       q    Type
REMARK                         _______ _______ _______ _____ _____    ______ ____
ROOT
ATOM      1  C   UNL     1       3.201   6.710  18.242  0.00  0.00    +0.000 A 
ATOM      2  C   UNL     1       2.715   5.424  17.899  0.00  0.00    +0.000 A 
ATOM      3  C   UNL     1       3.546   4.396  17.425  0.00  0.00    +0.000 A 
ATOM      4  C   UNL     1       4.888   4.689  17.174  0.00  0.00    +0.000 A 
ATOM      5  C   UNL     1       5.377   5.979  17.403  0.00  0.00    +0.000 A 
ATOM      6  C   UNL     1       4.551   6.977  17.949  0.00  0.00    +0.000 A 
ENDROOT
BRANCH   1   9
ATOM      7  C   UNL     1       1.073   9.719  19.059  0.00  0.00    +0.000 A 
ATOM      8  C   UNL     1       1.901   8.836  18.395  0.00  0.00    +0.000 A 
ATOM      9  C   UNL     1       2.329   7.644  19.014  0.00  0.00    +0.000 A 
ATOM     10  C   UNL     1       1.836   7.448  20.309  0.00  0.00    +0.000 A 
ATOM     11  N   UNL     1       1.011   8.338  20.925  0.00  0.00    +0.000 NA
ATOM     12  N   UNL     1       0.626   9.479  20.299  0.00  0.00    +0.000 NA
BRANCH   7  14
ATOM     13  C   UNL     1      -0.666  11.128  18.399  0.00  0.00    +0.000 C 
ATOM     14  O   UNL     1       0.736  10.880  18.396  0.00  0.00    +0.000 OA
ENDBRANCH   7  14
BRANCH  10  15
ATOM     15  O   UNL     1       2.190   6.315  21.016  0.00  0.00    +0.000 OA
ATOM     16  C   UNL     1       1.268   5.238  20.827  0.00  0.00    +0.000 C 
ENDBRANCH  10  15
ENDBRANCH   1   9
BRANCH   3  17
ATOM     17  C   UNL     1       3.039   2.982  17.277  0.00  0.00    +0.000 C 
ATOM     18  F   UNL     1       2.499   2.727  16.051  0.00  0.00    +0.000 F 
ATOM     19  F   UNL     1       4.006   2.047  17.468  0.00  0.00    +0.000 F 
ATOM     20  F   UNL     1       2.055   2.699  18.177  0.00  0.00    +0.000 F 
ENDBRANCH   3  17
BRANCH   5  21
ATOM     21  S   UNL     1       7.107   6.300  17.124  0.00  0.00    +0.000 S 
ATOM     22  O   UNL     1       7.817   5.836  18.298  0.00  0.00    +0.000 OA
ATOM     23  O   UNL     1       7.456   5.850  15.799  0.00  0.00    +0.000 OA
BRANCH  21  24
ATOM     24  N   UNL     1       7.207   7.981  17.150  0.00  0.00    +0.000 NA
ATOM     25  H   UNL     1       6.286   8.380  17.337  0.00  0.00    +0.000 HD
BRANCH  24  26
ATOM     26  C   UNL     1       8.334   8.629  17.849  0.00  0.00    +0.000 C 
BRANCH  26  27
ATOM     27  C   UNL     1       8.065  10.099  18.155  0.00  0.00    +0.000 C 
BRANCH  27  28
ATOM     28  C   UNL     1       9.289  10.789  18.686  0.00  0.00    +0.000 A 
ATOM     29  C   UNL     1       9.444  10.965  20.071  0.00  0.00    +0.000 A 
ATOM     30  C   UNL     1      10.556  11.635  20.579  0.00  0.00    +0.000 A 
ATOM     31  C   UNL     1      11.519  12.137  19.706  0.00  0.00    +0.000 A 
ATOM     32  C   UNL     1      11.364  11.958  18.335  0.00  0.00    +0.000 A 
ATOM     33  F   UNL     1      12.292  12.443  17.499  0.00  0.00    +0.000 F 
ATOM     34  C   UNL     1      10.263  11.290  17.816  0.00  0.00    +0.000 A 
ENDBRANCH  27  28
ENDBRANCH  26  27
ENDBRANCH  24  26
ENDBRANCH  21  24
ENDBRANCH   5  21
TORSDOF 9
ENDMDL
MODEL 4
REMARK VINA RESULT:      -8.4      3.009      9.703
REMARK  Name = 
REMARK  11 active torsions:
REMARK  status: ('A' for Active; 'I' for Inactive)
REMARK    1  A    between atoms: C_1  and  O_2
REMARK    2  A    between atoms: O_2  and  C_3
REMARK    3  A    between atoms: C_5  and  C_6
REMARK    4  A    between atoms: C_8  and  C_9
REMARK    5  A    between atoms: C_14  and  S_15
REMARK    6  A    between atoms: S_15  and  N_18
REMARK    7  A    between atoms: N_18  and  C_19
REMARK    8  A    between atoms: C_19  and  C_20
REMARK    9  A    between atoms: C_20  and  C_21
REMARK   10  A    between atoms: C_29  and  O_30
REMARK   11  A    between atoms: O_30  and  C_31
REMARK                            x       y       z     vdW  Elec       q    Type
REMARK                         _______ _______ _______ _____ _____    ______ ____
ROOT
ATOM      1  C   UNL     1       4.370   6.268  17.712  0.00  0.00    +0.000 A 
ATOM      2  C   UNL     1       3.992   5.336  18.709  0.00  0.00    +0.000 A 
ATOM      3  C   UNL     1       2.858   5.504  19.520  0.00  0.00    +0.000 A 
ATOM      4  C   UNL     1       2.137   6.695  19.416  0.00  0.00    +0.000 A 
ATOM      5  C   UNL     1       2.544   7.683  18.513  0.00  0.00    +0.000 A 
ATOM      6  C   UNL     1       3.637   7.468  17.654  0.00  0.00    +0.000 A 
ENDROOT
BRANCH   1   9
ATOM      7  C   UNL     1       5.900   4.770  14.603  0.00  0.00    +0.000 A 
ATOM      8  C   UNL     1       4.993   5.126  15.581  0.00  0.00    +0.000 A 
ATOM      9  C   UNL     1       5.396   5.886  16.697  0.00  0.00    +0.000 A 
ATOM     10  C   UNL     1       6.749   6.242  16.704  0.00  0.00    +0.000 A 
ATOM     11  N   UNL     1       7.611   5.882  15.714  0.00  0.00    +0.000 NA
ATOM     12  N   UNL     1       7.187   5.143  14.658  0.00  0.00    +0.000 NA
BRANCH   7  14
ATOM     13  C   UNL     1       6.451   3.641  12.637  0.00  0.00    +0.000 C 
ATOM     14  O   UNL     1       5.431   3.991  13.567  0.00  0.00    +0.000 OA
ENDBRANCH   7  14
BRANCH  10  15
ATOM     15  O   UNL     1       7.260   6.986  17.750  0.00  0.00    +0.000 OA
ATOM     16  C   UNL     1       7.807   6.171  18.790  0.00  0.00    +0.000 C 
ENDBRANCH  10  15
ENDBRANCH   1   9
BRANCH   3  17
ATOM     17  C   UNL     1       2.365   4.396  20.418  0.00  0.00    +0.000 C 
ATOM     18  F   UNL     1       3.078   3.241  20.295  0.00  0.00    +0.000 F 
ATOM     19  F   UNL     1       2.399   4.725  21.736  0.00  0.00    +0.000 F 
ATOM     20  F   UNL     1       1.072   4.060  20.146  0.00  0.00    +0.000 F 
ENDBRANCH   3  17
BRANCH   5  21
ATOM     21  S   UNL     1       1.568   9.165  18.368  0.00  0.00    +0.000 S 
ATOM     22  O   UNL     1       2.494  10.265  18.191  0.00  0.00    +0.000 OA
ATOM     23  O   UNL     1       0.490   8.924  17.441  0.00  0.00    +0.000 OA
BRANCH  21  24
ATOM     24  N   UNL     1       0.905   9.355  19.905  0.00  0.00    +0.000 NA
ATOM     25  H   UNL     1       1.534   8.958  20.605  0.00  0.00    +0.000 HD
BRANCH  24  26
ATOM     26  C   UNL     1       0.278  10.640  20.270  0.00  0.00    +0.000 C 
BRANCH  26  27
ATOM     27  C   UNL     1       0.440  10.970  21.751  0.00  0.00    +0.000 C 
BRANCH  27  28
ATOM     28  C   UNL     1      -0.630  11.910  22.230  0.00  0.00    +0.000 A 
ATOM     29  C   UNL     1      -0.537  13.281  21.933  0.00  0.00    +0.000 A 
ATOM     30  C   UNL     1      -1.500  14.172  22.400  0.00  0.00    +0.000 A 
ATOM     31  C   UNL     1      -2.563  13.702  23.171  0.00  0.00    +0.000 A 
ATOM     32  C   UNL     1      -2.653  12.344  23.460  0.00  0.00    +0.000 A 
ATOM     33  F   UNL     1      -3.675  11.896  24.202  0.00  0.00    +0.000 F 
ATOM     34  C   UNL     1      -1.701  11.445  22.998  0.00  0.00    +0.000 A 
ENDBRANCH  27  28
ENDBRANCH  26  27
ENDBRANCH  24  26
ENDBRANCH  21  24
ENDBRANCH   5  21
TORSDOF 9
ENDMDL
MODEL 5
REMARK VINA RESULT:      -8.3      1.255      1.658
REMARK  Name = 
REMARK  11 active torsions:
REMARK  status: ('A' for Active; 'I' for Inactive)
REMARK    1  A    between atoms: C_1  and  O_2
REMARK    2  A    between atoms: O_2  and  C_3
REMARK    3  A    between atoms: C_5  and  C_6
REMARK    4  A    between atoms: C_8  and  C_9
REMARK    5  A    between atoms: C_14  and  S_15
REMARK    6  A    between atoms: S_15  and  N_18
REMARK    7  A    between atoms: N_18  and  C_19
REMARK    8  A    between atoms: C_19  and  C_20
REMARK    9  A    between atoms: C_20  and  C_21
REMARK   10  A    between atoms: C_29  and  O_30
REMARK   11  A    between atoms: O_30  and  C_31
REMARK                            x       y       z     vdW  Elec       q    Type
REMARK                         _______ _______ _______ _____ _____    ______ ____
ROOT
ATOM      1  C   UNL     1       2.326   6.387  19.883  0.00  0.00    +0.000 A 
ATOM      2  C   UNL     1       1.774   5.151  20.301  0.00  0.00    +0.000 A 
ATOM      3  C   UNL     1       2.517   3.960  20.347  0.00  0.00    +0.000 A 
ATOM      4  C   UNL     1       3.823   3.972  19.853  0.00  0.00    +0.000 A 
ATOM      5  C   UNL     1       4.365   5.154  19.336  0.00  0.00    +0.000 A 
ATOM      6  C   UNL     1       3.634   6.355  19.367  0.00  0.00    +0.000 A 
ENDROOT
BRANCH   1   9
ATOM      7  C   UNL     1       0.488   9.102  21.753  0.00  0.00    +0.000 A 
ATOM      8  C   UNL     1       1.160   7.933  21.459  0.00  0.00    +0.000 A 
ATOM      9  C   UNL     1       1.578   7.653  20.143  0.00  0.00    +0.000 A 
ATOM     10  C   UNL     1       1.270   8.647  19.207  0.00  0.00    +0.000 A 
ATOM     11  N   UNL     1       0.616   9.793  19.539  0.00  0.00    +0.000 NA
ATOM     12  N   UNL     1       0.223  10.025  20.817  0.00  0.00    +0.000 NA
BRANCH   7  14
ATOM     13  C   UNL     1      -0.797  10.391  23.214  0.00  0.00    +0.000 C 
ATOM     14  O   UNL     1       0.079   9.278  23.058  0.00  0.00    +0.000 OA
ENDBRANCH   7  14
BRANCH  10  15
ATOM     15  O   UNL     1       1.629   8.481  17.883  0.00  0.00    +0.000 OA
ATOM     16  C   UNL     1       2.777   9.255  17.523  0.00  0.00    +0.000 C 
ENDBRANCH  10  15
ENDBRANCH   1   9
BRANCH   3  17
ATOM     17  C   UNL     1       1.964   2.716  20.997  0.00  0.00    +0.000 C 
ATOM     18  F   UNL     1       1.653   1.732  20.106  0.00  0.00    +0.000 F 
ATOM     19  F   UNL     1       2.821   2.158  21.893  0.00  0.00    +0.000 F 
ATOM     20  F   UNL     1       0.814   2.969  21.682  0.00  0.00    +0.000 F 
ENDBRANCH   3  17
BRANCH   5  21
ATOM     21  S   UNL     1       6.052   5.143  18.766  0.00  0.00    +0.000 S 
ATOM     22  O   UNL     1       6.853   5.750  19.810  0.00  0.00    +0.000 OA
ATOM     23  O   UNL     1       6.357   3.837  18.237  0.00  0.00    +0.000 OA
BRANCH  21  24
ATOM     24  N   UNL     1       6.045   6.238  17.486  0.00  0.00    +0.000 NA
ATOM     25  H   UNL     1       7.003   6.495  17.245  0.00  0.00    +0.000 HD
BRANCH  24  26
ATOM     26  C   UNL     1       5.141   6.010  16.342  0.00  0.00    +0.000 C 
BRANCH  26  27
ATOM     27  C   UNL     1       5.202   4.575  15.827  0.00  0.00    +0.000 C 
BRANCH  27  28
ATOM     28  C   UNL     1       5.911   4.489  14.504  0.00  0.00    +0.000 A 
ATOM     29  C   UNL     1       5.423   3.627  13.508  0.00  0.00    +0.000 A 
ATOM     30  C   UNL     1       6.087   3.507  12.289  0.00  0.00    +0.000 A 
ATOM     31  C   UNL     1       7.246   4.246  12.058  0.00  0.00    +0.000 A 
ATOM     32  C   UNL     1       7.724   5.102  13.046  0.00  0.00    +0.000 A 
ATOM     33  F   UNL     1       8.839   5.809  12.820  0.00  0.00    +0.000 F 
ATOM     34  C   UNL     1       7.070   5.232  14.263  0.00  0.00    +0.000 A 
ENDBRANCH  27  28
ENDBRANCH  26  27
ENDBRANCH  24  26
ENDBRANCH  21  24
ENDBRANCH   5  21
TORSDOF 9
ENDMDL
MODEL 6
REMARK VINA RESULT:      -8.3      5.189      7.749
REMARK  Name = 
REMARK  11 active torsions:
REMARK  status: ('A' for Active; 'I' for Inactive)
REMARK    1  A    between atoms: C_1  and  O_2
REMARK    2  A    between atoms: O_2  and  C_3
REMARK    3  A    between atoms: C_5  and  C_6
REMARK    4  A    between atoms: C_8  and  C_9
REMARK    5  A    between atoms: C_14  and  S_15
REMARK    6  A    between atoms: S_15  and  N_18
REMARK    7  A    between atoms: N_18  and  C_19
REMARK    8  A    between atoms: C_19  and  C_20
REMARK    9  A    between atoms: C_20  and  C_21
REMARK   10  A    between atoms: C_29  and  O_30
REMARK   11  A    between atoms: O_30  and  C_31
REMARK                            x       y       z     vdW  Elec       q    Type
REMARK                         _______ _______ _______ _____ _____    ______ ____
ROOT
ATOM      1  C   UNL     1      -1.277  11.288  18.909  0.00  0.00    +0.000 A 
ATOM      2  C   UNL     1      -0.273  12.277  18.763  0.00  0.00    +0.000 A 
ATOM      3  C   UNL     1       0.924  12.261  19.498  0.00  0.00    +0.000 A 
ATOM      4  C   UNL     1       1.081  11.296  20.493  0.00  0.00    +0.000 A 
ATOM      5  C   UNL     1       0.063  10.367  20.735  0.00  0.00    +0.000 A 
ATOM      6  C   UNL     1      -1.098  10.348  19.940  0.00  0.00    +0.000 A 
ENDROOT
BRANCH   1   9
ATOM      7  C   UNL     1      -3.064  10.508  15.676  0.00  0.00    +0.000 A 
ATOM      8  C   UNL     1      -2.080  10.639  16.636  0.00  0.00    +0.000 A 
ATOM      9  C   UNL     1      -2.371  11.195  17.897  0.00  0.00    +0.000 A 
ATOM     10  C   UNL     1      -3.707  11.571  18.076  0.00  0.00    +0.000 A 
ATOM     11  N   UNL     1      -4.652  11.415  17.109  0.00  0.00    +0.000 NA
ATOM     12  N   UNL     1      -4.332  10.881  15.903  0.00  0.00    +0.000 NA
BRANCH   7  14
ATOM     13  C   UNL     1      -3.754   9.960  13.516  0.00  0.00    +0.000 C 
ATOM     14  O   UNL     1      -2.685   9.992  14.456  0.00  0.00    +0.000 OA
ENDBRANCH   7  14
BRANCH  10  15
ATOM     15  O   UNL     1      -4.111  12.131  19.273  0.00  0.00    +0.000 OA
ATOM     16  C   UNL     1      -5.426  12.687  19.205  0.00  0.00    +0.000 C 
ENDBRANCH  10  15
ENDBRANCH   1   9
BRANCH   3  17
ATOM     17  C   UNL     1       2.059  13.199  19.167  0.00  0.00    +0.000 C 
ATOM     18  F   UNL     1       1.651  14.474  18.911  0.00  0.00    +0.000 F 
ATOM     19  F   UNL     1       2.982  13.288  20.160  0.00  0.00    +0.000 F 
ATOM     20  F   UNL     1       2.738  12.801  18.054  0.00  0.00    +0.000 F 
ENDBRANCH   3  17
BRANCH   5  21
ATOM     21  S   UNL     1       0.321   9.117  21.975  0.00  0.00    +0.000 S 
ATOM     22  O   UNL     1       0.712   9.802  23.191  0.00  0.00    +0.000 OA
ATOM     23  O   UNL     1      -0.788   8.196  21.947  0.00  0.00    +0.000 OA
BRANCH  21  24
ATOM     24  N   UNL     1       1.693   8.301  21.437  0.00  0.00    +0.000 NA
ATOM     25  H   UNL     1       2.378   8.240  22.191  0.00  0.00    +0.000 HD
BRANCH  24  26
ATOM     26  C   UNL     1       1.537   7.082  20.619  0.00  0.00    +0.000 C 
BRANCH  26  27
ATOM     27  C   UNL     1       2.559   7.001  19.489  0.00  0.00    +0.000 C 
BRANCH  27  28
ATOM     28  C   UNL     1       2.523   5.665  18.802  0.00  0.00    +0.000 A 
ATOM     29  C   UNL     1       1.604   4.690  19.225  0.00  0.00    +0.000 A 
ATOM     30  C   UNL     1       1.580   3.433  18.625  0.00  0.00    +0.000 A 
ATOM     31  C   UNL     1       2.477   3.140  17.598  0.00  0.00    +0.000 A 
ATOM     32  C   UNL     1       3.382   4.110  17.179  0.00  0.00    +0.000 A 
ATOM     33  F   UNL     1       4.243   3.824  16.193  0.00  0.00    +0.000 F 
ATOM     34  C   UNL     1       3.414   5.367  17.768  0.00  0.00    +0.000 A 
ENDBRANCH  27  28
ENDBRANCH  26  27
ENDBRANCH  24  26
ENDBRANCH  21  24
ENDBRANCH   5  21
TORSDOF 9
ENDMDL
MODEL 7
REMARK VINA RESULT:      -8.3      3.644      8.871
REMARK  Name = 
REMARK  11 active torsions:
REMARK  status: ('A' for Active; 'I' for Inactive)
REMARK    1  A    between atoms: C_1  and  O_2
REMARK    2  A    between atoms: O_2  and  C_3
REMARK    3  A    between atoms: C_5  and  C_6
REMARK    4  A    between atoms: C_8  and  C_9
REMARK    5  A    between atoms: C_14  and  S_15
REMARK    6  A    between atoms: S_15  and  N_18
REMARK    7  A    between atoms: N_18  and  C_19
REMARK    8  A    between atoms: C_19  and  C_20
REMARK    9  A    between atoms: C_20  and  C_21
REMARK   10  A    between atoms: C_29  and  O_30
REMARK   11  A    between atoms: O_30  and  C_31
REMARK                            x       y       z     vdW  Elec       q    Type
REMARK                         _______ _______ _______ _____ _____    ______ ____
ROOT
ATOM      1  C   UNL     1       4.274   6.394  17.808  0.00  0.00    +0.000 A 
ATOM      2  C   UNL     1       3.823   5.482  18.794  0.00  0.00    +0.000 A 
ATOM      3  C   UNL     1       2.652   5.685  19.542  0.00  0.00    +0.000 A 
ATOM      4  C   UNL     1       1.966   6.891  19.388  0.00  0.00    +0.000 A 
ATOM      5  C   UNL     1       2.443   7.859  18.497  0.00  0.00    +0.000 A 
ATOM      6  C   UNL     1       3.574   7.609  17.700  0.00  0.00    +0.000 A 
ENDROOT
BRANCH   1   9
ATOM      7  C   UNL     1       5.928   4.834  14.794  0.00  0.00    +0.000 A 
ATOM      8  C   UNL     1       4.979   5.221  15.719  0.00  0.00    +0.000 A 
ATOM      9  C   UNL     1       5.343   5.976  16.852  0.00  0.00    +0.000 A 
ATOM     10  C   UNL     1       6.703   6.293  16.932  0.00  0.00    +0.000 A 
ATOM     11  N   UNL     1       7.607   5.902  15.993  0.00  0.00    +0.000 NA
ATOM     12  N   UNL     1       7.220   5.170  14.918  0.00  0.00    +0.000 NA
BRANCH   7  14
ATOM     13  C   UNL     1       6.529   3.781  12.801  0.00  0.00    +0.000 C 
ATOM     14  O   UNL     1       5.493   4.063  13.737  0.00  0.00    +0.000 OA
ENDBRANCH   7  14
BRANCH  10  15
ATOM     15  O   UNL     1       7.178   7.028  18.002  0.00  0.00    +0.000 OA
ATOM     16  C   UNL     1       7.755   8.273  17.601  0.00  0.00    +0.000 C 
ENDBRANCH  10  15
ENDBRANCH   1   9
BRANCH   3  17
ATOM     17  C   UNL     1       2.086   4.599  20.424  0.00  0.00    +0.000 C 
ATOM     18  F   UNL     1       2.501   4.683  21.719  0.00  0.00    +0.000 F 
ATOM     19  F   UNL     1       0.728   4.597  20.460  0.00  0.00    +0.000 F 
ATOM     20  F   UNL     1       2.455   3.357  20.000  0.00  0.00    +0.000 F 
ENDBRANCH   3  17
BRANCH   5  21
ATOM     21  S   UNL     1       1.510   9.361  18.287  0.00  0.00    +0.000 S 
ATOM     22  O   UNL     1       2.457  10.398  17.929  0.00  0.00    +0.000 OA
ATOM     23  O   UNL     1       0.351   9.080  17.477  0.00  0.00    +0.000 OA
BRANCH  21  24
ATOM     24  N   UNL     1       0.985   9.725  19.846  0.00  0.00    +0.000 NA
ATOM     25  H   UNL     1       1.723  10.215  20.354  0.00  0.00    +0.000 HD
BRANCH  24  26
ATOM     26  C   UNL     1      -0.380  10.246  20.047  0.00  0.00    +0.000 C 
BRANCH  26  27
ATOM     27  C   UNL     1      -0.406  11.490  20.930  0.00  0.00    +0.000 C 
BRANCH  27  28
ATOM     28  C   UNL     1       0.299  12.648  20.281  0.00  0.00    +0.000 A 
ATOM     29  C   UNL     1       1.676  12.831  20.493  0.00  0.00    +0.000 A 
ATOM     30  C   UNL     1       2.339  13.919  19.929  0.00  0.00    +0.000 A 
ATOM     31  C   UNL     1       1.631  14.833  19.152  0.00  0.00    +0.000 A 
ATOM     32  C   UNL     1       0.269  14.647  18.941  0.00  0.00    +0.000 A 
ATOM     33  F   UNL     1      -0.409  15.529  18.195  0.00  0.00    +0.000 F 
ATOM     34  C   UNL     1      -0.404  13.565  19.495  0.00  0.00    +0.000 A 
ENDBRANCH  27  28
ENDBRANCH  26  27
ENDBRANCH  24  26
ENDBRANCH  21  24
ENDBRANCH   5  21
TORSDOF 9
ENDMDL
MODEL 8
REMARK VINA RESULT:      -8.3      3.149      9.645
REMARK  Name = 
REMARK  11 active torsions:
REMARK  status: ('A' for Active; 'I' for Inactive)
REMARK    1  A    between atoms: C_1  and  O_2
REMARK    2  A    between atoms: O_2  and  C_3
REMARK    3  A    between atoms: C_5  and  C_6
REMARK    4  A    between atoms: C_8  and  C_9
REMARK    5  A    between atoms: C_14  and  S_15
REMARK    6  A    between atoms: S_15  and  N_18
REMARK    7  A    between atoms: N_18  and  C_19
REMARK    8  A    between atoms: C_19  and  C_20
REMARK    9  A    between atoms: C_20  and  C_21
REMARK   10  A    between atoms: C_29  and  O_30
REMARK   11  A    between atoms: O_30  and  C_31
REMARK                            x       y       z     vdW  Elec       q    Type
REMARK                         _______ _______ _______ _____ _____    ______ ____
ROOT
ATOM      1  C   UNL     1       4.293   6.321  17.714  0.00  0.00    +0.000 A 
ATOM      2  C   UNL     1       3.834   5.418  18.704  0.00  0.00    +0.000 A 
ATOM      3  C   UNL     1       2.666   5.636  19.453  0.00  0.00    +0.000 A 
ATOM      4  C   UNL     1       1.991   6.848  19.294  0.00  0.00    +0.000 A 
ATOM      5  C   UNL     1       2.477   7.807  18.399  0.00  0.00    +0.000 A 
ATOM      6  C   UNL     1       3.605   7.543  17.602  0.00  0.00    +0.000 A 
ENDROOT
BRANCH   1   9
ATOM      7  C   UNL     1       5.944   4.639  14.766  0.00  0.00    +0.000 A 
ATOM      8  C   UNL     1       5.001   5.044  15.689  0.00  0.00    +0.000 A 
ATOM      9  C   UNL     1       5.357   5.889  16.759  0.00  0.00    +0.000 A 
ATOM     10  C   UNL     1       6.702   6.273  16.780  0.00  0.00    +0.000 A 
ATOM     11  N   UNL     1       7.600   5.861  15.843  0.00  0.00    +0.000 NA
ATOM     12  N   UNL     1       7.221   5.041  14.831  0.00  0.00    +0.000 NA
BRANCH   7  14
ATOM     13  C   UNL     1       6.393   3.766  12.649  0.00  0.00    +0.000 C 
ATOM     14  O   UNL     1       5.521   3.779  13.775  0.00  0.00    +0.000 OA
ENDBRANCH   7  14
BRANCH  10  15
ATOM     15  O   UNL     1       7.167   7.100  17.785  0.00  0.00    +0.000 OA
ATOM     16  C   UNL     1       7.890   6.388  18.792  0.00  0.00    +0.000 C 
ENDBRANCH  10  15
ENDBRANCH   1   9
BRANCH   3  17
ATOM     17  C   UNL     1       2.091   4.559  20.340  0.00  0.00    +0.000 C 
ATOM     18  F   UNL     1       0.728   4.561  20.379  0.00  0.00    +0.000 F 
ATOM     19  F   UNL     1       2.458   3.307  19.962  0.00  0.00    +0.000 F 
ATOM     20  F   UNL     1       2.495   4.698  21.634  0.00  0.00    +0.000 F 
ENDBRANCH   3  17
BRANCH   5  21
ATOM     21  S   UNL     1       1.559   9.318  18.184  0.00  0.00    +0.000 S 
ATOM     22  O   UNL     1       2.489  10.309  17.680  0.00  0.00    +0.000 OA
ATOM     23  O   UNL     1       0.325   9.020  17.500  0.00  0.00    +0.000 OA
BRANCH  21  24
ATOM     24  N   UNL     1       1.186   9.784  19.759  0.00  0.00    +0.000 NA
ATOM     25  H   UNL     1       1.956  10.329  20.150  0.00  0.00    +0.000 HD
BRANCH  24  26
ATOM     26  C   UNL     1      -0.168  10.286  20.064  0.00  0.00    +0.000 C 
BRANCH  26  27
ATOM     27  C   UNL     1      -0.306  11.785  19.814  0.00  0.00    +0.000 C 
BRANCH  27  28
ATOM     28  C   UNL     1      -1.315  12.411  20.734  0.00  0.00    +0.000 A 
ATOM     29  C   UNL     1      -1.815  13.693  20.451  0.00  0.00    +0.000 A 
ATOM     30  C   UNL     1      -2.723  14.305  21.312  0.00  0.00    +0.000 A 
ATOM     31  C   UNL     1      -3.137  13.641  22.465  0.00  0.00    +0.000 A 
ATOM     32  C   UNL     1      -2.643  12.370  22.741  0.00  0.00    +0.000 A 
ATOM     33  F   UNL     1      -3.042  11.736  23.852  0.00  0.00    +0.000 F 
ATOM     34  C   UNL     1      -1.739  11.748  21.890  0.00  0.00    +0.000 A 
ENDBRANCH  27  28
ENDBRANCH  26  27
ENDBRANCH  24  26
ENDBRANCH  21  24
ENDBRANCH   5  21
TORSDOF 9
ENDMDL
MODEL 9
REMARK VINA RESULT:      -8.3      3.221      8.138
REMARK  Name = 
REMARK  11 active torsions:
REMARK  status: ('A' for Active; 'I' for Inactive)
REMARK    1  A    between atoms: C_1  and  O_2
REMARK    2  A    between atoms: O_2  and  C_3
REMARK    3  A    between atoms: C_5  and  C_6
REMARK    4  A    between atoms: C_8  and  C_9
REMARK    5  A    between atoms: C_14  and  S_15
REMARK    6  A    between atoms: S_15  and  N_18
REMARK    7  A    between atoms: N_18  and  C_19
REMARK    8  A    between atoms: C_19  and  C_20
REMARK    9  A    between atoms: C_20  and  C_21
REMARK   10  A    between atoms: C_29  and  O_30
REMARK   11  A    between atoms: O_30  and  C_31
REMARK                            x       y       z     vdW  Elec       q    Type
REMARK                         _______ _______ _______ _____ _____    ______ ____
ROOT
ATOM      1  C   UNL     1       3.914   5.386  19.114  0.00  0.00    +0.000 A 
ATOM      2  C   UNL     1       3.288   4.193  19.549  0.00  0.00    +0.000 A 
ATOM      3  C   UNL     1       2.045   4.179  20.203  0.00  0.00    +0.000 A 
ATOM      4  C   UNL     1       1.457   5.399  20.539  0.00  0.00    +0.000 A 
ATOM      5  C   UNL     1       2.100   6.598  20.216  0.00  0.00    +0.000 A 
ATOM      6  C   UNL     1       3.307   6.597  19.495  0.00  0.00    +0.000 A 
ENDROOT
BRANCH   1   9
ATOM      7  C   UNL     1       5.848   5.248  15.875  0.00  0.00    +0.000 A 
ATOM      8  C   UNL     1       4.812   5.292  16.786  0.00  0.00    +0.000 A 
ATOM      9  C   UNL     1       5.070   5.310  18.171  0.00  0.00    +0.000 A 
ATOM     10  C   UNL     1       6.426   5.297  18.514  0.00  0.00    +0.000 A 
ATOM     11  N   UNL     1       7.420   5.265  17.585  0.00  0.00    +0.000 NA
ATOM     12  N   UNL     1       7.133   5.242  16.259  0.00  0.00    +0.000 NA
BRANCH   7  14
ATOM     13  C   UNL     1       5.942   3.989  13.912  0.00  0.00    +0.000 C 
ATOM     14  O   UNL     1       5.507   5.191  14.541  0.00  0.00    +0.000 OA
ENDBRANCH   7  14
BRANCH  10  15
ATOM     15  O   UNL     1       6.801   5.310  19.844  0.00  0.00    +0.000 OA
ATOM     16  C   UNL     1       8.171   5.676  20.026  0.00  0.00    +0.000 C 
ENDBRANCH  10  15
ENDBRANCH   1   9
BRANCH   3  17
ATOM     17  C   UNL     1       1.308   2.887  20.458  0.00  0.00    +0.000 C 
ATOM     18  F   UNL     1       1.012   2.682  21.772  0.00  0.00    +0.000 F 
ATOM     19  F   UNL     1       0.129   2.806  19.786  0.00  0.00    +0.000 F 
ATOM     20  F   UNL     1       2.037   1.801  20.072  0.00  0.00    +0.000 F 
ENDBRANCH   3  17
BRANCH   5  21
ATOM     21  S   UNL     1       1.293   8.136  20.612  0.00  0.00    +0.000 S 
ATOM     22  O   UNL     1      -0.063   7.811  21.005  0.00  0.00    +0.000 OA
ATOM     23  O   UNL     1       2.163   8.913  21.460  0.00  0.00    +0.000 OA
BRANCH  21  24
ATOM     24  N   UNL     1       1.176   8.917  19.124  0.00  0.00    +0.000 NA
ATOM     25  H   UNL     1       0.756   8.290  18.436  0.00  0.00    +0.000 HD
BRANCH  24  26
ATOM     26  C   UNL     1       0.711  10.317  19.076  0.00  0.00    +0.000 C 
BRANCH  26  27
ATOM     27  C   UNL     1      -0.695  10.486  19.644  0.00  0.00    +0.000 C 
BRANCH  27  28
ATOM     28  C   UNL     1      -1.718  10.644  18.555  0.00  0.00    +0.000 A 
ATOM     29  C   UNL     1      -2.791  11.534  18.732  0.00  0.00    +0.000 A 
ATOM     30  C   UNL     1      -3.769  11.668  17.748  0.00  0.00    +0.000 A 
ATOM     31  C   UNL     1      -3.684  10.910  16.581  0.00  0.00    +0.000 A 
ATOM     32  C   UNL     1      -2.618  10.033  16.408  0.00  0.00    +0.000 A 
ATOM     33  F   UNL     1      -2.541   9.306  15.285  0.00  0.00    +0.000 F 
ATOM     34  C   UNL     1      -1.636   9.893  17.379  0.00  0.00    +0.000 A 
ENDBRANCH  27  28
ENDBRANCH  26  27
ENDBRANCH  24  26
ENDBRANCH  21  24
ENDBRANCH   5  21
TORSDOF 9
ENDMDL
