MODEL 1
REMARK VINA RESULT:      -8.2      0.000      0.000
REMARK  Name = 
REMARK  7 active torsions:
REMARK  status: ('A' for Active; 'I' for Inactive)
REMARK    1  A    between atoms: C_1  and  C_2
REMARK    2  A    between atoms: C_2  and  C_3
REMARK    3  A    between atoms: C_2  and  C_4
REMARK    4  A    between atoms: C_2  and  C_5
REMARK    5  A    between atoms: N_10  and  C_11
REMARK    6  A    between atoms: C_14  and  N_15
REMARK    7  A    between atoms: C_16  and  C_18
REMARK                            x       y       z     vdW  Elec       q    Type
REMARK                         _______ _______ _______ _____ _____    ______ ____
ROOT
ATOM      1  C   UNL     1      -0.892  11.679  20.817  0.00  0.00    +0.000 A 
ATOM      2  C   UNL     1       0.100  11.115  21.627  0.00  0.00    +0.000 A 
ATOM      3  C   UNL     1       0.878  10.038  21.199  0.00  0.00    +0.000 A 
ATOM      4  C   UNL     1       0.678   9.478  19.940  0.00  0.00    +0.000 A 
ATOM      5  C   UNL     1      -0.330  10.003  19.128  0.00  0.00    +0.000 A 
ATOM      6  C   UNL     1      -1.097  11.091  19.560  0.00  0.00    +0.000 A 
ENDROOT
BRANCH   1  12
ATOM      7  C   UNL     1      -3.713  14.940  24.007  0.00  0.00    +0.000 C 
ATOM      8  O   UNL     1      -4.946  14.836  23.975  0.00  0.00    +0.000 OA
ATOM      9  N   UNL     1      -2.936  13.908  23.514  0.00  0.00    +0.000 N 
ATOM     10  C   UNL     1      -3.597  12.839  22.737  0.00  0.00    +0.000 C 
ATOM     11  C   UNL     1      -3.070  12.812  21.288  0.00  0.00    +0.000 C 
ATOM     12  N   UNL     1      -1.599  12.777  21.252  0.00  0.00    +0.000 N 
ATOM     13  C   UNL     1      -0.909  13.780  22.079  0.00  0.00    +0.000 C 
ATOM     14  C   UNL     1      -1.477  13.771  23.510  0.00  0.00    +0.000 C 
BRANCH   7  16
ATOM     15  C   UNL     1      -4.228  17.112  25.158  0.00  0.00    +0.000 C 
ATOM     16  C   UNL     1      -3.083  16.248  24.566  0.00  0.00    +0.000 C 
ATOM     17  C   UNL     1      -2.458  17.075  23.433  0.00  0.00    +0.000 C 
ATOM     18  C   UNL     1      -2.095  16.001  25.716  0.00  0.00    +0.000 C 
ENDBRANCH   7  16
ENDBRANCH   1  12
BRANCH   4  19
ATOM     19  N   UNL     1       1.436   8.406  19.434  0.00  0.00    +0.000 N 
ATOM     20  C   UNL     1       2.172   8.415  18.268  0.00  0.00    +0.000 C 
ATOM     21  O   UNL     1       2.286   9.328  17.461  0.00  0.00    +0.000 OA
ATOM     22  H   UNL     1       1.476   7.574  20.005  0.00  0.00    +0.000 HD
BRANCH  20  23
ATOM     23  C   UNL     1       2.939   7.180  18.000  0.00  0.00    +0.000 A 
ATOM     24  C   UNL     1       2.515   5.922  18.443  0.00  0.00    +0.000 A 
ATOM     25  C   UNL     1       3.206   4.782  18.020  0.00  0.00    +0.000 A 
ATOM     26  C   UNL     1       4.302   4.907  17.161  0.00  0.00    +0.000 A 
ATOM     27  C   UNL     1       4.753   6.173  16.790  0.00  0.00    +0.000 A 
ATOM     28  C   UNL     1       4.074   7.309  17.200  0.00  0.00    +0.000 A 
ATOM     29  O   UNL     1       5.853   6.364  16.002  0.00  0.00    +0.000 OA
ATOM     30  C   UNL     1       5.936   5.299  15.060  0.00  0.00    +0.000 C 
ATOM     31  C   UNL     1       5.910   3.937  15.743  0.00  0.00    +0.000 C 
ATOM     32  O   UNL     1       4.847   3.749  16.686  0.00  0.00    +0.000 OA
ENDBRANCH  20  23
ENDBRANCH   4  19
TORSDOF 4
ENDMDL
MODEL 2
REMARK VINA RESULT:      -7.9      1.187      1.643
REMARK  Name = 
REMARK  7 active torsions:
REMARK  status: ('A' for Active; 'I' for Inactive)
REMARK    1  A    between atoms: C_1  and  C_2
REMARK    2  A    between atoms: C_2  and  C_3
REMARK    3  A    between atoms: C_2  and  C_4
REMARK    4  A    between atoms: C_2  and  C_5
REMARK    5  A    between atoms: N_10  and  C_11
REMARK    6  A    between atoms: C_14  and  N_15
REMARK    7  A    between atoms: C_16  and  C_18
REMARK                            x       y       z     vdW  Elec       q    Type
REMARK                         _______ _______ _______ _____ _____    ______ ____
ROOT
ATOM      1  C   UNL     1      -0.234  11.326  21.292  0.00  0.00    +0.000 A 
ATOM      2  C   UNL     1       0.062  10.193  22.057  0.00  0.00    +0.000 A 
ATOM      3  C   UNL     1       0.741   9.098  21.522  0.00  0.00    +0.000 A 
ATOM      4  C   UNL     1       1.138   9.095  20.188  0.00  0.00    +0.000 A 
ATOM      5  C   UNL     1       0.823  10.202  19.396  0.00  0.00    +0.000 A 
ATOM      6  C   UNL     1       0.153  11.302  19.944  0.00  0.00    +0.000 A 
ENDROOT
BRANCH   1  12
ATOM      7  C   UNL     1      -3.961  15.015  22.420  0.00  0.00    +0.000 C 
ATOM      8  O   UNL     1      -3.934  16.066  21.767  0.00  0.00    +0.000 OA
ATOM      9  N   UNL     1      -3.294  13.904  21.940  0.00  0.00    +0.000 N 
ATOM     10  C   UNL     1      -2.364  14.079  20.804  0.00  0.00    +0.000 C 
ATOM     11  C   UNL     1      -0.922  13.729  21.221  0.00  0.00    +0.000 C 
ATOM     12  N   UNL     1      -0.854  12.410  21.871  0.00  0.00    +0.000 N 
ATOM     13  C   UNL     1      -1.822  12.175  22.955  0.00  0.00    +0.000 C 
ATOM     14  C   UNL     1      -3.242  12.547  22.491  0.00  0.00    +0.000 C 
BRANCH   7  16
ATOM     15  C   UNL     1      -5.316  16.407  24.013  0.00  0.00    +0.000 C 
ATOM     16  C   UNL     1      -4.715  14.995  23.781  0.00  0.00    +0.000 C 
ATOM     17  C   UNL     1      -3.737  14.746  24.939  0.00  0.00    +0.000 C 
ATOM     18  C   UNL     1      -5.900  14.017  23.803  0.00  0.00    +0.000 C 
ENDBRANCH   7  16
ENDBRANCH   1  12
BRANCH   4  19
ATOM     19  N   UNL     1       1.843   8.037  19.585  0.00  0.00    +0.000 N 
ATOM     20  C   UNL     1       2.339   8.025  18.299  0.00  0.00    +0.000 C 
ATOM     21  O   UNL     1       2.244   8.903  17.450  0.00  0.00    +0.000 OA
ATOM     22  H   UNL     1       2.038   7.237  20.169  0.00  0.00    +0.000 HD
BRANCH  20  23
ATOM     23  C   UNL     1       3.107   6.817  17.934  0.00  0.00    +0.000 A 
ATOM     24  C   UNL     1       2.662   5.524  18.236  0.00  0.00    +0.000 A 
ATOM     25  C   UNL     1       3.361   4.426  17.725  0.00  0.00    +0.000 A 
ATOM     26  C   UNL     1       4.485   4.626  16.917  0.00  0.00    +0.000 A 
ATOM     27  C   UNL     1       4.953   5.918  16.687  0.00  0.00    +0.000 A 
ATOM     28  C   UNL     1       4.268   7.014  17.186  0.00  0.00    +0.000 A 
ATOM     29  O   UNL     1       6.079   6.176  15.956  0.00  0.00    +0.000 OA
ATOM     30  C   UNL     1       6.186   5.209  14.917  0.00  0.00    +0.000 C 
ATOM     31  C   UNL     1       6.131   3.787  15.460  0.00  0.00    +0.000 C 
ATOM     32  O   UNL     1       5.038   3.515  16.346  0.00  0.00    +0.000 OA
ENDBRANCH  20  23
ENDBRANCH   4  19
TORSDOF 4
ENDMDL
MODEL 3
REMARK VINA RESULT:      -7.9      1.751      2.147
REMARK  Name = 
REMARK  7 active torsions:
REMARK  status: ('A' for Active; 'I' for Inactive)
REMARK    1  A    between atoms: C_1  and  C_2
REMARK    2  A    between atoms: C_2  and  C_3
REMARK    3  A    between atoms: C_2  and  C_4
REMARK    4  A    between atoms: C_2  and  C_5
REMARK    5  A    between atoms: N_10  and  C_11
REMARK    6  A    between atoms: C_14  and  N_15
REMARK    7  A    between atoms: C_16  and  C_18
REMARK                            x       y       z     vdW  Elec       q    Type
REMARK                         _______ _______ _______ _____ _____    ______ ____
ROOT
ATOM      1  C   UNL     1       0.136  10.941  21.325  0.00  0.00    +0.000 A 
ATOM      2  C   UNL     1       0.569   9.836  22.066  0.00  0.00    +0.000 A 
ATOM      3  C   UNL     1       1.241   8.766  21.473  0.00  0.00    +0.000 A 
ATOM      4  C   UNL     1       1.493   8.762  20.104  0.00  0.00    +0.000 A 
ATOM      5  C   UNL     1       1.041   9.839  19.338  0.00  0.00    +0.000 A 
ATOM      6  C   UNL     1       0.378  10.913  19.943  0.00  0.00    +0.000 A 
ENDROOT
BRANCH   1  12
ATOM      7  C   UNL     1      -3.497  14.693  22.542  0.00  0.00    +0.000 C 
ATOM      8  O   UNL     1      -3.389  15.791  21.979  0.00  0.00    +0.000 OA
ATOM      9  N   UNL     1      -2.848  13.595  22.010  0.00  0.00    +0.000 N 
ATOM     10  C   UNL     1      -1.847  13.817  20.946  0.00  0.00    +0.000 C 
ATOM     11  C   UNL     1      -0.447  13.370  21.412  0.00  0.00    +0.000 C 
ATOM     12  N   UNL     1      -0.472  12.002  21.955  0.00  0.00    +0.000 N 
ATOM     13  C   UNL     1      -1.511  11.726  22.961  0.00  0.00    +0.000 C 
ATOM     14  C   UNL     1      -2.885  12.197  22.450  0.00  0.00    +0.000 C 
BRANCH   7  16
ATOM     15  C   UNL     1      -4.994  15.982  24.094  0.00  0.00    +0.000 C 
ATOM     16  C   UNL     1      -4.330  14.600  23.852  0.00  0.00    +0.000 C 
ATOM     17  C   UNL     1      -3.415  14.343  25.059  0.00  0.00    +0.000 C 
ATOM     18  C   UNL     1      -5.479  13.583  23.769  0.00  0.00    +0.000 C 
ENDBRANCH   7  16
ENDBRANCH   1  12
BRANCH   4  19
ATOM     19  N   UNL     1       2.182   7.729  19.440  0.00  0.00    +0.000 N 
ATOM     20  C   UNL     1       2.183   6.398  19.797  0.00  0.00    +0.000 C 
ATOM     21  O   UNL     1       1.615   5.877  20.749  0.00  0.00    +0.000 OA
ATOM     22  H   UNL     1       2.681   7.989  18.601  0.00  0.00    +0.000 HD
BRANCH  20  23
ATOM     23  C   UNL     1       2.930   5.505  18.888  0.00  0.00    +0.000 A 
ATOM     24  C   UNL     1       2.310   4.472  18.173  0.00  0.00    +0.000 A 
ATOM     25  C   UNL     1       3.048   3.769  17.216  0.00  0.00    +0.000 A 
ATOM     26  C   UNL     1       4.385   4.102  16.978  0.00  0.00    +0.000 A 
ATOM     27  C   UNL     1       5.003   5.083  17.751  0.00  0.00    +0.000 A 
ATOM     28  C   UNL     1       4.283   5.789  18.700  0.00  0.00    +0.000 A 
ATOM     29  O   UNL     1       6.322   5.413  17.608  0.00  0.00    +0.000 OA
ATOM     30  C   UNL     1       6.683   5.286  16.236  0.00  0.00    +0.000 C 
ATOM     31  C   UNL     1       6.342   3.906  15.688  0.00  0.00    +0.000 C 
ATOM     32  O   UNL     1       5.003   3.463  15.942  0.00  0.00    +0.000 OA
ENDBRANCH  20  23
ENDBRANCH   4  19
TORSDOF 4
ENDMDL
MODEL 4
REMARK VINA RESULT:      -7.8      1.088      2.092
REMARK  Name = 
REMARK  7 active torsions:
REMARK  status: ('A' for Active; 'I' for Inactive)
REMARK    1  A    between atoms: C_1  and  C_2
REMARK    2  A    between atoms: C_2  and  C_3
REMARK    3  A    between atoms: C_2  and  C_4
REMARK    4  A    between atoms: C_2  and  C_5
REMARK    5  A    between atoms: N_10  and  C_11
REMARK    6  A    between atoms: C_14  and  N_15
REMARK    7  A    between atoms: C_16  and  C_18
REMARK                            x       y       z     vdW  Elec       q    Type
REMARK                         _______ _______ _______ _____ _____    ______ ____
ROOT
ATOM      1  C   UNL     1      -0.929  11.905  20.769  0.00  0.00    +0.000 A 
ATOM      2  C   UNL     1      -1.109  11.388  19.481  0.00  0.00    +0.000 A 
ATOM      3  C   UNL     1      -0.388  10.285  19.021  0.00  0.00    +0.000 A 
ATOM      4  C   UNL     1       0.554   9.665  19.837  0.00  0.00    +0.000 A 
ATOM      5  C   UNL     1       0.775  10.185  21.115  0.00  0.00    +0.000 A 
ATOM      6  C   UNL     1       0.039  11.284  21.573  0.00  0.00    +0.000 A 
ENDROOT
BRANCH   1  12
ATOM      7  C   UNL     1      -3.856  15.031  23.997  0.00  0.00    +0.000 C 
ATOM      8  O   UNL     1      -5.078  14.833  24.023  0.00  0.00    +0.000 OA
ATOM      9  N   UNL     1      -3.023  14.048  23.497  0.00  0.00    +0.000 N 
ATOM     10  C   UNL     1      -3.632  12.910  22.777  0.00  0.00    +0.000 C 
ATOM     11  C   UNL     1      -3.167  12.881  21.308  0.00  0.00    +0.000 C 
ATOM     12  N   UNL     1      -1.700  12.957  21.207  0.00  0.00    +0.000 N 
ATOM     13  C   UNL     1      -1.055  14.033  21.976  0.00  0.00    +0.000 C 
ATOM     14  C   UNL     1      -1.559  14.023  23.431  0.00  0.00    +0.000 C 
BRANCH   7  16
ATOM     15  C   UNL     1      -4.490  17.192  25.110  0.00  0.00    +0.000 C 
ATOM     16  C   UNL     1      -3.306  16.399  24.494  0.00  0.00    +0.000 C 
ATOM     17  C   UNL     1      -2.792  17.237  23.315  0.00  0.00    +0.000 C 
ATOM     18  C   UNL     1      -2.258  16.262  25.608  0.00  0.00    +0.000 C 
ENDBRANCH   7  16
ENDBRANCH   1  12
BRANCH   4  19
ATOM     19  N   UNL     1       1.303   8.539  19.449  0.00  0.00    +0.000 N 
ATOM     20  C   UNL     1       2.054   8.424  18.300  0.00  0.00    +0.000 C 
ATOM     21  O   UNL     1       2.193   9.253  17.409  0.00  0.00    +0.000 OA
ATOM     22  H   UNL     1       1.322   7.766  20.100  0.00  0.00    +0.000 HD
BRANCH  20  23
ATOM     23  C   UNL     1       2.806   7.159  18.165  0.00  0.00    +0.000 A 
ATOM     24  C   UNL     1       4.046   7.089  17.517  0.00  0.00    +0.000 A 
ATOM     25  C   UNL     1       4.771   5.894  17.563  0.00  0.00    +0.000 A 
ATOM     26  C   UNL     1       4.260   4.791  18.254  0.00  0.00    +0.000 A 
ATOM     27  C   UNL     1       2.993   4.859  18.830  0.00  0.00    +0.000 A 
ATOM     28  C   UNL     1       2.266   6.038  18.794  0.00  0.00    +0.000 A 
ATOM     29  O   UNL     1       2.413   3.797  19.467  0.00  0.00    +0.000 OA
ATOM     30  C   UNL     1       3.428   3.042  20.120  0.00  0.00    +0.000 C 
ATOM     31  C   UNL     1       4.539   2.637  19.159  0.00  0.00    +0.000 C 
ATOM     32  O   UNL     1       5.078   3.703  18.368  0.00  0.00    +0.000 OA
ENDBRANCH  20  23
ENDBRANCH   4  19
TORSDOF 4
ENDMDL
MODEL 5
REMARK VINA RESULT:      -7.7      1.219      2.218
REMARK  Name = 
REMARK  7 active torsions:
REMARK  status: ('A' for Active; 'I' for Inactive)
REMARK    1  A    between atoms: C_1  and  C_2
REMARK    2  A    between atoms: C_2  and  C_3
REMARK    3  A    between atoms: C_2  and  C_4
REMARK    4  A    between atoms: C_2  and  C_5
REMARK    5  A    between atoms: N_10  and  C_11
REMARK    6  A    between atoms: C_14  and  N_15
REMARK    7  A    between atoms: C_16  and  C_18
REMARK                            x       y       z     vdW  Elec       q    Type
REMARK                         _______ _______ _______ _____ _____    ______ ____
ROOT
ATOM      1  C   UNL     1      -0.623  11.750  20.541  0.00  0.00    +0.000 A 
ATOM      2  C   UNL     1      -0.894  11.253  19.261  0.00  0.00    +0.000 A 
ATOM      3  C   UNL     1      -0.271  10.106  18.768  0.00  0.00    +0.000 A 
ATOM      4  C   UNL     1       0.661   9.419  19.541  0.00  0.00    +0.000 A 
ATOM      5  C   UNL     1       0.973   9.916  20.809  0.00  0.00    +0.000 A 
ATOM      6  C   UNL     1       0.334  11.061  21.301  0.00  0.00    +0.000 A 
ENDROOT
BRANCH   1  12
ATOM      7  C   UNL     1      -3.747  14.824  23.632  0.00  0.00    +0.000 C 
ATOM      8  O   UNL     1      -4.948  14.888  23.338  0.00  0.00    +0.000 OA
ATOM      9  N   UNL     1      -2.983  13.787  23.129  0.00  0.00    +0.000 N 
ATOM     10  C   UNL     1      -3.558  12.945  22.059  0.00  0.00    +0.000 C 
ATOM     11  C   UNL     1      -2.734  13.071  20.763  0.00  0.00    +0.000 C 
ATOM     12  N   UNL     1      -1.299  12.851  21.013  0.00  0.00    +0.000 N 
ATOM     13  C   UNL     1      -0.714  13.617  22.125  0.00  0.00    +0.000 C 
ATOM     14  C   UNL     1      -1.578  13.464  23.390  0.00  0.00    +0.000 C 
BRANCH   7  16
ATOM     15  C   UNL     1      -2.472  15.252  25.753  0.00  0.00    +0.000 C 
ATOM     16  C   UNL     1      -3.133  15.938  24.527  0.00  0.00    +0.000 C 
ATOM     17  C   UNL     1      -4.232  16.853  25.084  0.00  0.00    +0.000 C 
ATOM     18  C   UNL     1      -2.018  16.730  23.829  0.00  0.00    +0.000 C 
ENDBRANCH   7  16
ENDBRANCH   1  12
BRANCH   4  19
ATOM     19  N   UNL     1       1.313   8.246  19.119  0.00  0.00    +0.000 N 
ATOM     20  C   UNL     1       2.213   8.150  18.079  0.00  0.00    +0.000 C 
ATOM     21  O   UNL     1       2.591   9.042  17.330  0.00  0.00    +0.000 OA
ATOM     22  H   UNL     1       1.135   7.412  19.661  0.00  0.00    +0.000 HD
BRANCH  20  23
ATOM     23  C   UNL     1       2.812   6.813  17.888  0.00  0.00    +0.000 A 
ATOM     24  C   UNL     1       4.197   6.612  17.831  0.00  0.00    +0.000 A 
ATOM     25  C   UNL     1       4.694   5.305  17.805  0.00  0.00    +0.000 A 
ATOM     26  C   UNL     1       3.814   4.220  17.841  0.00  0.00    +0.000 A 
ATOM     27  C   UNL     1       2.438   4.441  17.823  0.00  0.00    +0.000 A 
ATOM     28  C   UNL     1       1.933   5.730  17.853  0.00  0.00    +0.000 A 
ATOM     29  O   UNL     1       1.526   3.423  17.797  0.00  0.00    +0.000 OA
ATOM     30  C   UNL     1       2.039   2.326  18.547  0.00  0.00    +0.000 C 
ATOM     31  C   UNL     1       3.423   1.910  18.065  0.00  0.00    +0.000 C 
ATOM     32  O   UNL     1       4.372   2.978  17.944  0.00  0.00    +0.000 OA
ENDBRANCH  20  23
ENDBRANCH   4  19
TORSDOF 4
ENDMDL
MODEL 6
REMARK VINA RESULT:      -7.7      1.023      1.777
REMARK  Name = 
REMARK  7 active torsions:
REMARK  status: ('A' for Active; 'I' for Inactive)
REMARK    1  A    between atoms: C_1  and  C_2
REMARK    2  A    between atoms: C_2  and  C_3
REMARK    3  A    between atoms: C_2  and  C_4
REMARK    4  A    between atoms: C_2  and  C_5
REMARK    5  A    between atoms: N_10  and  C_11
REMARK    6  A    between atoms: C_14  and  N_15
REMARK    7  A    between atoms: C_16  and  C_18
REMARK                            x       y       z     vdW  Elec       q    Type
REMARK                         _______ _______ _______ _____ _____    ______ ____
ROOT
ATOM      1  C   UNL     1      -0.906  11.990  20.818  0.00  0.00    +0.000 A 
ATOM      2  C   UNL     1       0.196  11.474  21.509  0.00  0.00    +0.000 A 
ATOM      3  C   UNL     1       0.912  10.372  21.040  0.00  0.00    +0.000 A 
ATOM      4  C   UNL     1       0.538   9.737  19.859  0.00  0.00    +0.000 A 
ATOM      5  C   UNL     1      -0.579  10.214  19.169  0.00  0.00    +0.000 A 
ATOM      6  C   UNL     1      -1.284  11.327  19.641  0.00  0.00    +0.000 A 
ENDROOT
BRANCH   1  12
ATOM      7  C   UNL     1      -3.495  15.335  24.115  0.00  0.00    +0.000 C 
ATOM      8  O   UNL     1      -4.732  15.288  24.114  0.00  0.00    +0.000 OA
ATOM      9  N   UNL     1      -2.778  14.275  23.591  0.00  0.00    +0.000 N 
ATOM     10  C   UNL     1      -3.507  13.247  22.819  0.00  0.00    +0.000 C 
ATOM     11  C   UNL     1      -3.018  13.214  21.357  0.00  0.00    +0.000 C 
ATOM     12  N   UNL     1      -1.551  13.113  21.283  0.00  0.00    +0.000 N 
ATOM     13  C   UNL     1      -0.795  14.073  22.103  0.00  0.00    +0.000 C 
ATOM     14  C   UNL     1      -1.327  14.073  23.548  0.00  0.00    +0.000 C 
BRANCH   7  16
ATOM     15  C   UNL     1      -3.886  17.530  25.271  0.00  0.00    +0.000 C 
ATOM     16  C   UNL     1      -2.793  16.606  24.673  0.00  0.00    +0.000 C 
ATOM     17  C   UNL     1      -2.129  17.400  23.538  0.00  0.00    +0.000 C 
ATOM     18  C   UNL     1      -1.815  16.305  25.818  0.00  0.00    +0.000 C 
ENDBRANCH   7  16
ENDBRANCH   1  12
BRANCH   4  19
ATOM     19  N   UNL     1       1.223   8.635  19.314  0.00  0.00    +0.000 N 
ATOM     20  C   UNL     1       2.043   8.659  18.207  0.00  0.00    +0.000 C 
ATOM     21  O   UNL     1       2.309   9.617  17.492  0.00  0.00    +0.000 OA
ATOM     22  H   UNL     1       1.136   7.761  19.813  0.00  0.00    +0.000 HD
BRANCH  20  23
ATOM     23  C   UNL     1       2.703   7.377  17.886  0.00  0.00    +0.000 A 
ATOM     24  C   UNL     1       4.026   7.306  17.431  0.00  0.00    +0.000 A 
ATOM     25  C   UNL     1       4.633   6.054  17.296  0.00  0.00    +0.000 A 
ATOM     26  C   UNL     1       3.924   4.893  17.619  0.00  0.00    +0.000 A 
ATOM     27  C   UNL     1       2.586   4.981  18.000  0.00  0.00    +0.000 A 
ATOM     28  C   UNL     1       1.974   6.215  18.140  0.00  0.00    +0.000 A 
ATOM     29  O   UNL     1       1.822   3.880  18.271  0.00  0.00    +0.000 OA
ATOM     30  C   UNL     1       2.646   2.883  18.867  0.00  0.00    +0.000 C 
ATOM     31  C   UNL     1       3.869   2.574  18.013  0.00  0.00    +0.000 C 
ATOM     32  O   UNL     1       4.620   3.718  17.589  0.00  0.00    +0.000 OA
ENDBRANCH  20  23
ENDBRANCH   4  19
TORSDOF 4
ENDMDL
MODEL 7
REMARK VINA RESULT:      -7.6      1.335      2.078
REMARK  Name = 
REMARK  7 active torsions:
REMARK  status: ('A' for Active; 'I' for Inactive)
REMARK    1  A    between atoms: C_1  and  C_2
REMARK    2  A    between atoms: C_2  and  C_3
REMARK    3  A    between atoms: C_2  and  C_4
REMARK    4  A    between atoms: C_2  and  C_5
REMARK    5  A    between atoms: N_10  and  C_11
REMARK    6  A    between atoms: C_14  and  N_15
REMARK    7  A    between atoms: C_16  and  C_18
REMARK                            x       y       z     vdW  Elec       q    Type
REMARK                         _______ _______ _______ _____ _____    ______ ____
ROOT
ATOM      1  C   UNL     1      -0.467  11.186  21.804  0.00  0.00    +0.000 A 
ATOM      2  C   UNL     1      -0.028  11.353  20.486  0.00  0.00    +0.000 A 
ATOM      3  C   UNL     1       0.694  10.363  19.818  0.00  0.00    +0.000 A 
ATOM      4  C   UNL     1       1.013   9.168  20.456  0.00  0.00    +0.000 A 
ATOM      5  C   UNL     1       0.613   8.993  21.784  0.00  0.00    +0.000 A 
ATOM      6  C   UNL     1      -0.120   9.986  22.442  0.00  0.00    +0.000 A 
ENDROOT
BRANCH   1  12
ATOM      7  C   UNL     1      -3.556  15.524  22.442  0.00  0.00    +0.000 C 
ATOM      8  O   UNL     1      -2.984  16.602  22.652  0.00  0.00    +0.000 OA
ATOM      9  N   UNL     1      -2.838  14.471  21.907  0.00  0.00    +0.000 N 
ATOM     10  C   UNL     1      -1.366  14.583  21.846  0.00  0.00    +0.000 C 
ATOM     11  C   UNL     1      -0.699  13.502  22.718  0.00  0.00    +0.000 C 
ATOM     12  N   UNL     1      -1.225  12.162  22.410  0.00  0.00    +0.000 N 
ATOM     13  C   UNL     1      -2.691  12.034  22.386  0.00  0.00    +0.000 C 
ATOM     14  C   UNL     1      -3.307  13.141  21.509  0.00  0.00    +0.000 C 
BRANCH   7  16
ATOM     15  C   UNL     1      -5.483  16.680  23.564  0.00  0.00    +0.000 C 
ATOM     16  C   UNL     1      -5.057  15.383  22.826  0.00  0.00    +0.000 C 
ATOM     17  C   UNL     1      -5.255  14.233  23.825  0.00  0.00    +0.000 C 
ATOM     18  C   UNL     1      -5.985  15.259  21.609  0.00  0.00    +0.000 C 
ENDBRANCH   7  16
ENDBRANCH   1  12
BRANCH   4  19
ATOM     19  N   UNL     1       1.718   8.118  19.840  0.00  0.00    +0.000 N 
ATOM     20  C   UNL     1       2.166   8.100  18.537  0.00  0.00    +0.000 C 
ATOM     21  O   UNL     1       2.020   8.964  17.682  0.00  0.00    +0.000 OA
ATOM     22  H   UNL     1       1.954   7.330  20.427  0.00  0.00    +0.000 HD
BRANCH  20  23
ATOM     23  C   UNL     1       2.948   6.905  18.158  0.00  0.00    +0.000 A 
ATOM     24  C   UNL     1       2.550   5.607  18.502  0.00  0.00    +0.000 A 
ATOM     25  C   UNL     1       3.253   4.518  17.978  0.00  0.00    +0.000 A 
ATOM     26  C   UNL     1       4.334   4.730  17.116  0.00  0.00    +0.000 A 
ATOM     27  C   UNL     1       4.758   6.030  16.844  0.00  0.00    +0.000 A 
ATOM     28  C   UNL     1       4.069   7.117  17.355  0.00  0.00    +0.000 A 
ATOM     29  O   UNL     1       5.843   6.302  16.058  0.00  0.00    +0.000 OA
ATOM     30  C   UNL     1       5.928   5.319  15.032  0.00  0.00    +0.000 C 
ATOM     31  C   UNL     1       5.933   3.906  15.601  0.00  0.00    +0.000 C 
ATOM     32  O   UNL     1       4.889   3.624  16.541  0.00  0.00    +0.000 OA
ENDBRANCH  20  23
ENDBRANCH   4  19
TORSDOF 4
ENDMDL
MODEL 8
REMARK VINA RESULT:      -7.6      1.615      2.137
REMARK  Name = 
REMARK  7 active torsions:
REMARK  status: ('A' for Active; 'I' for Inactive)
REMARK    1  A    between atoms: C_1  and  C_2
REMARK    2  A    between atoms: C_2  and  C_3
REMARK    3  A    between atoms: C_2  and  C_4
REMARK    4  A    between atoms: C_2  and  C_5
REMARK    5  A    between atoms: N_10  and  C_11
REMARK    6  A    between atoms: C_14  and  N_15
REMARK    7  A    between atoms: C_16  and  C_18
REMARK                            x       y       z     vdW  Elec       q    Type
REMARK                         _______ _______ _______ _____ _____    ______ ____
ROOT
ATOM      1  C   UNL     1       0.157  11.118  20.131  0.00  0.00    +0.000 A 
ATOM      2  C   UNL     1       0.649  11.209  18.825  0.00  0.00    +0.000 A 
ATOM      3  C   UNL     1       1.422  10.197  18.254  0.00  0.00    +0.000 A 
ATOM      4  C   UNL     1       1.741   9.055  18.984  0.00  0.00    +0.000 A 
ATOM      5  C   UNL     1       1.288   8.957  20.302  0.00  0.00    +0.000 A 
ATOM      6  C   UNL     1       0.504   9.971  20.862  0.00  0.00    +0.000 A 
ENDROOT
BRANCH   1  12
ATOM      7  C   UNL     1      -4.143  13.597  22.163  0.00  0.00    +0.000 C 
ATOM      8  O   UNL     1      -4.929  14.118  21.361  0.00  0.00    +0.000 OA
ATOM      9  N   UNL     1      -3.247  12.646  21.710  0.00  0.00    +0.000 N 
ATOM     10  C   UNL     1      -3.082  12.474  20.251  0.00  0.00    +0.000 C 
ATOM     11  C   UNL     1      -1.645  12.823  19.820  0.00  0.00    +0.000 C 
ATOM     12  N   UNL     1      -0.649  12.111  20.638  0.00  0.00    +0.000 N 
ATOM     13  C   UNL     1      -0.832  12.197  22.096  0.00  0.00    +0.000 C 
ATOM     14  C   UNL     1      -2.283  11.848  22.472  0.00  0.00    +0.000 C 
BRANCH   7  16
ATOM     15  C   UNL     1      -5.364  15.034  23.822  0.00  0.00    +0.000 C 
ATOM     16  C   UNL     1      -4.167  14.061  23.647  0.00  0.00    +0.000 C 
ATOM     17  C   UNL     1      -2.903  14.866  23.984  0.00  0.00    +0.000 C 
ATOM     18  C   UNL     1      -4.402  12.912  24.638  0.00  0.00    +0.000 C 
ENDBRANCH   7  16
ENDBRANCH   1  12
BRANCH   4  19
ATOM     19  N   UNL     1       2.497   7.986  18.469  0.00  0.00    +0.000 N 
ATOM     20  C   UNL     1       2.585   6.722  19.012  0.00  0.00    +0.000 C 
ATOM     21  O   UNL     1       2.051   6.306  20.032  0.00  0.00    +0.000 OA
ATOM     22  H   UNL     1       2.980   8.155  17.598  0.00  0.00    +0.000 HD
BRANCH  20  23
ATOM     23  C   UNL     1       3.391   5.758  18.234  0.00  0.00    +0.000 A 
ATOM     24  C   UNL     1       3.024   4.415  18.091  0.00  0.00    +0.000 A 
ATOM     25  C   UNL     1       3.748   3.600  17.215  0.00  0.00    +0.000 A 
ATOM     26  C   UNL     1       4.819   4.130  16.490  0.00  0.00    +0.000 A 
ATOM     27  C   UNL     1       5.214   5.450  16.701  0.00  0.00    +0.000 A 
ATOM     28  C   UNL     1       4.504   6.268  17.564  0.00  0.00    +0.000 A 
ATOM     29  O   UNL     1       6.290   6.009  16.068  0.00  0.00    +0.000 OA
ATOM     30  C   UNL     1       6.391   5.459  14.759  0.00  0.00    +0.000 C 
ATOM     31  C   UNL     1       6.430   3.936  14.786  0.00  0.00    +0.000 C 
ATOM     32  O   UNL     1       5.396   3.314  15.560  0.00  0.00    +0.000 OA
ENDBRANCH  20  23
ENDBRANCH   4  19
TORSDOF 4
ENDMDL
MODEL 9
REMARK VINA RESULT:      -7.6      1.207      1.798
REMARK  Name = 
REMARK  7 active torsions:
REMARK  status: ('A' for Active; 'I' for Inactive)
REMARK    1  A    between atoms: C_1  and  C_2
REMARK    2  A    between atoms: C_2  and  C_3
REMARK    3  A    between atoms: C_2  and  C_4
REMARK    4  A    between atoms: C_2  and  C_5
REMARK    5  A    between atoms: N_10  and  C_11
REMARK    6  A    between atoms: C_14  and  N_15
REMARK    7  A    between atoms: C_16  and  C_18
REMARK                            x       y       z     vdW  Elec       q    Type
REMARK                         _______ _______ _______ _____ _____    ______ ____
ROOT
ATOM      1  C   UNL     1      -0.438  11.640  20.972  0.00  0.00    +0.000 A 
ATOM      2  C   UNL     1      -0.102  11.613  19.614  0.00  0.00    +0.000 A 
ATOM      3  C   UNL     1       0.611  10.554  19.051  0.00  0.00    +0.000 A 
ATOM      4  C   UNL     1       1.026   9.483  19.838  0.00  0.00    +0.000 A 
ATOM      5  C   UNL     1       0.732   9.505  21.204  0.00  0.00    +0.000 A 
ATOM      6  C   UNL     1       0.006  10.565  21.758  0.00  0.00    +0.000 A 
ENDROOT
BRANCH   1  12
ATOM      7  C   UNL     1      -4.696  14.624  22.286  0.00  0.00    +0.000 C 
ATOM      8  O   UNL     1      -5.066  15.475  21.467  0.00  0.00    +0.000 OA
ATOM      9  N   UNL     1      -3.871  13.597  21.866  0.00  0.00    +0.000 N 
ATOM     10  C   UNL     1      -3.254  13.693  20.527  0.00  0.00    +0.000 C 
ATOM     11  C   UNL     1      -1.718  13.761  20.637  0.00  0.00    +0.000 C 
ATOM     12  N   UNL     1      -1.191  12.674  21.479  0.00  0.00    +0.000 N 
ATOM     13  C   UNL     1      -1.838  12.501  22.789  0.00  0.00    +0.000 C 
ATOM     14  C   UNL     1      -3.368  12.448  22.624  0.00  0.00    +0.000 C 
BRANCH   7  16
ATOM     15  C   UNL     1      -5.931  13.484  24.152  0.00  0.00    +0.000 C 
ATOM     16  C   UNL     1      -5.143  14.765  23.769  0.00  0.00    +0.000 C 
ATOM     17  C   UNL     1      -6.120  15.938  23.932  0.00  0.00    +0.000 C 
ATOM     18  C   UNL     1      -3.965  14.852  24.751  0.00  0.00    +0.000 C 
ENDBRANCH   7  16
ENDBRANCH   1  12
BRANCH   4  19
ATOM     19  N   UNL     1       1.730   8.372  19.337  0.00  0.00    +0.000 N 
ATOM     20  C   UNL     1       2.332   8.287  18.101  0.00  0.00    +0.000 C 
ATOM     21  O   UNL     1       2.350   9.134  17.216  0.00  0.00    +0.000 OA
ATOM     22  H   UNL     1       1.838   7.588  19.965  0.00  0.00    +0.000 HD
BRANCH  20  23
ATOM     23  C   UNL     1       3.072   7.034  17.847  0.00  0.00    +0.000 A 
ATOM     24  C   UNL     1       2.560   5.776  18.190  0.00  0.00    +0.000 A 
ATOM     25  C   UNL     1       3.243   4.627  17.780  0.00  0.00    +0.000 A 
ATOM     26  C   UNL     1       4.419   4.742  17.033  0.00  0.00    +0.000 A 
ATOM     27  C   UNL     1       4.951   6.002  16.765  0.00  0.00    +0.000 A 
ATOM     28  C   UNL     1       4.282   7.147  17.162  0.00  0.00    +0.000 A 
ATOM     29  O   UNL     1       6.128   6.178  16.091  0.00  0.00    +0.000 OA
ATOM     30  C   UNL     1       6.257   5.152  15.112  0.00  0.00    +0.000 C 
ATOM     31  C   UNL     1       6.114   3.765  15.726  0.00  0.00    +0.000 C 
ATOM     32  O   UNL     1       4.961   3.582  16.557  0.00  0.00    +0.000 OA
ENDBRANCH  20  23
ENDBRANCH   4  19
TORSDOF 4
ENDMDL
