MODEL 1
REMARK VINA RESULT:      -8.6      0.000      0.000
REMARK  Name = 
REMARK  12 active torsions:
REMARK  status: ('A' for Active; 'I' for Inactive)
REMARK    1  A    between atoms: C_1  and  C_2
REMARK    2  A    between atoms: C_2  and  C_3
REMARK    3  A    between atoms: C_3  and  C_4
REMARK    4  A    between atoms: C_4  and  C_5
REMARK    5  A    between atoms: N_7  and  C_8
REMARK    6  A    between atoms: C_8  and  C_9
REMARK    7  A    between atoms: C_8  and  C_10
REMARK    8  A    between atoms: C_10  and  C_11
REMARK    9  A    between atoms: N_14  and  C_15
REMARK   10  A    between atoms: C_15  and  C_16
REMARK   11  A    between atoms: C_19  and  C_20
REMARK   12  A    between atoms: C_25  and  C_26
REMARK                            x       y       z     vdW  Elec       q    Type
REMARK                         _______ _______ _______ _____ _____    ______ ____
ROOT
ATOM      1  C   UNL     1       2.064   8.986  18.774  0.00  0.00    +0.000 A 
ATOM      2  C   UNL     1       1.828   8.233  19.923  0.00  0.00    +0.000 A 
ATOM      3  C   UNL     1       2.003   6.843  19.916  0.00  0.00    +0.000 A 
ATOM      4  C   UNL     1       2.469   6.151  18.781  0.00  0.00    +0.000 A 
ATOM      5  C   UNL     1       2.755   6.941  17.651  0.00  0.00    +0.000 A 
ATOM      6  C   UNL     1       2.556   8.325  17.640  0.00  0.00    +0.000 A 
ENDROOT
BRANCH   4   7
ATOM      7  C   UNL     1       2.574   4.659  18.730  0.00  0.00    +0.000 A 
ATOM      8  C   UNL     1       1.365   3.912  18.666  0.00  0.00    +0.000 A 
ATOM      9  C   UNL     1       1.329   2.515  18.696  0.00  0.00    +0.000 A 
ATOM     10  C   UNL     1       2.507   1.804  18.826  0.00  0.00    +0.000 A 
ATOM     11  C   UNL     1       3.716   2.495  18.871  0.00  0.00    +0.000 A 
ATOM     12  C   UNL     1       3.778   3.909  18.790  0.00  0.00    +0.000 A 
BRANCH  12  13
ATOM     13  C   UNL     1       5.121   4.488  18.702  0.00  0.00    +0.000 A 
ATOM     14  N   UNL     1       5.867   4.873  19.792  0.00  0.00    +0.000 NA
ATOM     15  N   UNL     1       6.986   5.411  19.330  0.00  0.00    +0.000 NA
ATOM     16  N   UNL     1       6.846   5.382  18.003  0.00  0.00    +0.000 N 
ATOM     17  N   UNL     1       5.732   4.798  17.541  0.00  0.00    +0.000 NA
ATOM     18  H   UNL     1       7.534   5.799  17.385  0.00  0.00    +0.000 HD
ENDBRANCH  12  13
ENDBRANCH   4   7
BRANCH   1  19
ATOM     19  C   UNL     1       1.726  10.454  18.732  0.00  0.00    +0.000 C 
BRANCH  19  25
ATOM     20  C   UNL     1      -0.826  10.636  18.755  0.00  0.00    +0.000 A 
ATOM     21  N   UNL     1      -1.760  11.224  19.466  0.00  0.00    +0.000 NA
ATOM     22  N   UNL     1      -1.075  11.807  20.496  0.00  0.00    +0.000 N 
ATOM     23  C   UNL     1       0.285  11.554  20.375  0.00  0.00    +0.000 A 
ATOM     24  O   UNL     1       1.178  11.977  21.095  0.00  0.00    +0.000 OA
ATOM     25  N   UNL     1       0.414  10.776  19.251  0.00  0.00    +0.000 N 
BRANCH  22  26
ATOM     26  C   UNL     1      -1.682  12.574  21.569  0.00  0.00    +0.000 C 
ATOM     27  C   UNL     1      -2.991  13.228  21.127  0.00  0.00    +0.000 C 
BRANCH  26  28
ATOM     28  C   UNL     1      -1.898  11.729  22.834  0.00  0.00    +0.000 C 
ATOM     29  C   UNL     1      -3.111  12.147  23.655  0.00  0.00    +0.000 C 
ENDBRANCH  26  28
ENDBRANCH  22  26
BRANCH  20  30
ATOM     30  C   UNL     1      -1.172   9.885  17.484  0.00  0.00    +0.000 C 
BRANCH  30  31
ATOM     31  C   UNL     1      -2.648   9.945  17.079  0.00  0.00    +0.000 C 
BRANCH  31  33
ATOM     32  C   UNL     1      -3.111  10.094  14.594  0.00  0.00    +0.000 C 
ATOM     33  C   UNL     1      -2.943  10.871  15.895  0.00  0.00    +0.000 C 
ENDBRANCH  31  33
ENDBRANCH  30  31
ENDBRANCH  20  30
ENDBRANCH  19  25
ENDBRANCH   1  19
TORSDOF 9
ENDMDL
MODEL 2
REMARK VINA RESULT:      -8.4      2.516      3.549
REMARK  Name = 
REMARK  12 active torsions:
REMARK  status: ('A' for Active; 'I' for Inactive)
REMARK    1  A    between atoms: C_1  and  C_2
REMARK    2  A    between atoms: C_2  and  C_3
REMARK    3  A    between atoms: C_3  and  C_4
REMARK    4  A    between atoms: C_4  and  C_5
REMARK    5  A    between atoms: N_7  and  C_8
REMARK    6  A    between atoms: C_8  and  C_9
REMARK    7  A    between atoms: C_8  and  C_10
REMARK    8  A    between atoms: C_10  and  C_11
REMARK    9  A    between atoms: N_14  and  C_15
REMARK   10  A    between atoms: C_15  and  C_16
REMARK   11  A    between atoms: C_19  and  C_20
REMARK   12  A    between atoms: C_25  and  C_26
REMARK                            x       y       z     vdW  Elec       q    Type
REMARK                         _______ _______ _______ _____ _____    ______ ____
ROOT
ATOM      1  C   UNL     1       1.148   8.863  19.978  0.00  0.00    +0.000 A 
ATOM      2  C   UNL     1       1.463   9.149  18.650  0.00  0.00    +0.000 A 
ATOM      3  C   UNL     1       2.278   8.286  17.906  0.00  0.00    +0.000 A 
ATOM      4  C   UNL     1       2.771   7.077  18.434  0.00  0.00    +0.000 A 
ATOM      5  C   UNL     1       2.392   6.783  19.758  0.00  0.00    +0.000 A 
ATOM      6  C   UNL     1       1.604   7.652  20.519  0.00  0.00    +0.000 A 
ENDROOT
BRANCH   4   7
ATOM      7  C   UNL     1       3.715   6.192  17.684  0.00  0.00    +0.000 A 
ATOM      8  C   UNL     1       4.845   6.798  17.068  0.00  0.00    +0.000 A 
ATOM      9  C   UNL     1       5.752   6.092  16.273  0.00  0.00    +0.000 A 
ATOM     10  C   UNL     1       5.545   4.746  16.033  0.00  0.00    +0.000 A 
ATOM     11  C   UNL     1       4.463   4.108  16.633  0.00  0.00    +0.000 A 
ATOM     12  C   UNL     1       3.561   4.794  17.484  0.00  0.00    +0.000 A 
BRANCH  12  13
ATOM     13  C   UNL     1       2.560   3.966  18.160  0.00  0.00    +0.000 A 
ATOM     14  N   UNL     1       2.809   3.226  19.293  0.00  0.00    +0.000 NA
ATOM     15  N   UNL     1       1.701   2.556  19.574  0.00  0.00    +0.000 NA
ATOM     16  N   UNL     1       0.862   2.869  18.584  0.00  0.00    +0.000 N 
ATOM     17  N   UNL     1       1.313   3.758  17.689  0.00  0.00    +0.000 NA
ATOM     18  H   UNL     1      -0.053   2.439  18.505  0.00  0.00    +0.000 HD
ENDBRANCH  12  13
ENDBRANCH   4   7
BRANCH   1  19
ATOM     19  C   UNL     1       0.407   9.862  20.827  0.00  0.00    +0.000 C 
BRANCH  19  25
ATOM     20  C   UNL     1      -0.781  11.406  19.168  0.00  0.00    +0.000 A 
ATOM     21  N   UNL     1      -0.642  12.620  18.688  0.00  0.00    +0.000 NA
ATOM     22  N   UNL     1       0.408  13.139  19.393  0.00  0.00    +0.000 N 
ATOM     23  C   UNL     1       0.890  12.202  20.298  0.00  0.00    +0.000 A 
ATOM     24  O   UNL     1       1.855  12.325  21.039  0.00  0.00    +0.000 OA
ATOM     25  N   UNL     1       0.087  11.099  20.145  0.00  0.00    +0.000 N 
BRANCH  22  26
ATOM     26  C   UNL     1       0.940  14.480  19.228  0.00  0.00    +0.000 C 
ATOM     27  C   UNL     1       2.198  14.486  18.361  0.00  0.00    +0.000 C 
BRANCH  26  28
ATOM     28  C   UNL     1      -0.110  15.452  18.667  0.00  0.00    +0.000 C 
ATOM     29  C   UNL     1      -0.237  16.746  19.462  0.00  0.00    +0.000 C 
ENDBRANCH  26  28
ENDBRANCH  22  26
BRANCH  20  30
ATOM     30  C   UNL     1      -1.841  10.469  18.622  0.00  0.00    +0.000 C 
BRANCH  30  31
ATOM     31  C   UNL     1      -1.709  10.144  17.131  0.00  0.00    +0.000 C 
BRANCH  31  33
ATOM     32  C   UNL     1      -2.965  10.095  14.932  0.00  0.00    +0.000 C 
ATOM     33  C   UNL     1      -2.732  10.850  16.236  0.00  0.00    +0.000 C 
ENDBRANCH  31  33
ENDBRANCH  30  31
ENDBRANCH  20  30
ENDBRANCH  19  25
ENDBRANCH   1  19
TORSDOF 9
ENDMDL
MODEL 3
REMARK VINA RESULT:      -8.3      2.558      3.486
REMARK  Name = 
REMARK  12 active torsions:
REMARK  status: ('A' for Active; 'I' for Inactive)
REMARK    1  A    between atoms: C_1  and  C_2
REMARK    2  A    between atoms: C_2  and  C_3
REMARK    3  A    between atoms: C_3  and  C_4
REMARK    4  A    between atoms: C_4  and  C_5
REMARK    5  A    between atoms: N_7  and  C_8
REMARK    6  A    between atoms: C_8  and  C_9
REMARK    7  A    between atoms: C_8  and  C_10
REMARK    8  A    between atoms: C_10  and  C_11
REMARK    9  A    between atoms: N_14  and  C_15
REMARK   10  A    between atoms: C_15  and  C_16
REMARK   11  A    between atoms: C_19  and  C_20
REMARK   12  A    between atoms: C_25  and  C_26
REMARK                            x       y       z     vdW  Elec       q    Type
REMARK                         _______ _______ _______ _____ _____    ______ ____
ROOT
ATOM      1  C   UNL     1       1.084   8.925  19.725  0.00  0.00    +0.000 A 
ATOM      2  C   UNL     1       1.645   7.829  20.379  0.00  0.00    +0.000 A 
ATOM      3  C   UNL     1       2.525   6.969  19.709  0.00  0.00    +0.000 A 
ATOM      4  C   UNL     1       2.924   7.193  18.377  0.00  0.00    +0.000 A 
ATOM      5  C   UNL     1       2.389   8.339  17.757  0.00  0.00    +0.000 A 
ATOM      6  C   UNL     1       1.487   9.186  18.408  0.00  0.00    +0.000 A 
ENDROOT
BRANCH   4   7
ATOM      7  C   UNL     1       3.790   6.236  17.620  0.00  0.00    +0.000 A 
ATOM      8  C   UNL     1       4.930   6.761  16.950  0.00  0.00    +0.000 A 
ATOM      9  C   UNL     1       5.767   5.984  16.145  0.00  0.00    +0.000 A 
ATOM     10  C   UNL     1       5.477   4.646  15.949  0.00  0.00    +0.000 A 
ATOM     11  C   UNL     1       4.382   4.086  16.602  0.00  0.00    +0.000 A 
ATOM     12  C   UNL     1       3.551   4.845  17.465  0.00  0.00    +0.000 A 
BRANCH  12  13
ATOM     13  C   UNL     1       2.529   4.093  18.196  0.00  0.00    +0.000 A 
ATOM     14  N   UNL     1       2.733   3.509  19.425  0.00  0.00    +0.000 NA
ATOM     15  N   UNL     1       1.621   2.862  19.741  0.00  0.00    +0.000 NA
ATOM     16  N   UNL     1       0.826   3.030  18.683  0.00  0.00    +0.000 N 
ATOM     17  N   UNL     1       1.307   3.805  17.702  0.00  0.00    +0.000 NA
ATOM     18  H   UNL     1      -0.080   2.578  18.619  0.00  0.00    +0.000 HD
ENDBRANCH  12  13
ENDBRANCH   4   7
BRANCH   1  19
ATOM     19  C   UNL     1       0.018   9.757  20.390  0.00  0.00    +0.000 C 
BRANCH  19  25
ATOM     20  C   UNL     1      -0.805  11.469  18.676  0.00  0.00    +0.000 A 
ATOM     21  N   UNL     1      -0.601  12.731  18.376  0.00  0.00    +0.000 NA
ATOM     22  N   UNL     1       0.238  13.175  19.360  0.00  0.00    +0.000 N 
ATOM     23  C   UNL     1       0.530  12.146  20.245  0.00  0.00    +0.000 A 
ATOM     24  O   UNL     1       1.290  12.192  21.201  0.00  0.00    +0.000 OA
ATOM     25  N   UNL     1      -0.177  11.060  19.790  0.00  0.00    +0.000 N 
BRANCH  22  26
ATOM     26  C   UNL     1       0.747  14.531  19.469  0.00  0.00    +0.000 C 
ATOM     27  C   UNL     1       1.948  14.761  18.553  0.00  0.00    +0.000 C 
BRANCH  26  28
ATOM     28  C   UNL     1      -0.345  15.580  19.207  0.00  0.00    +0.000 C 
ATOM     29  C   UNL     1       0.127  16.763  18.369  0.00  0.00    +0.000 C 
ENDBRANCH  26  28
ENDBRANCH  22  26
BRANCH  20  30
ATOM     30  C   UNL     1      -1.675  10.591  17.798  0.00  0.00    +0.000 C 
BRANCH  30  31
ATOM     31  C   UNL     1      -3.164  10.951  17.796  0.00  0.00    +0.000 C 
BRANCH  31  33
ATOM     32  C   UNL     1      -2.857  10.533  15.317  0.00  0.00    +0.000 C 
ATOM     33  C   UNL     1      -3.783  11.074  16.400  0.00  0.00    +0.000 C 
ENDBRANCH  31  33
ENDBRANCH  30  31
ENDBRANCH  20  30
ENDBRANCH  19  25
ENDBRANCH   1  19
TORSDOF 9
ENDMDL
MODEL 4
REMARK VINA RESULT:      -8.2      0.594      1.226
REMARK  Name = 
REMARK  12 active torsions:
REMARK  status: ('A' for Active; 'I' for Inactive)
REMARK    1  A    between atoms: C_1  and  C_2
REMARK    2  A    between atoms: C_2  and  C_3
REMARK    3  A    between atoms: C_3  and  C_4
REMARK    4  A    between atoms: C_4  and  C_5
REMARK    5  A    between atoms: N_7  and  C_8
REMARK    6  A    between atoms: C_8  and  C_9
REMARK    7  A    between atoms: C_8  and  C_10
REMARK    8  A    between atoms: C_10  and  C_11
REMARK    9  A    between atoms: N_14  and  C_15
REMARK   10  A    between atoms: C_15  and  C_16
REMARK   11  A    between atoms: C_19  and  C_20
REMARK   12  A    between atoms: C_25  and  C_26
REMARK                            x       y       z     vdW  Elec       q    Type
REMARK                         _______ _______ _______ _____ _____    ______ ____
ROOT
ATOM      1  C   UNL     1       1.848   8.885  18.777  0.00  0.00    +0.000 A 
ATOM      2  C   UNL     1       2.149   8.210  17.595  0.00  0.00    +0.000 A 
ATOM      3  C   UNL     1       2.476   6.848  17.612  0.00  0.00    +0.000 A 
ATOM      4  C   UNL     1       2.466   6.088  18.798  0.00  0.00    +0.000 A 
ATOM      5  C   UNL     1       2.102   6.779  19.970  0.00  0.00    +0.000 A 
ATOM      6  C   UNL     1       1.803   8.145  19.967  0.00  0.00    +0.000 A 
ENDROOT
BRANCH   4   7
ATOM      7  C   UNL     1       2.901   4.657  18.845  0.00  0.00    +0.000 A 
ATOM      8  C   UNL     1       1.889   3.657  18.852  0.00  0.00    +0.000 A 
ATOM      9  C   UNL     1       2.165   2.293  18.978  0.00  0.00    +0.000 A 
ATOM     10  C   UNL     1       3.473   1.873  19.135  0.00  0.00    +0.000 A 
ATOM     11  C   UNL     1       4.497   2.816  19.114  0.00  0.00    +0.000 A 
ATOM     12  C   UNL     1       4.242   4.200  18.936  0.00  0.00    +0.000 A 
BRANCH  12  13
ATOM     13  C   UNL     1       5.421   5.055  18.786  0.00  0.00    +0.000 A 
ATOM     14  N   UNL     1       5.739   5.736  17.633  0.00  0.00    +0.000 NA
ATOM     15  N   UNL     1       6.898   6.341  17.843  0.00  0.00    +0.000 NA
ATOM     16  N   UNL     1       7.255   5.961  19.072  0.00  0.00    +0.000 N 
ATOM     17  N   UNL     1       6.378   5.190  19.728  0.00  0.00    +0.000 NA
ATOM     18  H   UNL     1       8.149   6.224  19.473  0.00  0.00    +0.000 HD
ENDBRANCH  12  13
ENDBRANCH   4   7
BRANCH   1  19
ATOM     19  C   UNL     1       1.651  10.379  18.784  0.00  0.00    +0.000 C 
BRANCH  19  25
ATOM     20  C   UNL     1      -0.847  10.875  19.022  0.00  0.00    +0.000 A 
ATOM     21  N   UNL     1      -1.646  11.508  19.850  0.00  0.00    +0.000 NA
ATOM     22  N   UNL     1      -0.823  11.905  20.867  0.00  0.00    +0.000 N 
ATOM     23  C   UNL     1       0.481  11.497  20.619  0.00  0.00    +0.000 A 
ATOM     24  O   UNL     1       1.469  11.737  21.299  0.00  0.00    +0.000 OA
ATOM     25  N   UNL     1       0.430  10.813  19.429  0.00  0.00    +0.000 N 
BRANCH  22  26
ATOM     26  C   UNL     1      -1.250  12.642  22.043  0.00  0.00    +0.000 C 
ATOM     27  C   UNL     1      -2.106  13.853  21.673  0.00  0.00    +0.000 C 
BRANCH  26  28
ATOM     28  C   UNL     1      -1.986  11.745  23.051  0.00  0.00    +0.000 C 
ATOM     29  C   UNL     1      -3.307  12.326  23.541  0.00  0.00    +0.000 C 
ENDBRANCH  26  28
ENDBRANCH  22  26
BRANCH  20  30
ATOM     30  C   UNL     1      -1.374  10.292  17.725  0.00  0.00    +0.000 C 
BRANCH  30  31
ATOM     31  C   UNL     1      -2.849   9.878  17.754  0.00  0.00    +0.000 C 
BRANCH  31  33
ATOM     32  C   UNL     1      -2.826  10.553  15.314  0.00  0.00    +0.000 C 
ATOM     33  C   UNL     1      -3.674  10.392  16.570  0.00  0.00    +0.000 C 
ENDBRANCH  31  33
ENDBRANCH  30  31
ENDBRANCH  20  30
ENDBRANCH  19  25
ENDBRANCH   1  19
TORSDOF 9
ENDMDL
MODEL 5
REMARK VINA RESULT:      -8.2      2.656      9.224
REMARK  Name = 
REMARK  12 active torsions:
REMARK  status: ('A' for Active; 'I' for Inactive)
REMARK    1  A    between atoms: C_1  and  C_2
REMARK    2  A    between atoms: C_2  and  C_3
REMARK    3  A    between atoms: C_3  and  C_4
REMARK    4  A    between atoms: C_4  and  C_5
REMARK    5  A    between atoms: N_7  and  C_8
REMARK    6  A    between atoms: C_8  and  C_9
REMARK    7  A    between atoms: C_8  and  C_10
REMARK    8  A    between atoms: C_10  and  C_11
REMARK    9  A    between atoms: N_14  and  C_15
REMARK   10  A    between atoms: C_15  and  C_16
REMARK   11  A    between atoms: C_19  and  C_20
REMARK   12  A    between atoms: C_25  and  C_26
REMARK                            x       y       z     vdW  Elec       q    Type
REMARK                         _______ _______ _______ _____ _____    ______ ____
ROOT
ATOM      1  C   UNL     1       2.216   7.467  19.413  0.00  0.00    +0.000 A 
ATOM      2  C   UNL     1       1.512   8.125  20.421  0.00  0.00    +0.000 A 
ATOM      3  C   UNL     1       1.053   9.435  20.236  0.00  0.00    +0.000 A 
ATOM      4  C   UNL     1       1.229  10.127  19.022  0.00  0.00    +0.000 A 
ATOM      5  C   UNL     1       1.892   9.421  18.000  0.00  0.00    +0.000 A 
ATOM      6  C   UNL     1       2.379   8.124  18.185  0.00  0.00    +0.000 A 
ENDROOT
BRANCH   4   7
ATOM      7  C   UNL     1       0.826  11.557  18.840  0.00  0.00    +0.000 A 
ATOM      8  C   UNL     1       1.807  12.558  19.086  0.00  0.00    +0.000 A 
ATOM      9  C   UNL     1       1.530  13.926  19.031  0.00  0.00    +0.000 A 
ATOM     10  C   UNL     1       0.243  14.352  18.756  0.00  0.00    +0.000 A 
ATOM     11  C   UNL     1      -0.743  13.406  18.489  0.00  0.00    +0.000 A 
ATOM     12  C   UNL     1      -0.471  12.015  18.489  0.00  0.00    +0.000 A 
BRANCH  12  13
ATOM     13  C   UNL     1      -1.565  11.148  18.047  0.00  0.00    +0.000 A 
ATOM     14  N   UNL     1      -2.865  11.262  18.486  0.00  0.00    +0.000 NA
ATOM     15  N   UNL     1      -3.553  10.275  17.932  0.00  0.00    +0.000 NA
ATOM     16  N   UNL     1      -2.646   9.584  17.239  0.00  0.00    +0.000 N 
ATOM     17  N   UNL     1      -1.401  10.080  17.239  0.00  0.00    +0.000 NA
ATOM     18  H   UNL     1      -2.883   8.721  16.761  0.00  0.00    +0.000 HD
ENDBRANCH  12  13
ENDBRANCH   4   7
BRANCH   1  19
ATOM     19  C   UNL     1       2.846   6.121  19.664  0.00  0.00    +0.000 C 
BRANCH  19  25
ATOM     20  C   UNL     1       2.926   4.523  17.668  0.00  0.00    +0.000 A 
ATOM     21  N   UNL     1       3.804   4.093  16.792  0.00  0.00    +0.000 NA
ATOM     22  N   UNL     1       4.929   4.822  17.063  0.00  0.00    +0.000 N 
ATOM     23  C   UNL     1       4.697   5.689  18.123  0.00  0.00    +0.000 A 
ATOM     24  O   UNL     1       5.507   6.437  18.651  0.00  0.00    +0.000 OA
ATOM     25  N   UNL     1       3.386   5.489  18.479  0.00  0.00    +0.000 N 
BRANCH  22  26
ATOM     26  C   UNL     1       6.184   4.712  16.343  0.00  0.00    +0.000 C 
ATOM     27  C   UNL     1       7.364   4.502  17.291  0.00  0.00    +0.000 C 
BRANCH  26  28
ATOM     28  C   UNL     1       6.143   3.607  15.276  0.00  0.00    +0.000 C 
ATOM     29  C   UNL     1       5.947   4.128  13.857  0.00  0.00    +0.000 C 
ENDBRANCH  26  28
ENDBRANCH  22  26
BRANCH  20  30
ATOM     30  C   UNL     1       1.529   3.936  17.722  0.00  0.00    +0.000 C 
BRANCH  30  31
ATOM     31  C   UNL     1       1.358   2.763  18.692  0.00  0.00    +0.000 C 
BRANCH  31  33
ATOM     32  C   UNL     1       1.810   2.910  21.179  0.00  0.00    +0.000 C 
ATOM     33  C   UNL     1       0.798   3.152  20.064  0.00  0.00    +0.000 C 
ENDBRANCH  31  33
ENDBRANCH  30  31
ENDBRANCH  20  30
ENDBRANCH  19  25
ENDBRANCH   1  19
TORSDOF 9
ENDMDL
MODEL 6
REMARK VINA RESULT:      -8.2      2.710      8.959
REMARK  Name = 
REMARK  12 active torsions:
REMARK  status: ('A' for Active; 'I' for Inactive)
REMARK    1  A    between atoms: C_1  and  C_2
REMARK    2  A    between atoms: C_2  and  C_3
REMARK    3  A    between atoms: C_3  and  C_4
REMARK    4  A    between atoms: C_4  and  C_5
REMARK    5  A    between atoms: N_7  and  C_8
REMARK    6  A    between atoms: C_8  and  C_9
REMARK    7  A    between atoms: C_8  and  C_10
REMARK    8  A    between atoms: C_10  and  C_11
REMARK    9  A    between atoms: N_14  and  C_15
REMARK   10  A    between atoms: C_15  and  C_16
REMARK   11  A    between atoms: C_19  and  C_20
REMARK   12  A    between atoms: C_25  and  C_26
REMARK                            x       y       z     vdW  Elec       q    Type
REMARK                         _______ _______ _______ _____ _____    ______ ____
ROOT
ATOM      1  C   UNL     1       2.800   7.199  19.249  0.00  0.00    +0.000 A 
ATOM      2  C   UNL     1       2.644   7.868  18.035  0.00  0.00    +0.000 A 
ATOM      3  C   UNL     1       1.673   8.866  17.888  0.00  0.00    +0.000 A 
ATOM      4  C   UNL     1       0.852   9.279  18.955  0.00  0.00    +0.000 A 
ATOM      5  C   UNL     1       1.068   8.629  20.186  0.00  0.00    +0.000 A 
ATOM      6  C   UNL     1       2.014   7.610  20.335  0.00  0.00    +0.000 A 
ENDROOT
BRANCH   4   7
ATOM      7  C   UNL     1      -0.249  10.278  18.790  0.00  0.00    +0.000 A 
ATOM      8  C   UNL     1      -1.491   9.816  18.273  0.00  0.00    +0.000 A 
ATOM      9  C   UNL     1      -2.566  10.665  17.996  0.00  0.00    +0.000 A 
ATOM     10  C   UNL     1      -2.430  12.026  18.197  0.00  0.00    +0.000 A 
ATOM     11  C   UNL     1      -1.238  12.520  18.721  0.00  0.00    +0.000 A 
ATOM     12  C   UNL     1      -0.154  11.669  19.057  0.00  0.00    +0.000 A 
BRANCH  12  13
ATOM     13  C   UNL     1       0.977  12.308  19.734  0.00  0.00    +0.000 A 
ATOM     14  N   UNL     1       1.056  12.492  21.096  0.00  0.00    +0.000 NA
ATOM     15  N   UNL     1       2.175  13.160  21.336  0.00  0.00    +0.000 NA
ATOM     16  N   UNL     1       2.687  13.397  20.126  0.00  0.00    +0.000 N 
ATOM     17  N   UNL     1       2.017  12.875  19.090  0.00  0.00    +0.000 NA
ATOM     18  H   UNL     1       3.522  13.960  20.002  0.00  0.00    +0.000 HD
ENDBRANCH  12  13
ENDBRANCH   4   7
BRANCH   1  19
ATOM     19  C   UNL     1       3.730   6.020  19.366  0.00  0.00    +0.000 C 
BRANCH  19  25
ATOM     20  C   UNL     1       3.589   4.128  17.649  0.00  0.00    +0.000 A 
ATOM     21  N   UNL     1       4.170   3.780  16.524  0.00  0.00    +0.000 NA
ATOM     22  N   UNL     1       5.006   4.826  16.245  0.00  0.00    +0.000 N 
ATOM     23  C   UNL     1       4.910   5.796  17.234  0.00  0.00    +0.000 A 
ATOM     24  O   UNL     1       5.562   6.828  17.317  0.00  0.00    +0.000 OA
ATOM     25  N   UNL     1       3.969   5.327  18.117  0.00  0.00    +0.000 N 
BRANCH  22  26
ATOM     26  C   UNL     1       5.867   4.914  15.079  0.00  0.00    +0.000 C 
ATOM     27  C   UNL     1       7.339   4.731  15.446  0.00  0.00    +0.000 C 
BRANCH  26  28
ATOM     28  C   UNL     1       5.454   3.922  13.981  0.00  0.00    +0.000 C 
ATOM     29  C   UNL     1       6.445   3.835  12.826  0.00  0.00    +0.000 C 
ENDBRANCH  26  28
ENDBRANCH  22  26
BRANCH  20  30
ATOM     30  C   UNL     1       2.590   3.209  18.325  0.00  0.00    +0.000 C 
BRANCH  30  31
ATOM     31  C   UNL     1       1.230   3.845  18.629  0.00  0.00    +0.000 C 
BRANCH  31  33
ATOM     32  C   UNL     1       1.912   3.174  20.973  0.00  0.00    +0.000 C 
ATOM     33  C   UNL     1       0.853   3.856  20.114  0.00  0.00    +0.000 C 
ENDBRANCH  31  33
ENDBRANCH  30  31
ENDBRANCH  20  30
ENDBRANCH  19  25
ENDBRANCH   1  19
TORSDOF 9
ENDMDL
MODEL 7
REMARK VINA RESULT:      -8.1      1.046      1.204
REMARK  Name = 
REMARK  12 active torsions:
REMARK  status: ('A' for Active; 'I' for Inactive)
REMARK    1  A    between atoms: C_1  and  C_2
REMARK    2  A    between atoms: C_2  and  C_3
REMARK    3  A    between atoms: C_3  and  C_4
REMARK    4  A    between atoms: C_4  and  C_5
REMARK    5  A    between atoms: N_7  and  C_8
REMARK    6  A    between atoms: C_8  and  C_9
REMARK    7  A    between atoms: C_8  and  C_10
REMARK    8  A    between atoms: C_10  and  C_11
REMARK    9  A    between atoms: N_14  and  C_15
REMARK   10  A    between atoms: C_15  and  C_16
REMARK   11  A    between atoms: C_19  and  C_20
REMARK   12  A    between atoms: C_25  and  C_26
REMARK                            x       y       z     vdW  Elec       q    Type
REMARK                         _______ _______ _______ _____ _____    ______ ____
ROOT
ATOM      1  C   UNL     1       1.817   8.952  18.738  0.00  0.00    +0.000 A 
ATOM      2  C   UNL     1       1.603   8.579  20.064  0.00  0.00    +0.000 A 
ATOM      3  C   UNL     1       1.792   7.253  20.474  0.00  0.00    +0.000 A 
ATOM      4  C   UNL     1       2.252   6.254  19.595  0.00  0.00    +0.000 A 
ATOM      5  C   UNL     1       2.517   6.668  18.275  0.00  0.00    +0.000 A 
ATOM      6  C   UNL     1       2.303   7.982  17.849  0.00  0.00    +0.000 A 
ENDROOT
BRANCH   4   7
ATOM      7  C   UNL     1       2.372   4.817  19.994  0.00  0.00    +0.000 A 
ATOM      8  C   UNL     1       1.246   4.205  20.613  0.00  0.00    +0.000 A 
ATOM      9  C   UNL     1       1.263   2.897  21.104  0.00  0.00    +0.000 A 
ATOM     10  C   UNL     1       2.425   2.152  21.025  0.00  0.00    +0.000 A 
ATOM     11  C   UNL     1       3.545   2.705  20.408  0.00  0.00    +0.000 A 
ATOM     12  C   UNL     1       3.533   4.011  19.858  0.00  0.00    +0.000 A 
BRANCH  12  13
ATOM     13  C   UNL     1       4.732   4.404  19.112  0.00  0.00    +0.000 A 
ATOM     14  N   UNL     1       5.702   5.248  19.602  0.00  0.00    +0.000 NA
ATOM     15  N   UNL     1       6.588   5.429  18.634  0.00  0.00    +0.000 NA
ATOM     16  N   UNL     1       6.096   4.745  17.600  0.00  0.00    +0.000 N 
ATOM     17  N   UNL     1       4.966   4.061  17.829  0.00  0.00    +0.000 NA
ATOM     18  H   UNL     1       6.541   4.763  16.688  0.00  0.00    +0.000 HD
ENDBRANCH  12  13
ENDBRANCH   4   7
BRANCH   1  19
ATOM     19  C   UNL     1       1.464  10.336  18.259  0.00  0.00    +0.000 C 
BRANCH  19  25
ATOM     20  C   UNL     1      -1.050  10.770  18.467  0.00  0.00    +0.000 A 
ATOM     21  N   UNL     1      -1.856  11.554  19.145  0.00  0.00    +0.000 NA
ATOM     22  N   UNL     1      -1.026  12.224  20.000  0.00  0.00    +0.000 N 
ATOM     23  C   UNL     1       0.290  11.823  19.809  0.00  0.00    +0.000 A 
ATOM     24  O   UNL     1       1.282  12.264  20.370  0.00  0.00    +0.000 OA
ATOM     25  N   UNL     1       0.240  10.865  18.826  0.00  0.00    +0.000 N 
BRANCH  22  26
ATOM     26  C   UNL     1      -1.457  13.210  20.976  0.00  0.00    +0.000 C 
ATOM     27  C   UNL     1      -1.579  14.602  20.357  0.00  0.00    +0.000 C 
BRANCH  26  28
ATOM     28  C   UNL     1      -2.770  12.805  21.664  0.00  0.00    +0.000 C 
ATOM     29  C   UNL     1      -3.998  13.522  21.117  0.00  0.00    +0.000 C 
ENDBRANCH  26  28
ENDBRANCH  22  26
BRANCH  20  30
ATOM     30  C   UNL     1      -1.582   9.864  17.374  0.00  0.00    +0.000 C 
BRANCH  30  31
ATOM     31  C   UNL     1      -3.041  10.115  16.980  0.00  0.00    +0.000 C 
BRANCH  31  33
ATOM     32  C   UNL     1      -3.087  10.078  14.448  0.00  0.00    +0.000 C 
ATOM     33  C   UNL     1      -3.218  10.938  15.700  0.00  0.00    +0.000 C 
ENDBRANCH  31  33
ENDBRANCH  30  31
ENDBRANCH  20  30
ENDBRANCH  19  25
ENDBRANCH   1  19
TORSDOF 9
ENDMDL
MODEL 8
REMARK VINA RESULT:      -8.1      1.053      1.309
REMARK  Name = 
REMARK  12 active torsions:
REMARK  status: ('A' for Active; 'I' for Inactive)
REMARK    1  A    between atoms: C_1  and  C_2
REMARK    2  A    between atoms: C_2  and  C_3
REMARK    3  A    between atoms: C_3  and  C_4
REMARK    4  A    between atoms: C_4  and  C_5
REMARK    5  A    between atoms: N_7  and  C_8
REMARK    6  A    between atoms: C_8  and  C_9
REMARK    7  A    between atoms: C_8  and  C_10
REMARK    8  A    between atoms: C_10  and  C_11
REMARK    9  A    between atoms: N_14  and  C_15
REMARK   10  A    between atoms: C_15  and  C_16
REMARK   11  A    between atoms: C_19  and  C_20
REMARK   12  A    between atoms: C_25  and  C_26
REMARK                            x       y       z     vdW  Elec       q    Type
REMARK                         _______ _______ _______ _____ _____    ______ ____
ROOT
ATOM      1  C   UNL     1       1.755   8.994  18.852  0.00  0.00    +0.000 A 
ATOM      2  C   UNL     1       1.592   8.595  20.178  0.00  0.00    +0.000 A 
ATOM      3  C   UNL     1       1.790   7.260  20.553  0.00  0.00    +0.000 A 
ATOM      4  C   UNL     1       2.208   6.276  19.636  0.00  0.00    +0.000 A 
ATOM      5  C   UNL     1       2.422   6.716  18.315  0.00  0.00    +0.000 A 
ATOM      6  C   UNL     1       2.198   8.040  17.925  0.00  0.00    +0.000 A 
ENDROOT
BRANCH   4   7
ATOM      7  C   UNL     1       2.335   4.831  20.001  0.00  0.00    +0.000 A 
ATOM      8  C   UNL     1       1.205   4.193  20.584  0.00  0.00    +0.000 A 
ATOM      9  C   UNL     1       1.226   2.873  21.042  0.00  0.00    +0.000 A 
ATOM     10  C   UNL     1       2.398   2.142  20.965  0.00  0.00    +0.000 A 
ATOM     11  C   UNL     1       3.522   2.721  20.383  0.00  0.00    +0.000 A 
ATOM     12  C   UNL     1       3.507   4.041  19.865  0.00  0.00    +0.000 A 
BRANCH  12  13
ATOM     13  C   UNL     1       4.714   4.464  19.152  0.00  0.00    +0.000 A 
ATOM     14  N   UNL     1       4.916   4.283  17.803  0.00  0.00    +0.000 NA
ATOM     15  N   UNL     1       6.135   4.721  17.527  0.00  0.00    +0.000 NA
ATOM     16  N   UNL     1       6.633   5.087  18.710  0.00  0.00    +0.000 N 
ATOM     17  N   UNL     1       5.802   4.985  19.756  0.00  0.00    +0.000 NA
ATOM     18  H   UNL     1       7.592   5.403  18.810  0.00  0.00    +0.000 HD
ENDBRANCH  12  13
ENDBRANCH   4   7
BRANCH   1  19
ATOM     19  C   UNL     1       1.390  10.389  18.416  0.00  0.00    +0.000 C 
BRANCH  19  25
ATOM     20  C   UNL     1      -1.134  10.781  18.560  0.00  0.00    +0.000 A 
ATOM     21  N   UNL     1      -1.973  11.522  19.246  0.00  0.00    +0.000 NA
ATOM     22  N   UNL     1      -1.181  12.161  20.160  0.00  0.00    +0.000 N 
ATOM     23  C   UNL     1       0.145  11.785  19.994  0.00  0.00    +0.000 A 
ATOM     24  O   UNL     1       1.112  12.213  20.608  0.00  0.00    +0.000 OA
ATOM     25  N   UNL     1       0.142  10.875  18.966  0.00  0.00    +0.000 N 
BRANCH  22  26
ATOM     26  C   UNL     1      -1.658  13.094  21.165  0.00  0.00    +0.000 C 
ATOM     27  C   UNL     1      -2.922  13.821  20.708  0.00  0.00    +0.000 C 
BRANCH  26  28
ATOM     28  C   UNL     1      -1.886  12.412  22.524  0.00  0.00    +0.000 C 
ATOM     29  C   UNL     1      -2.218  13.382  23.651  0.00  0.00    +0.000 C 
ENDBRANCH  26  28
ENDBRANCH  22  26
BRANCH  20  30
ATOM     30  C   UNL     1      -1.618   9.921  17.408  0.00  0.00    +0.000 C 
BRANCH  30  31
ATOM     31  C   UNL     1      -3.140   9.814  17.276  0.00  0.00    +0.000 C 
BRANCH  31  33
ATOM     32  C   UNL     1      -4.786  11.691  16.851  0.00  0.00    +0.000 C 
ATOM     33  C   UNL     1      -3.752  10.756  16.234  0.00  0.00    +0.000 C 
ENDBRANCH  31  33
ENDBRANCH  30  31
ENDBRANCH  20  30
ENDBRANCH  19  25
ENDBRANCH   1  19
TORSDOF 9
ENDMDL
MODEL 9
REMARK VINA RESULT:      -8.1      2.359      3.419
REMARK  Name = 
REMARK  12 active torsions:
REMARK  status: ('A' for Active; 'I' for Inactive)
REMARK    1  A    between atoms: C_1  and  C_2
REMARK    2  A    between atoms: C_2  and  C_3
REMARK    3  A    between atoms: C_3  and  C_4
REMARK    4  A    between atoms: C_4  and  C_5
REMARK    5  A    between atoms: N_7  and  C_8
REMARK    6  A    between atoms: C_8  and  C_9
REMARK    7  A    between atoms: C_8  and  C_10
REMARK    8  A    between atoms: C_10  and  C_11
REMARK    9  A    between atoms: N_14  and  C_15
REMARK   10  A    between atoms: C_15  and  C_16
REMARK   11  A    between atoms: C_19  and  C_20
REMARK   12  A    between atoms: C_25  and  C_26
REMARK                            x       y       z     vdW  Elec       q    Type
REMARK                         _______ _______ _______ _____ _____    ______ ____
ROOT
ATOM      1  C   UNL     1       1.182   8.744  19.792  0.00  0.00    +0.000 A 
ATOM      2  C   UNL     1       1.727   7.613  20.399  0.00  0.00    +0.000 A 
ATOM      3  C   UNL     1       2.599   6.774  19.695  0.00  0.00    +0.000 A 
ATOM      4  C   UNL     1       3.008   7.051  18.376  0.00  0.00    +0.000 A 
ATOM      5  C   UNL     1       2.489   8.230  17.805  0.00  0.00    +0.000 A 
ATOM      6  C   UNL     1       1.594   9.058  18.490  0.00  0.00    +0.000 A 
ENDROOT
BRANCH   4   7
ATOM      7  C   UNL     1       3.865   6.118  17.581  0.00  0.00    +0.000 A 
ATOM      8  C   UNL     1       4.991   6.665  16.905  0.00  0.00    +0.000 A 
ATOM      9  C   UNL     1       5.817   5.913  16.067  0.00  0.00    +0.000 A 
ATOM     10  C   UNL     1       5.531   4.579  15.843  0.00  0.00    +0.000 A 
ATOM     11  C   UNL     1       4.450   3.997  16.501  0.00  0.00    +0.000 A 
ATOM     12  C   UNL     1       3.630   4.730  17.396  0.00  0.00    +0.000 A 
BRANCH  12  13
ATOM     13  C   UNL     1       2.624   3.954  18.125  0.00  0.00    +0.000 A 
ATOM     14  N   UNL     1       2.892   3.214  19.255  0.00  0.00    +0.000 NA
ATOM     15  N   UNL     1       1.769   2.599  19.594  0.00  0.00    +0.000 NA
ATOM     16  N   UNL     1       0.900   2.940  18.640  0.00  0.00    +0.000 N 
ATOM     17  N   UNL     1       1.349   3.800  17.715  0.00  0.00    +0.000 NA
ATOM     18  H   UNL     1      -0.037   2.552  18.608  0.00  0.00    +0.000 HD
ENDBRANCH  12  13
ENDBRANCH   4   7
BRANCH   1  19
ATOM     19  C   UNL     1       0.124   9.560  20.490  0.00  0.00    +0.000 C 
BRANCH  19  25
ATOM     20  C   UNL     1      -0.848  11.155  18.741  0.00  0.00    +0.000 A 
ATOM     21  N   UNL     1      -0.729  12.415  18.391  0.00  0.00    +0.000 NA
ATOM     22  N   UNL     1       0.108  12.945  19.335  0.00  0.00    +0.000 N 
ATOM     23  C   UNL     1       0.485  11.968  20.247  0.00  0.00    +0.000 A 
ATOM     24  O   UNL     1       1.267  12.094  21.178  0.00  0.00    +0.000 OA
ATOM     25  N   UNL     1      -0.166  10.826  19.850  0.00  0.00    +0.000 N 
BRANCH  22  26
ATOM     26  C   UNL     1       0.536  14.331  19.382  0.00  0.00    +0.000 C 
ATOM     27  C   UNL     1      -0.003  15.048  20.619  0.00  0.00    +0.000 C 
BRANCH  26  28
ATOM     28  C   UNL     1       2.065  14.466  19.301  0.00  0.00    +0.000 C 
ATOM     29  C   UNL     1       2.671  13.849  18.046  0.00  0.00    +0.000 C 
ENDBRANCH  26  28
ENDBRANCH  22  26
BRANCH  20  30
ATOM     30  C   UNL     1      -1.686  10.195  17.920  0.00  0.00    +0.000 C 
BRANCH  30  31
ATOM     31  C   UNL     1      -2.926  10.815  17.267  0.00  0.00    +0.000 C 
BRANCH  31  33
ATOM     32  C   UNL     1      -3.336   9.987  14.910  0.00  0.00    +0.000 C 
ATOM     33  C   UNL     1      -2.772  11.111  15.772  0.00  0.00    +0.000 C 
ENDBRANCH  31  33
ENDBRANCH  30  31
ENDBRANCH  20  30
ENDBRANCH  19  25
ENDBRANCH   1  19
TORSDOF 9
ENDMDL
