MODEL 1
REMARK VINA RESULT:      -7.6      0.000      0.000
REMARK  Name = 
REMARK  8 active torsions:
REMARK  status: ('A' for Active; 'I' for Inactive)
REMARK    1  A    between atoms: C_2  and  C_3
REMARK    2  A    between atoms: C_3  and  O_4
REMARK    3  A    between atoms: O_4  and  C_5
REMARK    4  A    between atoms: C_5  and  C_7
REMARK    5  A    between atoms: N_16  and  C_17
REMARK    6  A    between atoms: C_17  and  C_18
REMARK    7  A    between atoms: C_18  and  S_19
REMARK    8  A    between atoms: S_19  and  C_20
REMARK                            x       y       z     vdW  Elec       q    Type
REMARK                         _______ _______ _______ _____ _____    ______ ____
ROOT
ATOM      1  O   UNL     1       4.700   3.346  18.053  0.00  0.00    +0.000 OA
ATOM      2  C   UNL     1       5.040   3.905  19.092  0.00  0.00    +0.000 C 
ATOM      3  N   UNL     1       4.708   3.434  20.346  0.00  0.00    +0.000 N 
ATOM      4  H   UNL     1       5.049   3.936  21.157  0.00  0.00    +0.000 HD
ENDROOT
BRANCH   2   5
ATOM      5  C   UNL     1       5.947   5.138  19.101  0.00  0.00    +0.000 C 
BRANCH   5   6
ATOM      6  O   UNL     1       6.958   5.111  18.094  0.00  0.00    +0.000 OA
BRANCH   6   7
ATOM      7  C   UNL     1       6.822   6.054  17.119  0.00  0.00    +0.000 C 
ATOM      8  O   UNL     1       6.898   7.263  17.285  0.00  0.00    +0.000 OA
BRANCH   7   9
ATOM      9  C   UNL     1       6.600   5.412  15.849  0.00  0.00    +0.000 A 
ATOM     10  C   UNL     1       5.535   4.656  15.393  0.00  0.00    +0.000 A 
ATOM     11  C   UNL     1       5.808   4.250  14.059  0.00  0.00    +0.000 A 
ATOM     12  C   UNL     1       5.105   3.487  13.108  0.00  0.00    +0.000 A 
ATOM     13  C   UNL     1       5.678   3.265  11.853  0.00  0.00    +0.000 A 
ATOM     14  C   UNL     1       6.931   3.788  11.541  0.00  0.00    +0.000 A 
ATOM     15  C   UNL     1       7.646   4.553  12.469  0.00  0.00    +0.000 A 
ATOM     16  C   UNL     1       7.056   4.769  13.721  0.00  0.00    +0.000 A 
ATOM     17  N   UNL     1       7.508   5.476  14.812  0.00  0.00    +0.000 N 
ATOM     18  H   UNL     1       8.388   5.975  14.858  0.00  0.00    +0.000 HD
ENDBRANCH   7   9
ENDBRANCH   6   7
ENDBRANCH   5   6
ENDBRANCH   2   5
BRANCH   3  19
ATOM     19  C   UNL     1       3.814   2.303  20.537  0.00  0.00    +0.000 C 
BRANCH  19  20
ATOM     20  C   UNL     1       2.689   2.595  21.534  0.00  0.00    +0.000 C 
BRANCH  20  21
ATOM     21  S   UNL     1       1.135   2.933  20.626  0.00  0.00    +0.000 S 
BRANCH  21  22
ATOM     22  C   UNL     1       1.562   4.448  19.788  0.00  0.00    +0.000 A 
ATOM     23  C   UNL     1       1.897   5.577  20.545  0.00  0.00    +0.000 A 
ATOM     24  C   UNL     1       2.268   6.768  19.916  0.00  0.00    +0.000 A 
ATOM     25  C   UNL     1       2.317   6.831  18.526  0.00  0.00    +0.000 A 
ATOM     26 CL   UNL     1       2.772   8.297  17.750  0.00  0.00    +0.000 Cl
ATOM     27  C   UNL     1       2.005   5.709  17.761  0.00  0.00    +0.000 A 
ATOM     28  C   UNL     1       1.632   4.518  18.392  0.00  0.00    +0.000 A 
ENDBRANCH  21  22
ENDBRANCH  20  21
ENDBRANCH  19  20
ENDBRANCH   3  19
TORSDOF 8
ENDMDL
MODEL 2
REMARK VINA RESULT:      -7.6      1.177      1.576
REMARK  Name = 
REMARK  8 active torsions:
REMARK  status: ('A' for Active; 'I' for Inactive)
REMARK    1  A    between atoms: C_2  and  C_3
REMARK    2  A    between atoms: C_3  and  O_4
REMARK    3  A    between atoms: O_4  and  C_5
REMARK    4  A    between atoms: C_5  and  C_7
REMARK    5  A    between atoms: N_16  and  C_17
REMARK    6  A    between atoms: C_17  and  C_18
REMARK    7  A    between atoms: C_18  and  S_19
REMARK    8  A    between atoms: S_19  and  C_20
REMARK                            x       y       z     vdW  Elec       q    Type
REMARK                         _______ _______ _______ _____ _____    ______ ____
ROOT
ATOM      1  O   UNL     1       6.542   5.315  20.001  0.00  0.00    +0.000 OA
ATOM      2  C   UNL     1       6.648   4.543  19.053  0.00  0.00    +0.000 C 
ATOM      3  N   UNL     1       5.768   3.505  18.823  0.00  0.00    +0.000 N 
ATOM      4  H   UNL     1       5.907   2.927  18.002  0.00  0.00    +0.000 HD
ENDROOT
BRANCH   2   5
ATOM      5  C   UNL     1       7.720   4.713  17.973  0.00  0.00    +0.000 C 
BRANCH   5   6
ATOM      6  O   UNL     1       7.724   6.004  17.368  0.00  0.00    +0.000 OA
BRANCH   6   7
ATOM      7  C   UNL     1       6.554   6.358  16.764  0.00  0.00    +0.000 C 
ATOM      8  O   UNL     1       5.782   7.218  17.162  0.00  0.00    +0.000 OA
BRANCH   7   9
ATOM      9  C   UNL     1       6.372   5.582  15.565  0.00  0.00    +0.000 A 
ATOM     10  C   UNL     1       5.306   4.808  15.142  0.00  0.00    +0.000 A 
ATOM     11  C   UNL     1       5.628   4.246  13.878  0.00  0.00    +0.000 A 
ATOM     12  C   UNL     1       4.947   3.399  12.985  0.00  0.00    +0.000 A 
ATOM     13  C   UNL     1       5.571   3.020  11.792  0.00  0.00    +0.000 A 
ATOM     14  C   UNL     1       6.854   3.470  11.489  0.00  0.00    +0.000 A 
ATOM     15  C   UNL     1       7.549   4.316  12.360  0.00  0.00    +0.000 A 
ATOM     16  C   UNL     1       6.908   4.689  13.548  0.00  0.00    +0.000 A 
ATOM     17  N   UNL     1       7.330   5.503  14.574  0.00  0.00    +0.000 N 
ATOM     18  H   UNL     1       8.222   5.980  14.609  0.00  0.00    +0.000 HD
ENDBRANCH   7   9
ENDBRANCH   6   7
ENDBRANCH   5   6
ENDBRANCH   2   5
BRANCH   3  19
ATOM     19  C   UNL     1       4.714   3.160  19.764  0.00  0.00    +0.000 C 
BRANCH  19  20
ATOM     20  C   UNL     1       3.465   2.598  19.079  0.00  0.00    +0.000 C 
BRANCH  20  21
ATOM     21  S   UNL     1       1.966   3.281  19.878  0.00  0.00    +0.000 S 
BRANCH  21  22
ATOM     22  C   UNL     1       2.100   5.000  19.422  0.00  0.00    +0.000 A 
ATOM     23  C   UNL     1       2.309   5.336  18.079  0.00  0.00    +0.000 A 
ATOM     24  C   UNL     1       2.384   6.675  17.687  0.00  0.00    +0.000 A 
ATOM     25  C   UNL     1       2.239   7.684  18.636  0.00  0.00    +0.000 A 
ATOM     26 CL   UNL     1       2.333   9.332  18.155  0.00  0.00    +0.000 Cl
ATOM     27  C   UNL     1       2.012   7.363  19.973  0.00  0.00    +0.000 A 
ATOM     28  C   UNL     1       1.938   6.022  20.364  0.00  0.00    +0.000 A 
ENDBRANCH  21  22
ENDBRANCH  20  21
ENDBRANCH  19  20
ENDBRANCH   3  19
TORSDOF 8
ENDMDL
MODEL 3
REMARK VINA RESULT:      -7.5      5.927      8.304
REMARK  Name = 
REMARK  8 active torsions:
REMARK  status: ('A' for Active; 'I' for Inactive)
REMARK    1  A    between atoms: C_2  and  C_3
REMARK    2  A    between atoms: C_3  and  O_4
REMARK    3  A    between atoms: O_4  and  C_5
REMARK    4  A    between atoms: C_5  and  C_7
REMARK    5  A    between atoms: N_16  and  C_17
REMARK    6  A    between atoms: C_17  and  C_18
REMARK    7  A    between atoms: C_18  and  S_19
REMARK    8  A    between atoms: S_19  and  C_20
REMARK                            x       y       z     vdW  Elec       q    Type
REMARK                         _______ _______ _______ _____ _____    ______ ____
ROOT
ATOM      1  O   UNL     1       7.072   8.089  16.987  0.00  0.00    +0.000 OA
ATOM      2  C   UNL     1       7.712   7.613  17.919  0.00  0.00    +0.000 C 
ATOM      3  N   UNL     1       8.612   8.344  18.668  0.00  0.00    +0.000 N 
ATOM      4  H   UNL     1       9.082   7.887  19.440  0.00  0.00    +0.000 HD
ENDROOT
BRANCH   2   5
ATOM      5  C   UNL     1       7.507   6.176  18.405  0.00  0.00    +0.000 C 
BRANCH   5   6
ATOM      6  O   UNL     1       7.847   5.189  17.433  0.00  0.00    +0.000 OA
BRANCH   6   7
ATOM      7  C   UNL     1       7.003   5.122  16.365  0.00  0.00    +0.000 C 
ATOM      8  O   UNL     1       7.308   5.355  15.204  0.00  0.00    +0.000 OA
BRANCH   7   9
ATOM      9  C   UNL     1       5.695   4.708  16.803  0.00  0.00    +0.000 A 
ATOM     10  C   UNL     1       4.546   5.443  17.037  0.00  0.00    +0.000 A 
ATOM     11  C   UNL     1       3.521   4.555  17.459  0.00  0.00    +0.000 A 
ATOM     12  C   UNL     1       2.173   4.725  17.826  0.00  0.00    +0.000 A 
ATOM     13  C   UNL     1       1.422   3.609  18.206  0.00  0.00    +0.000 A 
ATOM     14  C   UNL     1       1.998   2.340  18.228  0.00  0.00    +0.000 A 
ATOM     15  C   UNL     1       3.336   2.147  17.864  0.00  0.00    +0.000 A 
ATOM     16  C   UNL     1       4.071   3.275  17.482  0.00  0.00    +0.000 A 
ATOM     17  N   UNL     1       5.380   3.391  17.070  0.00  0.00    +0.000 N 
ATOM     18  H   UNL     1       6.031   2.622  16.977  0.00  0.00    +0.000 HD
ENDBRANCH   7   9
ENDBRANCH   6   7
ENDBRANCH   5   6
ENDBRANCH   2   5
BRANCH   3  19
ATOM     19  C   UNL     1       8.973   9.712  18.327  0.00  0.00    +0.000 C 
BRANCH  19  20
ATOM     20  C   UNL     1       8.989  10.643  19.542  0.00  0.00    +0.000 C 
BRANCH  20  21
ATOM     21  S   UNL     1      10.715  11.110  19.935  0.00  0.00    +0.000 S 
BRANCH  21  22
ATOM     22  C   UNL     1      10.854  12.649  19.045  0.00  0.00    +0.000 A 
ATOM     23  C   UNL     1      11.048  12.620  17.658  0.00  0.00    +0.000 A 
ATOM     24  C   UNL     1      11.128  13.810  16.929  0.00  0.00    +0.000 A 
ATOM     25  C   UNL     1      11.002  15.033  17.583  0.00  0.00    +0.000 A 
ATOM     26 CL   UNL     1      11.100  16.498  16.688  0.00  0.00    +0.000 Cl
ATOM     27  C   UNL     1      10.790  15.074  18.960  0.00  0.00    +0.000 A 
ATOM     28  C   UNL     1      10.712  13.882  19.689  0.00  0.00    +0.000 A 
ENDBRANCH  21  22
ENDBRANCH  20  21
ENDBRANCH  19  20
ENDBRANCH   3  19
TORSDOF 8
ENDMDL
MODEL 4
REMARK VINA RESULT:      -7.3      3.555      4.995
REMARK  Name = 
REMARK  8 active torsions:
REMARK  status: ('A' for Active; 'I' for Inactive)
REMARK    1  A    between atoms: C_2  and  C_3
REMARK    2  A    between atoms: C_3  and  O_4
REMARK    3  A    between atoms: O_4  and  C_5
REMARK    4  A    between atoms: C_5  and  C_7
REMARK    5  A    between atoms: N_16  and  C_17
REMARK    6  A    between atoms: C_17  and  C_18
REMARK    7  A    between atoms: C_18  and  S_19
REMARK    8  A    between atoms: S_19  and  C_20
REMARK                            x       y       z     vdW  Elec       q    Type
REMARK                         _______ _______ _______ _____ _____    ______ ____
ROOT
ATOM      1  O   UNL     1       1.114   2.571  20.904  0.00  0.00    +0.000 OA
ATOM      2  C   UNL     1       1.277   3.183  19.853  0.00  0.00    +0.000 C 
ATOM      3  N   UNL     1       1.684   4.501  19.804  0.00  0.00    +0.000 N 
ATOM      4  H   UNL     1       1.824   4.930  18.896  0.00  0.00    +0.000 HD
ENDROOT
BRANCH   2   5
ATOM      5  C   UNL     1       1.133   2.515  18.483  0.00  0.00    +0.000 C 
BRANCH   5   6
ATOM      6  O   UNL     1       2.143   2.897  17.551  0.00  0.00    +0.000 OA
BRANCH   6   7
ATOM      7  C   UNL     1       3.398   2.462  17.856  0.00  0.00    +0.000 C 
ATOM      8  O   UNL     1       3.706   1.308  18.118  0.00  0.00    +0.000 OA
BRANCH   7   9
ATOM      9  C   UNL     1       4.322   3.565  17.800  0.00  0.00    +0.000 A 
ATOM     10  C   UNL     1       4.356   4.675  16.975  0.00  0.00    +0.000 A 
ATOM     11  C   UNL     1       5.480   5.468  17.328  0.00  0.00    +0.000 A 
ATOM     12  C   UNL     1       6.007   6.682  16.850  0.00  0.00    +0.000 A 
ATOM     13  C   UNL     1       7.166   7.201  17.435  0.00  0.00    +0.000 A 
ATOM     14  C   UNL     1       7.799   6.525  18.476  0.00  0.00    +0.000 A 
ATOM     15  C   UNL     1       7.291   5.318  18.971  0.00  0.00    +0.000 A 
ATOM     16  C   UNL     1       6.127   4.816  18.376  0.00  0.00    +0.000 A 
ATOM     17  N   UNL     1       5.403   3.678  18.651  0.00  0.00    +0.000 N 
ATOM     18  H   UNL     1       5.628   3.006  19.375  0.00  0.00    +0.000 HD
ENDBRANCH   7   9
ENDBRANCH   6   7
ENDBRANCH   5   6
ENDBRANCH   2   5
BRANCH   3  19
ATOM     19  C   UNL     1       1.827   5.313  21.002  0.00  0.00    +0.000 C 
BRANCH  19  20
ATOM     20  C   UNL     1       1.637   6.809  20.732  0.00  0.00    +0.000 C 
BRANCH  20  21
ATOM     21  S   UNL     1       2.198   7.204  19.035  0.00  0.00    +0.000 S 
BRANCH  21  22
ATOM     22  C   UNL     1       1.750   8.926  18.929  0.00  0.00    +0.000 A 
ATOM     23  C   UNL     1       0.903   9.473  19.901  0.00  0.00    +0.000 A 
ATOM     24  C   UNL     1       0.562  10.828  19.864  0.00  0.00    +0.000 A 
ATOM     25  C   UNL     1       1.075  11.643  18.858  0.00  0.00    +0.000 A 
ATOM     26 CL   UNL     1       0.655  13.310  18.809  0.00  0.00    +0.000 Cl
ATOM     27  C   UNL     1       1.934  11.116  17.896  0.00  0.00    +0.000 A 
ATOM     28  C   UNL     1       2.273   9.759  17.935  0.00  0.00    +0.000 A 
ENDBRANCH  21  22
ENDBRANCH  20  21
ENDBRANCH  19  20
ENDBRANCH   3  19
TORSDOF 8
ENDMDL
MODEL 5
REMARK VINA RESULT:      -7.2      6.465      9.088
REMARK  Name = 
REMARK  8 active torsions:
REMARK  status: ('A' for Active; 'I' for Inactive)
REMARK    1  A    between atoms: C_2  and  C_3
REMARK    2  A    between atoms: C_3  and  O_4
REMARK    3  A    between atoms: O_4  and  C_5
REMARK    4  A    between atoms: C_5  and  C_7
REMARK    5  A    between atoms: N_16  and  C_17
REMARK    6  A    between atoms: C_17  and  C_18
REMARK    7  A    between atoms: C_18  and  S_19
REMARK    8  A    between atoms: S_19  and  C_20
REMARK                            x       y       z     vdW  Elec       q    Type
REMARK                         _______ _______ _______ _____ _____    ______ ____
ROOT
ATOM      1  O   UNL     1       7.464   8.792  17.323  0.00  0.00    +0.000 OA
ATOM      2  C   UNL     1       8.194   8.353  18.206  0.00  0.00    +0.000 C 
ATOM      3  N   UNL     1       8.951   9.160  19.031  0.00  0.00    +0.000 N 
ATOM      4  H   UNL     1       9.508   8.723  19.756  0.00  0.00    +0.000 HD
ENDROOT
BRANCH   2   5
ATOM      5  C   UNL     1       8.266   6.861  18.544  0.00  0.00    +0.000 C 
BRANCH   5   6
ATOM      6  O   UNL     1       6.991   6.222  18.586  0.00  0.00    +0.000 OA
BRANCH   6   7
ATOM      7  C   UNL     1       6.922   5.036  17.918  0.00  0.00    +0.000 C 
ATOM      8  O   UNL     1       7.835   4.521  17.288  0.00  0.00    +0.000 OA
BRANCH   7   9
ATOM      9  C   UNL     1       5.613   4.459  18.084  0.00  0.00    +0.000 A 
ATOM     10  C   UNL     1       4.465   4.587  17.322  0.00  0.00    +0.000 A 
ATOM     11  C   UNL     1       3.437   3.810  17.920  0.00  0.00    +0.000 A 
ATOM     12  C   UNL     1       2.091   3.559  17.596  0.00  0.00    +0.000 A 
ATOM     13  C   UNL     1       1.333   2.725  18.423  0.00  0.00    +0.000 A 
ATOM     14  C   UNL     1       1.898   2.150  19.559  0.00  0.00    +0.000 A 
ATOM     15  C   UNL     1       3.236   2.382  19.899  0.00  0.00    +0.000 A 
ATOM     16  C   UNL     1       3.981   3.217  19.057  0.00  0.00    +0.000 A 
ATOM     17  N   UNL     1       5.297   3.613  19.128  0.00  0.00    +0.000 N 
ATOM     18  H   UNL     1       5.952   3.330  19.846  0.00  0.00    +0.000 HD
ENDBRANCH   7   9
ENDBRANCH   6   7
ENDBRANCH   5   6
ENDBRANCH   2   5
BRANCH   3  19
ATOM     19  C   UNL     1       9.047  10.598  18.832  0.00  0.00    +0.000 C 
BRANCH  19  20
ATOM     20  C   UNL     1      10.244  11.000  17.966  0.00  0.00    +0.000 C 
BRANCH  20  21
ATOM     21  S   UNL     1      11.560  11.705  19.026  0.00  0.00    +0.000 S 
BRANCH  21  22
ATOM     22  C   UNL     1      11.450  13.430  18.589  0.00  0.00    +0.000 A 
ATOM     23  C   UNL     1      11.458  13.794  17.237  0.00  0.00    +0.000 A 
ATOM     24  C   UNL     1      11.340  15.136  16.863  0.00  0.00    +0.000 A 
ATOM     25  C   UNL     1      11.203  16.118  17.841  0.00  0.00    +0.000 A 
ATOM     26 CL   UNL     1      11.059  17.768  17.383  0.00  0.00    +0.000 Cl
ATOM     27  C   UNL     1      11.175  15.767  19.190  0.00  0.00    +0.000 A 
ATOM     28  C   UNL     1      11.294  14.423  19.562  0.00  0.00    +0.000 A 
ENDBRANCH  21  22
ENDBRANCH  20  21
ENDBRANCH  19  20
ENDBRANCH   3  19
TORSDOF 8
ENDMDL
MODEL 6
REMARK VINA RESULT:      -7.2      4.268      5.803
REMARK  Name = 
REMARK  8 active torsions:
REMARK  status: ('A' for Active; 'I' for Inactive)
REMARK    1  A    between atoms: C_2  and  C_3
REMARK    2  A    between atoms: C_3  and  O_4
REMARK    3  A    between atoms: O_4  and  C_5
REMARK    4  A    between atoms: C_5  and  C_7
REMARK    5  A    between atoms: N_16  and  C_17
REMARK    6  A    between atoms: C_17  and  C_18
REMARK    7  A    between atoms: C_18  and  S_19
REMARK    8  A    between atoms: S_19  and  C_20
REMARK                            x       y       z     vdW  Elec       q    Type
REMARK                         _______ _______ _______ _____ _____    ______ ____
ROOT
ATOM      1  O   UNL     1       2.851   6.947  19.446  0.00  0.00    +0.000 OA
ATOM      2  C   UNL     1       2.058   6.521  20.280  0.00  0.00    +0.000 C 
ATOM      3  N   UNL     1       1.326   7.342  21.114  0.00  0.00    +0.000 N 
ATOM      4  H   UNL     1       0.671   6.916  21.759  0.00  0.00    +0.000 HD
ENDROOT
BRANCH   2   5
ATOM      5  C   UNL     1       1.734   5.032  20.417  0.00  0.00    +0.000 C 
BRANCH   5   6
ATOM      6  O   UNL     1       2.883   4.211  20.619  0.00  0.00    +0.000 OA
BRANCH   6   7
ATOM      7  C   UNL     1       3.023   3.190  19.728  0.00  0.00    +0.000 C 
ATOM      8  O   UNL     1       2.474   2.100  19.806  0.00  0.00    +0.000 OA
BRANCH   7   9
ATOM      9  C   UNL     1       3.898   3.593  18.658  0.00  0.00    +0.000 A 
ATOM     10  C   UNL     1       3.649   3.786  17.310  0.00  0.00    +0.000 A 
ATOM     11  C   UNL     1       4.857   4.185  16.680  0.00  0.00    +0.000 A 
ATOM     12  C   UNL     1       5.205   4.515  15.357  0.00  0.00    +0.000 A 
ATOM     13  C   UNL     1       6.525   4.870  15.065  0.00  0.00    +0.000 A 
ATOM     14  C   UNL     1       7.491   4.894  16.069  0.00  0.00    +0.000 A 
ATOM     15  C   UNL     1       7.168   4.573  17.392  0.00  0.00    +0.000 A 
ATOM     16  C   UNL     1       5.840   4.224  17.667  0.00  0.00    +0.000 A 
ATOM     17  N   UNL     1       5.235   3.876  18.853  0.00  0.00    +0.000 N 
ATOM     18  H   UNL     1       5.699   3.827  19.751  0.00  0.00    +0.000 HD
ENDBRANCH   7   9
ENDBRANCH   6   7
ENDBRANCH   5   6
ENDBRANCH   2   5
BRANCH   3  19
ATOM     19  C   UNL     1       1.533   8.781  21.161  0.00  0.00    +0.000 C 
BRANCH  19  20
ATOM     20  C   UNL     1       0.347   9.571  20.600  0.00  0.00    +0.000 C 
BRANCH  20  21
ATOM     21  S   UNL     1       0.604   9.878  18.813  0.00  0.00    +0.000 S 
BRANCH  21  22
ATOM     22  C   UNL     1      -1.008  10.477  18.344  0.00  0.00    +0.000 A 
ATOM     23  C   UNL     1      -1.640   9.930  17.221  0.00  0.00    +0.000 A 
ATOM     24  C   UNL     1      -2.918  10.356  16.848  0.00  0.00    +0.000 A 
ATOM     25  C   UNL     1      -3.573  11.325  17.605  0.00  0.00    +0.000 A 
ATOM     26 CL   UNL     1      -5.145  11.851  17.147  0.00  0.00    +0.000 Cl
ATOM     27  C   UNL     1      -2.963  11.863  18.736  0.00  0.00    +0.000 A 
ATOM     28  C   UNL     1      -1.683  11.436  19.106  0.00  0.00    +0.000 A 
ENDBRANCH  21  22
ENDBRANCH  20  21
ENDBRANCH  19  20
ENDBRANCH   3  19
TORSDOF 8
ENDMDL
MODEL 7
REMARK VINA RESULT:      -7.2      5.307      8.193
REMARK  Name = 
REMARK  8 active torsions:
REMARK  status: ('A' for Active; 'I' for Inactive)
REMARK    1  A    between atoms: C_2  and  C_3
REMARK    2  A    between atoms: C_3  and  O_4
REMARK    3  A    between atoms: O_4  and  C_5
REMARK    4  A    between atoms: C_5  and  C_7
REMARK    5  A    between atoms: N_16  and  C_17
REMARK    6  A    between atoms: C_17  and  C_18
REMARK    7  A    between atoms: C_18  and  S_19
REMARK    8  A    between atoms: S_19  and  C_20
REMARK                            x       y       z     vdW  Elec       q    Type
REMARK                         _______ _______ _______ _____ _____    ______ ____
ROOT
ATOM      1  O   UNL     1       7.610   5.893  18.791  0.00  0.00    +0.000 OA
ATOM      2  C   UNL     1       7.547   6.149  17.593  0.00  0.00    +0.000 C 
ATOM      3  N   UNL     1       7.572   7.436  17.094  0.00  0.00    +0.000 N 
ATOM      4  H   UNL     1       7.544   7.566  16.089  0.00  0.00    +0.000 HD
ENDROOT
BRANCH   2   5
ATOM      5  C   UNL     1       7.525   5.057  16.521  0.00  0.00    +0.000 C 
BRANCH   5   6
ATOM      6  O   UNL     1       6.270   4.387  16.412  0.00  0.00    +0.000 OA
BRANCH   6   7
ATOM      7  C   UNL     1       5.187   5.210  16.313  0.00  0.00    +0.000 C 
ATOM      8  O   UNL     1       5.090   6.169  15.561  0.00  0.00    +0.000 OA
BRANCH   7   9
ATOM      9  C   UNL     1       4.155   4.765  17.214  0.00  0.00    +0.000 A 
ATOM     10  C   UNL     1       3.209   3.764  17.082  0.00  0.00    +0.000 A 
ATOM     11  C   UNL     1       2.419   3.730  18.261  0.00  0.00    +0.000 A 
ATOM     12  C   UNL     1       1.337   2.938  18.688  0.00  0.00    +0.000 A 
ATOM     13  C   UNL     1       0.770   3.176  19.943  0.00  0.00    +0.000 A 
ATOM     14  C   UNL     1       1.263   4.188  20.765  0.00  0.00    +0.000 A 
ATOM     15  C   UNL     1       2.341   4.985  20.363  0.00  0.00    +0.000 A 
ATOM     16  C   UNL     1       2.900   4.729  19.105  0.00  0.00    +0.000 A 
ATOM     17  N   UNL     1       3.954   5.332  18.457  0.00  0.00    +0.000 N 
ATOM     18  H   UNL     1       4.510   6.090  18.830  0.00  0.00    +0.000 HD
ENDBRANCH   7   9
ENDBRANCH   6   7
ENDBRANCH   5   6
ENDBRANCH   2   5
BRANCH   3  19
ATOM     19  C   UNL     1       7.545   8.604  17.961  0.00  0.00    +0.000 C 
BRANCH  19  20
ATOM     20  C   UNL     1       8.639   9.621  17.624  0.00  0.00    +0.000 C 
BRANCH  20  21
ATOM     21  S   UNL     1       9.174  10.477  19.151  0.00  0.00    +0.000 S 
BRANCH  21  22
ATOM     22  C   UNL     1       9.812  11.998  18.473  0.00  0.00    +0.000 A 
ATOM     23  C   UNL     1       9.393  13.218  19.020  0.00  0.00    +0.000 A 
ATOM     24  C   UNL     1       9.901  14.425  18.532  0.00  0.00    +0.000 A 
ATOM     25  C   UNL     1      10.839  14.416  17.502  0.00  0.00    +0.000 A 
ATOM     26 CL   UNL     1      11.464  15.900  16.900  0.00  0.00    +0.000 Cl
ATOM     27  C   UNL     1      11.277  13.208  16.962  0.00  0.00    +0.000 A 
ATOM     28  C   UNL     1      10.766  12.001  17.451  0.00  0.00    +0.000 A 
ENDBRANCH  21  22
ENDBRANCH  20  21
ENDBRANCH  19  20
ENDBRANCH   3  19
TORSDOF 8
ENDMDL
MODEL 8
REMARK VINA RESULT:      -7.1      4.350      6.419
REMARK  Name = 
REMARK  8 active torsions:
REMARK  status: ('A' for Active; 'I' for Inactive)
REMARK    1  A    between atoms: C_2  and  C_3
REMARK    2  A    between atoms: C_3  and  O_4
REMARK    3  A    between atoms: O_4  and  C_5
REMARK    4  A    between atoms: C_5  and  C_7
REMARK    5  A    between atoms: N_16  and  C_17
REMARK    6  A    between atoms: C_17  and  C_18
REMARK    7  A    between atoms: C_18  and  S_19
REMARK    8  A    between atoms: S_19  and  C_20
REMARK                            x       y       z     vdW  Elec       q    Type
REMARK                         _______ _______ _______ _____ _____    ______ ____
ROOT
ATOM      1  O   UNL     1       8.238   4.156  18.051  0.00  0.00    +0.000 OA
ATOM      2  C   UNL     1       7.473   5.113  18.120  0.00  0.00    +0.000 C 
ATOM      3  N   UNL     1       6.302   5.197  17.393  0.00  0.00    +0.000 N 
ATOM      4  H   UNL     1       5.708   6.007  17.526  0.00  0.00    +0.000 HD
ENDROOT
BRANCH   2   5
ATOM      5  C   UNL     1       7.696   6.273  19.093  0.00  0.00    +0.000 C 
BRANCH   5   6
ATOM      6  O   UNL     1       8.586   7.272  18.598  0.00  0.00    +0.000 OA
BRANCH   6   7
ATOM      7  C   UNL     1       7.983   8.304  17.944  0.00  0.00    +0.000 C 
ATOM      8  O   UNL     1       7.060   8.199  17.150  0.00  0.00    +0.000 OA
BRANCH   7   9
ATOM      9  C   UNL     1       8.580   9.551  18.349  0.00  0.00    +0.000 A 
ATOM     10  C   UNL     1       9.371   9.862  19.440  0.00  0.00    +0.000 A 
ATOM     11  C   UNL     1       9.701  11.243  19.381  0.00  0.00    +0.000 A 
ATOM     12  C   UNL     1      10.463  12.100  20.196  0.00  0.00    +0.000 A 
ATOM     13  C   UNL     1      10.586  13.447  19.844  0.00  0.00    +0.000 A 
ATOM     14  C   UNL     1       9.959  13.942  18.702  0.00  0.00    +0.000 A 
ATOM     15  C   UNL     1       9.200  13.107  17.874  0.00  0.00    +0.000 A 
ATOM     16  C   UNL     1       9.091  11.760  18.240  0.00  0.00    +0.000 A 
ATOM     17  N   UNL     1       8.431  10.719  17.628  0.00  0.00    +0.000 N 
ATOM     18  H   UNL     1       7.903  10.790  16.767  0.00  0.00    +0.000 HD
ENDBRANCH   7   9
ENDBRANCH   6   7
ENDBRANCH   5   6
ENDBRANCH   2   5
BRANCH   3  19
ATOM     19  C   UNL     1       5.945   4.212  16.384  0.00  0.00    +0.000 C 
BRANCH  19  20
ATOM     20  C   UNL     1       4.431   4.057  16.214  0.00  0.00    +0.000 C 
BRANCH  20  21
ATOM     21  S   UNL     1       3.747   3.118  17.629  0.00  0.00    +0.000 S 
BRANCH  21  22
ATOM     22  C   UNL     1       3.087   4.444  18.621  0.00  0.00    +0.000 A 
ATOM     23  C   UNL     1       2.957   5.719  18.057  0.00  0.00    +0.000 A 
ATOM     24  C   UNL     1       2.412   6.770  18.799  0.00  0.00    +0.000 A 
ATOM     25  C   UNL     1       1.983   6.547  20.105  0.00  0.00    +0.000 A 
ATOM     26 CL   UNL     1       1.313   7.839  21.020  0.00  0.00    +0.000 Cl
ATOM     27  C   UNL     1       2.089   5.278  20.671  0.00  0.00    +0.000 A 
ATOM     28  C   UNL     1       2.637   4.227  19.927  0.00  0.00    +0.000 A 
ENDBRANCH  21  22
ENDBRANCH  20  21
ENDBRANCH  19  20
ENDBRANCH   3  19
TORSDOF 8
ENDMDL
MODEL 9
REMARK VINA RESULT:      -7.1      5.434      7.841
REMARK  Name = 
REMARK  8 active torsions:
REMARK  status: ('A' for Active; 'I' for Inactive)
REMARK    1  A    between atoms: C_2  and  C_3
REMARK    2  A    between atoms: C_3  and  O_4
REMARK    3  A    between atoms: O_4  and  C_5
REMARK    4  A    between atoms: C_5  and  C_7
REMARK    5  A    between atoms: N_16  and  C_17
REMARK    6  A    between atoms: C_17  and  C_18
REMARK    7  A    between atoms: C_18  and  S_19
REMARK    8  A    between atoms: S_19  and  C_20
REMARK                            x       y       z     vdW  Elec       q    Type
REMARK                         _______ _______ _______ _____ _____    ______ ____
ROOT
ATOM      1  O   UNL     1       5.884   7.616  16.806  0.00  0.00    +0.000 OA
ATOM      2  C   UNL     1       6.926   7.046  17.117  0.00  0.00    +0.000 C 
ATOM      3  N   UNL     1       7.990   7.692  17.714  0.00  0.00    +0.000 N 
ATOM      4  H   UNL     1       8.806   7.147  17.967  0.00  0.00    +0.000 HD
ENDROOT
BRANCH   2   5
ATOM      5  C   UNL     1       7.114   5.536  16.957  0.00  0.00    +0.000 C 
BRANCH   5   6
ATOM      6  O   UNL     1       7.661   4.901  18.111  0.00  0.00    +0.000 OA
BRANCH   6   7
ATOM      7  C   UNL     1       6.970   5.116  19.266  0.00  0.00    +0.000 C 
ATOM      8  O   UNL     1       7.415   5.650  20.271  0.00  0.00    +0.000 OA
BRANCH   7   9
ATOM      9  C   UNL     1       5.619   4.639  19.119  0.00  0.00    +0.000 A 
ATOM     10  C   UNL     1       4.414   5.321  19.125  0.00  0.00    +0.000 A 
ATOM     11  C   UNL     1       3.364   4.383  18.942  0.00  0.00    +0.000 A 
ATOM     12  C   UNL     1       1.963   4.491  18.861  0.00  0.00    +0.000 A 
ATOM     13  C   UNL     1       1.199   3.335  18.676  0.00  0.00    +0.000 A 
ATOM     14  C   UNL     1       1.811   2.087  18.576  0.00  0.00    +0.000 A 
ATOM     15  C   UNL     1       3.202   1.957  18.650  0.00  0.00    +0.000 A 
ATOM     16  C   UNL     1       3.953   3.125  18.831  0.00  0.00    +0.000 A 
ATOM     17  N   UNL     1       5.314   3.307  18.928  0.00  0.00    +0.000 N 
ATOM     18  H   UNL     1       6.004   2.569  18.873  0.00  0.00    +0.000 HD
ENDBRANCH   7   9
ENDBRANCH   6   7
ENDBRANCH   5   6
ENDBRANCH   2   5
BRANCH   3  19
ATOM     19  C   UNL     1       8.013   9.134  17.904  0.00  0.00    +0.000 C 
BRANCH  19  20
ATOM     20  C   UNL     1       8.996   9.574  18.993  0.00  0.00    +0.000 C 
BRANCH  20  21
ATOM     21  S   UNL     1       9.807  11.138  18.493  0.00  0.00    +0.000 S 
BRANCH  21  22
ATOM     22  C   UNL     1       9.600  12.108  19.975  0.00  0.00    +0.000 A 
ATOM     23  C   UNL     1       9.889  13.478  19.940  0.00  0.00    +0.000 A 
ATOM     24  C   UNL     1       9.704  14.271  21.076  0.00  0.00    +0.000 A 
ATOM     25  C   UNL     1       9.220  13.698  22.249  0.00  0.00    +0.000 A 
ATOM     26 CL   UNL     1       8.994  14.671  23.648  0.00  0.00    +0.000 Cl
ATOM     27  C   UNL     1       8.911  12.339  22.291  0.00  0.00    +0.000 A 
ATOM     28  C   UNL     1       9.098  11.547  21.153  0.00  0.00    +0.000 A 
ENDBRANCH  21  22
ENDBRANCH  20  21
ENDBRANCH  19  20
ENDBRANCH   3  19
TORSDOF 8
ENDMDL
