MODEL 1
REMARK VINA RESULT:      -7.3      0.000      0.000
REMARK  Name = 
REMARK  10 active torsions:
REMARK  status: ('A' for Active; 'I' for Inactive)
REMARK    1  A    between atoms: C_1  and  C_2
REMARK    2  A    between atoms: C_2  and  C_4
REMARK    3  A    between atoms: C_5  and  O_6
REMARK    4  A    between atoms: C_8  and  O_9
REMARK    5  A    between atoms: C_8  and  N_10
REMARK    6  A    between atoms: N_10  and  C_11
REMARK    7  A    between atoms: C_14  and  O_15
REMARK    8  A    between atoms: O_15  and  C_16
REMARK    9  A    between atoms: C_16  and  C_17
REMARK   10  A    between atoms: C_17  and  O_19
REMARK                            x       y       z     vdW  Elec       q    Type
REMARK                         _______ _______ _______ _____ _____    ______ ____
ROOT
ATOM      1  C   UNL     1      -0.868  11.800  21.651  0.00  0.00    +0.000 C 
ATOM      2  C   UNL     1      -0.084  10.732  21.874  0.00  0.00    +0.000 C 
ATOM      3  C   UNL     1       0.430   9.920  20.785  0.00  0.00    +0.000 C 
ATOM      4  C   UNL     1       1.271   8.859  20.936  0.00  0.00    +0.000 C 
ATOM      5  C   UNL     1      -0.002  10.286  19.409  0.00  0.00    +0.000 C 
ATOM      6  O   UNL     1       0.320   9.633  18.420  0.00  0.00    +0.000 OA
ATOM      7  O   UNL     1      -0.766  11.386  19.255  0.00  0.00    +0.000 OA
ATOM      8  C   UNL     1      -1.182  12.166  20.271  0.00  0.00    +0.000 C 
ATOM      9  O   UNL     1      -1.815  13.188  20.029  0.00  0.00    +0.000 OA
ENDROOT
BRANCH   1  11
ATOM     10  C   UNL     1      -2.796  12.362  23.306  0.00  0.00    +0.000 C 
ATOM     11  C   UNL     1      -1.383  12.561  22.833  0.00  0.00    +0.000 C 
ATOM     12  O   UNL     1      -0.603  13.278  23.470  0.00  0.00    +0.000 OA
ENDBRANCH   1  11
BRANCH   2  13
ATOM     13  O   UNL     1       0.293  10.319  23.149  0.00  0.00    +0.000 OA
ATOM     14  H   UNL     1       0.699   9.419  23.093  0.00  0.00    +0.000 HD
ENDBRANCH   2  13
BRANCH   4  15
ATOM     15  O   UNL     1       1.727   8.503  22.197  0.00  0.00    +0.000 OA
ATOM     16  H   UNL     1       2.654   8.204  22.120  0.00  0.00    +0.000 HD
ENDBRANCH   4  15
BRANCH   4  17
ATOM     17  N   UNL     1       1.797   8.092  19.911  0.00  0.00    +0.000 N 
ATOM     18  H   UNL     1       1.778   8.529  18.986  0.00  0.00    +0.000 HD
BRANCH  17  19
ATOM     19  C   UNL     1       2.197   6.744  19.904  0.00  0.00    +0.000 A 
ATOM     20  C   UNL     1       1.557   5.743  20.643  0.00  0.00    +0.000 A 
ATOM     21  C   UNL     1       2.035   4.430  20.662  0.00  0.00    +0.000 A 
ATOM     22  C   UNL     1       3.167   4.083  19.932  0.00  0.00    +0.000 A 
ATOM     23  C   UNL     1       3.840   5.068  19.213  0.00  0.00    +0.000 A 
ATOM     24  C   UNL     1       3.357   6.385  19.201  0.00  0.00    +0.000 A 
BRANCH  22  25
ATOM     25  O   UNL     1       3.551   2.774  20.035  0.00  0.00    +0.000 OA
BRANCH  25  26
ATOM     26  C   UNL     1       3.710   2.095  18.784  0.00  0.00    +0.000 C 
BRANCH  26  27
ATOM     27  C   UNL     1       2.399   2.171  18.019  0.00  0.00    +0.000 C 
ATOM     28  O   UNL     1       2.249   2.813  16.989  0.00  0.00    +0.000 OA
BRANCH  27  29
ATOM     29  O   UNL     1       1.399   1.447  18.581  0.00  0.00    +0.000 OA
ATOM     30  H   UNL     1       1.735   0.999  19.389  0.00  0.00    +0.000 HD
ENDBRANCH  27  29
ENDBRANCH  26  27
ENDBRANCH  25  26
ENDBRANCH  22  25
ENDBRANCH  17  19
ENDBRANCH   4  17
TORSDOF 9
ENDMDL
MODEL 2
REMARK VINA RESULT:      -7.0      3.018      4.717
REMARK  Name = 
REMARK  10 active torsions:
REMARK  status: ('A' for Active; 'I' for Inactive)
REMARK    1  A    between atoms: C_1  and  C_2
REMARK    2  A    between atoms: C_2  and  C_4
REMARK    3  A    between atoms: C_5  and  O_6
REMARK    4  A    between atoms: C_8  and  O_9
REMARK    5  A    between atoms: C_8  and  N_10
REMARK    6  A    between atoms: N_10  and  C_11
REMARK    7  A    between atoms: C_14  and  O_15
REMARK    8  A    between atoms: O_15  and  C_16
REMARK    9  A    between atoms: C_16  and  C_17
REMARK   10  A    between atoms: C_17  and  O_19
REMARK                            x       y       z     vdW  Elec       q    Type
REMARK                         _______ _______ _______ _____ _____    ______ ____
ROOT
ATOM      1  C   UNL     1      -4.584  11.920  18.706  0.00  0.00    +0.000 C 
ATOM      2  C   UNL     1      -3.591  11.303  18.042  0.00  0.00    +0.000 C 
ATOM      3  C   UNL     1      -2.224  11.309  18.533  0.00  0.00    +0.000 C 
ATOM      4  C   UNL     1      -1.183  10.661  17.939  0.00  0.00    +0.000 C 
ATOM      5  C   UNL     1      -1.956  12.084  19.773  0.00  0.00    +0.000 C 
ATOM      6  O   UNL     1      -0.828  12.209  20.244  0.00  0.00    +0.000 OA
ATOM      7  O   UNL     1      -3.002  12.654  20.404  0.00  0.00    +0.000 OA
ATOM      8  C   UNL     1      -4.275  12.586  19.971  0.00  0.00    +0.000 C 
ATOM      9  O   UNL     1      -5.173  13.075  20.648  0.00  0.00    +0.000 OA
ENDROOT
BRANCH   1  11
ATOM     10  C   UNL     1      -6.471  13.078  17.339  0.00  0.00    +0.000 C 
ATOM     11  C   UNL     1      -5.958  11.895  18.112  0.00  0.00    +0.000 C 
ATOM     12  O   UNL     1      -6.622  10.855  18.184  0.00  0.00    +0.000 OA
ENDBRANCH   1  11
BRANCH   2  13
ATOM     13  O   UNL     1      -3.789  10.620  16.845  0.00  0.00    +0.000 OA
ATOM     14  H   UNL     1      -4.695  10.819  16.503  0.00  0.00    +0.000 HD
ENDBRANCH   2  13
BRANCH   4  15
ATOM     15  O   UNL     1      -1.393   9.899  16.799  0.00  0.00    +0.000 OA
ATOM     16  H   UNL     1      -0.583   9.384  16.615  0.00  0.00    +0.000 HD
ENDBRANCH   4  15
BRANCH   4  17
ATOM     17  N   UNL     1       0.119  10.628  18.405  0.00  0.00    +0.000 N 
ATOM     18  H   UNL     1       0.605  11.528  18.406  0.00  0.00    +0.000 HD
BRANCH  17  19
ATOM     19  C   UNL     1       0.940   9.529  18.719  0.00  0.00    +0.000 A 
ATOM     20  C   UNL     1       1.691   8.829  17.768  0.00  0.00    +0.000 A 
ATOM     21  C   UNL     1       2.435   7.698  18.114  0.00  0.00    +0.000 A 
ATOM     22  C   UNL     1       2.452   7.242  19.428  0.00  0.00    +0.000 A 
ATOM     23  C   UNL     1       1.688   7.904  20.387  0.00  0.00    +0.000 A 
ATOM     24  C   UNL     1       0.941   9.036  20.032  0.00  0.00    +0.000 A 
BRANCH  22  25
ATOM     25  O   UNL     1       3.203   6.120  19.649  0.00  0.00    +0.000 OA
BRANCH  25  26
ATOM     26  C   UNL     1       4.200   5.860  18.655  0.00  0.00    +0.000 C 
BRANCH  26  27
ATOM     27  C   UNL     1       5.116   4.758  19.161  0.00  0.00    +0.000 C 
ATOM     28  O   UNL     1       4.872   3.565  19.047  0.00  0.00    +0.000 OA
BRANCH  27  29
ATOM     29  O   UNL     1       6.246   5.220  19.751  0.00  0.00    +0.000 OA
ATOM     30  H   UNL     1       6.022   5.614  20.623  0.00  0.00    +0.000 HD
ENDBRANCH  27  29
ENDBRANCH  26  27
ENDBRANCH  25  26
ENDBRANCH  22  25
ENDBRANCH  17  19
ENDBRANCH   4  17
TORSDOF 9
ENDMDL
MODEL 3
REMARK VINA RESULT:      -6.9      2.456      3.589
REMARK  Name = 
REMARK  10 active torsions:
REMARK  status: ('A' for Active; 'I' for Inactive)
REMARK    1  A    between atoms: C_1  and  C_2
REMARK    2  A    between atoms: C_2  and  C_4
REMARK    3  A    between atoms: C_5  and  O_6
REMARK    4  A    between atoms: C_8  and  O_9
REMARK    5  A    between atoms: C_8  and  N_10
REMARK    6  A    between atoms: N_10  and  C_11
REMARK    7  A    between atoms: C_14  and  O_15
REMARK    8  A    between atoms: O_15  and  C_16
REMARK    9  A    between atoms: C_16  and  C_17
REMARK   10  A    between atoms: C_17  and  O_19
REMARK                            x       y       z     vdW  Elec       q    Type
REMARK                         _______ _______ _______ _____ _____    ______ ____
ROOT
ATOM      1  C   UNL     1      -0.691  11.751  20.598  0.00  0.00    +0.000 C 
ATOM      2  C   UNL     1      -0.106  10.978  19.667  0.00  0.00    +0.000 C 
ATOM      3  C   UNL     1       0.723   9.842  20.027  0.00  0.00    +0.000 C 
ATOM      4  C   UNL     1       1.300   8.987  19.136  0.00  0.00    +0.000 C 
ATOM      5  C   UNL     1       0.951   9.606  21.478  0.00  0.00    +0.000 C 
ATOM      6  O   UNL     1       1.684   8.713  21.896  0.00  0.00    +0.000 OA
ATOM      7  O   UNL     1       0.311  10.402  22.358  0.00  0.00    +0.000 OA
ATOM      8  C   UNL     1      -0.506  11.412  22.008  0.00  0.00    +0.000 C 
ATOM      9  O   UNL     1      -1.102  12.039  22.879  0.00  0.00    +0.000 OA
ENDROOT
BRANCH   1  11
ATOM     10  C   UNL     1      -3.001  12.890  20.230  0.00  0.00    +0.000 C 
ATOM     11  C   UNL     1      -1.501  12.924  20.140  0.00  0.00    +0.000 C 
ATOM     12  O   UNL     1      -0.915  13.952  19.781  0.00  0.00    +0.000 OA
ENDBRANCH   1  11
BRANCH   2  13
ATOM     13  O   UNL     1      -0.243  11.201  18.299  0.00  0.00    +0.000 OA
ATOM     14  H   UNL     1      -1.205  11.241  18.071  0.00  0.00    +0.000 HD
ENDBRANCH   2  13
BRANCH   4  15
ATOM     15  O   UNL     1       1.087   9.147  17.775  0.00  0.00    +0.000 OA
ATOM     16  H   UNL     1       0.263   9.655  17.647  0.00  0.00    +0.000 HD
ENDBRANCH   4  15
BRANCH   4  17
ATOM     17  N   UNL     1       2.067   7.881  19.458  0.00  0.00    +0.000 N 
ATOM     18  H   UNL     1       2.309   7.792  20.449  0.00  0.00    +0.000 HD
BRANCH  17  19
ATOM     19  C   UNL     1       2.711   6.952  18.621  0.00  0.00    +0.000 A 
ATOM     20  C   UNL     1       2.353   5.601  18.546  0.00  0.00    +0.000 A 
ATOM     21  C   UNL     1       3.069   4.700  17.755  0.00  0.00    +0.000 A 
ATOM     22  C   UNL     1       4.162   5.130  17.009  0.00  0.00    +0.000 A 
ATOM     23  C   UNL     1       4.557   6.464  17.092  0.00  0.00    +0.000 A 
ATOM     24  C   UNL     1       3.836   7.363  17.891  0.00  0.00    +0.000 A 
BRANCH  22  25
ATOM     25  O   UNL     1       4.794   4.160  16.283  0.00  0.00    +0.000 OA
BRANCH  25  26
ATOM     26  C   UNL     1       6.220   4.284  16.226  0.00  0.00    +0.000 C 
BRANCH  26  27
ATOM     27  C   UNL     1       6.633   4.484  14.778  0.00  0.00    +0.000 C 
ATOM     28  O   UNL     1       6.086   3.935  13.831  0.00  0.00    +0.000 OA
BRANCH  27  29
ATOM     29  O   UNL     1       7.670   5.344  14.623  0.00  0.00    +0.000 OA
ATOM     30  H   UNL     1       8.210   5.069  13.849  0.00  0.00    +0.000 HD
ENDBRANCH  27  29
ENDBRANCH  26  27
ENDBRANCH  25  26
ENDBRANCH  22  25
ENDBRANCH  17  19
ENDBRANCH   4  17
TORSDOF 9
ENDMDL
MODEL 4
REMARK VINA RESULT:      -6.9      2.819      3.832
REMARK  Name = 
REMARK  10 active torsions:
REMARK  status: ('A' for Active; 'I' for Inactive)
REMARK    1  A    between atoms: C_1  and  C_2
REMARK    2  A    between atoms: C_2  and  C_4
REMARK    3  A    between atoms: C_5  and  O_6
REMARK    4  A    between atoms: C_8  and  O_9
REMARK    5  A    between atoms: C_8  and  N_10
REMARK    6  A    between atoms: N_10  and  C_11
REMARK    7  A    between atoms: C_14  and  O_15
REMARK    8  A    between atoms: O_15  and  C_16
REMARK    9  A    between atoms: C_16  and  C_17
REMARK   10  A    between atoms: C_17  and  O_19
REMARK                            x       y       z     vdW  Elec       q    Type
REMARK                         _______ _______ _______ _____ _____    ______ ____
ROOT
ATOM      1  C   UNL     1       0.532  11.957  20.279  0.00  0.00    +0.000 C 
ATOM      2  C   UNL     1       1.004  11.155  19.309  0.00  0.00    +0.000 C 
ATOM      3  C   UNL     1       1.222   9.736  19.529  0.00  0.00    +0.000 C 
ATOM      4  C   UNL     1       1.646   8.858  18.577  0.00  0.00    +0.000 C 
ATOM      5  C   UNL     1       0.960   9.218  20.898  0.00  0.00    +0.000 C 
ATOM      6  O   UNL     1       1.169   8.049  21.215  0.00  0.00    +0.000 OA
ATOM      7  O   UNL     1       0.461  10.071  21.815  0.00  0.00    +0.000 OA
ATOM      8  C   UNL     1       0.203  11.371  21.577  0.00  0.00    +0.000 C 
ATOM      9  O   UNL     1      -0.317  12.055  22.451  0.00  0.00    +0.000 OA
ENDROOT
BRANCH   1  11
ATOM     10  C   UNL     1      -1.002  14.006  19.810  0.00  0.00    +0.000 C 
ATOM     11  C   UNL     1       0.370  13.414  19.977  0.00  0.00    +0.000 C 
ATOM     12  O   UNL     1       1.372  14.138  19.966  0.00  0.00    +0.000 OA
ENDBRANCH   1  11
BRANCH   2  13
ATOM     13  O   UNL     1       1.321  11.612  18.032  0.00  0.00    +0.000 OA
ATOM     14  H   UNL     1       1.768  12.491  18.103  0.00  0.00    +0.000 HD
ENDBRANCH   2  13
BRANCH   4  15
ATOM     15  O   UNL     1       1.870   9.289  17.278  0.00  0.00    +0.000 OA
ATOM     16  H   UNL     1       2.833   9.392  17.146  0.00  0.00    +0.000 HD
ENDBRANCH   4  15
BRANCH   4  17
ATOM     17  N   UNL     1       1.830   7.498  18.757  0.00  0.00    +0.000 N 
ATOM     18  H   UNL     1       1.339   7.094  19.559  0.00  0.00    +0.000 HD
BRANCH  17  19
ATOM     19  C   UNL     1       2.717   6.613  18.118  0.00  0.00    +0.000 A 
ATOM     20  C   UNL     1       2.484   5.238  17.999  0.00  0.00    +0.000 A 
ATOM     21  C   UNL     1       3.428   4.386  17.420  0.00  0.00    +0.000 A 
ATOM     22  C   UNL     1       4.630   4.892  16.936  0.00  0.00    +0.000 A 
ATOM     23  C   UNL     1       4.899   6.252  17.072  0.00  0.00    +0.000 A 
ATOM     24  C   UNL     1       3.948   7.101  17.657  0.00  0.00    +0.000 A 
BRANCH  22  25
ATOM     25  O   UNL     1       5.483   3.965  16.403  0.00  0.00    +0.000 OA
BRANCH  25  26
ATOM     26  C   UNL     1       6.816   4.437  16.172  0.00  0.00    +0.000 C 
BRANCH  26  27
ATOM     27  C   UNL     1       7.033   4.566  14.675  0.00  0.00    +0.000 C 
ATOM     28  O   UNL     1       7.689   5.460  14.157  0.00  0.00    +0.000 OA
BRANCH  27  29
ATOM     29  O   UNL     1       6.437   3.586  13.952  0.00  0.00    +0.000 OA
ATOM     30  H   UNL     1       5.476   3.777  13.873  0.00  0.00    +0.000 HD
ENDBRANCH  27  29
ENDBRANCH  26  27
ENDBRANCH  25  26
ENDBRANCH  22  25
ENDBRANCH  17  19
ENDBRANCH   4  17
TORSDOF 9
ENDMDL
MODEL 5
REMARK VINA RESULT:      -6.9      2.807      3.953
REMARK  Name = 
REMARK  10 active torsions:
REMARK  status: ('A' for Active; 'I' for Inactive)
REMARK    1  A    between atoms: C_1  and  C_2
REMARK    2  A    between atoms: C_2  and  C_4
REMARK    3  A    between atoms: C_5  and  O_6
REMARK    4  A    between atoms: C_8  and  O_9
REMARK    5  A    between atoms: C_8  and  N_10
REMARK    6  A    between atoms: N_10  and  C_11
REMARK    7  A    between atoms: C_14  and  O_15
REMARK    8  A    between atoms: O_15  and  C_16
REMARK    9  A    between atoms: C_16  and  C_17
REMARK   10  A    between atoms: C_17  and  O_19
REMARK                            x       y       z     vdW  Elec       q    Type
REMARK                         _______ _______ _______ _____ _____    ______ ____
ROOT
ATOM      1  C   UNL     1       0.372  11.058  21.240  0.00  0.00    +0.000 C 
ATOM      2  C   UNL     1       0.832  10.672  20.038  0.00  0.00    +0.000 C 
ATOM      3  C   UNL     1       1.240   9.302  19.780  0.00  0.00    +0.000 C 
ATOM      4  C   UNL     1       1.664   8.831  18.573  0.00  0.00    +0.000 C 
ATOM      5  C   UNL     1       1.186   8.355  20.926  0.00  0.00    +0.000 C 
ATOM      6  O   UNL     1       1.565   7.189  20.838  0.00  0.00    +0.000 OA
ATOM      7  O   UNL     1       0.687   8.802  22.096  0.00  0.00    +0.000 OA
ATOM      8  C   UNL     1       0.253  10.059  22.301  0.00  0.00    +0.000 C 
ATOM      9  O   UNL     1      -0.251  10.357  23.379  0.00  0.00    +0.000 OA
ENDROOT
BRANCH   1  11
ATOM     10  C   UNL     1      -1.435  12.922  21.410  0.00  0.00    +0.000 C 
ATOM     11  C   UNL     1       0.006  12.497  21.431  0.00  0.00    +0.000 C 
ATOM     12  O   UNL     1       0.897  13.310  21.702  0.00  0.00    +0.000 OA
ENDBRANCH   1  11
BRANCH   2  13
ATOM     13  O   UNL     1       0.957  11.541  18.958  0.00  0.00    +0.000 OA
ATOM     14  H   UNL     1       1.472  12.337  19.238  0.00  0.00    +0.000 HD
ENDBRANCH   2  13
BRANCH   4  15
ATOM     15  O   UNL     1       1.697   9.670  17.469  0.00  0.00    +0.000 OA
ATOM     16  H   UNL     1       0.793   9.744  17.106  0.00  0.00    +0.000 HD
ENDBRANCH   4  15
BRANCH   4  17
ATOM     17  N   UNL     1       2.027   7.525  18.298  0.00  0.00    +0.000 N 
ATOM     18  H   UNL     1       1.291   6.829  18.443  0.00  0.00    +0.000 HD
BRANCH  17  19
ATOM     19  C   UNL     1       3.291   6.978  18.014  0.00  0.00    +0.000 A 
ATOM     20  C   UNL     1       4.211   7.570  17.142  0.00  0.00    +0.000 A 
ATOM     21  C   UNL     1       5.426   6.953  16.833  0.00  0.00    +0.000 A 
ATOM     22  C   UNL     1       5.755   5.725  17.398  0.00  0.00    +0.000 A 
ATOM     23  C   UNL     1       4.842   5.100  18.244  0.00  0.00    +0.000 A 
ATOM     24  C   UNL     1       3.622   5.724  18.547  0.00  0.00    +0.000 A 
BRANCH  22  25
ATOM     25  O   UNL     1       6.962   5.209  17.015  0.00  0.00    +0.000 OA
BRANCH  25  26
ATOM     26  C   UNL     1       6.882   4.087  16.129  0.00  0.00    +0.000 C 
BRANCH  26  27
ATOM     27  C   UNL     1       6.748   4.600  14.705  0.00  0.00    +0.000 C 
ATOM     28  O   UNL     1       5.819   4.313  13.963  0.00  0.00    +0.000 OA
BRANCH  27  29
ATOM     29  O   UNL     1       7.758   5.423  14.327  0.00  0.00    +0.000 OA
ATOM     30  H   UNL     1       8.617   4.960  14.443  0.00  0.00    +0.000 HD
ENDBRANCH  27  29
ENDBRANCH  26  27
ENDBRANCH  25  26
ENDBRANCH  22  25
ENDBRANCH  17  19
ENDBRANCH   4  17
TORSDOF 9
ENDMDL
MODEL 6
REMARK VINA RESULT:      -6.9      2.168      2.685
REMARK  Name = 
REMARK  10 active torsions:
REMARK  status: ('A' for Active; 'I' for Inactive)
REMARK    1  A    between atoms: C_1  and  C_2
REMARK    2  A    between atoms: C_2  and  C_4
REMARK    3  A    between atoms: C_5  and  O_6
REMARK    4  A    between atoms: C_8  and  O_9
REMARK    5  A    between atoms: C_8  and  N_10
REMARK    6  A    between atoms: N_10  and  C_11
REMARK    7  A    between atoms: C_14  and  O_15
REMARK    8  A    between atoms: O_15  and  C_16
REMARK    9  A    between atoms: C_16  and  C_17
REMARK   10  A    between atoms: C_17  and  O_19
REMARK                            x       y       z     vdW  Elec       q    Type
REMARK                         _______ _______ _______ _____ _____    ______ ____
ROOT
ATOM      1  C   UNL     1      -1.292  11.733  21.574  0.00  0.00    +0.000 C 
ATOM      2  C   UNL     1      -0.362  10.764  21.542  0.00  0.00    +0.000 C 
ATOM      3  C   UNL     1       0.051  10.142  20.296  0.00  0.00    +0.000 C 
ATOM      4  C   UNL     1       1.024   9.194  20.185  0.00  0.00    +0.000 C 
ATOM      5  C   UNL     1      -0.647  10.582  19.059  0.00  0.00    +0.000 C 
ATOM      6  O   UNL     1      -0.423  10.081  17.959  0.00  0.00    +0.000 OA
ATOM      7  O   UNL     1      -1.549  11.579  19.159  0.00  0.00    +0.000 OA
ATOM      8  C   UNL     1      -1.875  12.190  20.313  0.00  0.00    +0.000 C 
ATOM      9  O   UNL     1      -2.655  13.136  20.298  0.00  0.00    +0.000 OA
ENDROOT
BRANCH   1  11
ATOM     10  C   UNL     1      -1.178  13.643  23.338  0.00  0.00    +0.000 C 
ATOM     11  C   UNL     1      -1.685  12.296  22.905  0.00  0.00    +0.000 C 
ATOM     12  O   UNL     1      -2.506  11.682  23.594  0.00  0.00    +0.000 OA
ENDBRANCH   1  11
BRANCH   2  13
ATOM     13  O   UNL     1       0.271  10.281  22.684  0.00  0.00    +0.000 OA
ATOM     14  H   UNL     1       1.032   9.708  22.416  0.00  0.00    +0.000 HD
ENDBRANCH   2  13
BRANCH   4  15
ATOM     15  O   UNL     1       1.726   8.779  21.308  0.00  0.00    +0.000 OA
ATOM     16  H   UNL     1       2.465   8.209  21.020  0.00  0.00    +0.000 HD
ENDBRANCH   4  15
BRANCH   4  17
ATOM     17  N   UNL     1       1.455   8.612  19.006  0.00  0.00    +0.000 N 
ATOM     18  H   UNL     1       0.956   8.911  18.165  0.00  0.00    +0.000 HD
BRANCH  17  19
ATOM     19  C   UNL     1       2.353   7.550  18.797  0.00  0.00    +0.000 A 
ATOM     20  C   UNL     1       2.414   6.416  19.616  0.00  0.00    +0.000 A 
ATOM     21  C   UNL     1       3.371   5.420  19.413  0.00  0.00    +0.000 A 
ATOM     22  C   UNL     1       4.292   5.529  18.376  0.00  0.00    +0.000 A 
ATOM     23  C   UNL     1       4.272   6.663  17.566  0.00  0.00    +0.000 A 
ATOM     24  C   UNL     1       3.310   7.662  17.778  0.00  0.00    +0.000 A 
BRANCH  22  25
ATOM     25  O   UNL     1       5.190   4.503  18.279  0.00  0.00    +0.000 OA
BRANCH  25  26
ATOM     26  C   UNL     1       5.718   4.287  16.965  0.00  0.00    +0.000 C 
BRANCH  26  27
ATOM     27  C   UNL     1       7.214   4.548  16.993  0.00  0.00    +0.000 C 
ATOM     28  O   UNL     1       7.900   4.472  18.003  0.00  0.00    +0.000 OA
BRANCH  27  29
ATOM     29  O   UNL     1       7.731   4.868  15.781  0.00  0.00    +0.000 OA
ATOM     30  H   UNL     1       7.386   5.744  15.500  0.00  0.00    +0.000 HD
ENDBRANCH  27  29
ENDBRANCH  26  27
ENDBRANCH  25  26
ENDBRANCH  22  25
ENDBRANCH  17  19
ENDBRANCH   4  17
TORSDOF 9
ENDMDL
MODEL 7
REMARK VINA RESULT:      -6.9      2.806      3.896
REMARK  Name = 
REMARK  10 active torsions:
REMARK  status: ('A' for Active; 'I' for Inactive)
REMARK    1  A    between atoms: C_1  and  C_2
REMARK    2  A    between atoms: C_2  and  C_4
REMARK    3  A    between atoms: C_5  and  O_6
REMARK    4  A    between atoms: C_8  and  O_9
REMARK    5  A    between atoms: C_8  and  N_10
REMARK    6  A    between atoms: N_10  and  C_11
REMARK    7  A    between atoms: C_14  and  O_15
REMARK    8  A    between atoms: O_15  and  C_16
REMARK    9  A    between atoms: C_16  and  C_17
REMARK   10  A    between atoms: C_17  and  O_19
REMARK                            x       y       z     vdW  Elec       q    Type
REMARK                         _______ _______ _______ _____ _____    ______ ____
ROOT
ATOM      1  C   UNL     1       0.828  13.300  20.143  0.00  0.00    +0.000 C 
ATOM      2  C   UNL     1       1.204  12.369  19.250  0.00  0.00    +0.000 C 
ATOM      3  C   UNL     1       1.170  10.951  19.563  0.00  0.00    +0.000 C 
ATOM      4  C   UNL     1       1.486   9.954  18.690  0.00  0.00    +0.000 C 
ATOM      5  C   UNL     1       0.760  10.575  20.942  0.00  0.00    +0.000 C 
ATOM      6  O   UNL     1       0.754   9.411  21.336  0.00  0.00    +0.000 OA
ATOM      7  O   UNL     1       0.368  11.557  21.779  0.00  0.00    +0.000 OA
ATOM      8  C   UNL     1       0.343  12.863  21.452  0.00  0.00    +0.000 C 
ATOM      9  O   UNL     1      -0.096  13.680  22.254  0.00  0.00    +0.000 OA
ENDROOT
BRANCH   1  11
ATOM     10  C   UNL     1       2.060  15.588  20.258  0.00  0.00    +0.000 C 
ATOM     11  C   UNL     1       0.927  14.741  19.750  0.00  0.00    +0.000 C 
ATOM     12  O   UNL     1       0.123  15.194  18.929  0.00  0.00    +0.000 OA
ENDBRANCH   1  11
BRANCH   2  13
ATOM     13  O   UNL     1       1.653  12.682  17.970  0.00  0.00    +0.000 OA
ATOM     14  H   UNL     1       1.317  13.577  17.717  0.00  0.00    +0.000 HD
ENDBRANCH   2  13
BRANCH   4  15
ATOM     15  O   UNL     1       1.841  10.256  17.383  0.00  0.00    +0.000 OA
ATOM     16  H   UNL     1       2.804  10.130  17.285  0.00  0.00    +0.000 HD
ENDBRANCH   4  15
BRANCH   4  17
ATOM     17  N   UNL     1       1.430   8.597  18.957  0.00  0.00    +0.000 N 
ATOM     18  H   UNL     1       0.627   8.296  19.514  0.00  0.00    +0.000 HD
BRANCH  17  19
ATOM     19  C   UNL     1       2.387   7.591  18.733  0.00  0.00    +0.000 A 
ATOM     20  C   UNL     1       2.644   6.554  19.636  0.00  0.00    +0.000 A 
ATOM     21  C   UNL     1       3.655   5.618  19.404  0.00  0.00    +0.000 A 
ATOM     22  C   UNL     1       4.432   5.692  18.253  0.00  0.00    +0.000 A 
ATOM     23  C   UNL     1       4.216   6.734  17.353  0.00  0.00    +0.000 A 
ATOM     24  C   UNL     1       3.201   7.672  17.594  0.00  0.00    +0.000 A 
BRANCH  22  25
ATOM     25  O   UNL     1       5.400   4.733  18.136  0.00  0.00    +0.000 OA
BRANCH  25  26
ATOM     26  C   UNL     1       5.778   4.420  16.791  0.00  0.00    +0.000 C 
BRANCH  26  27
ATOM     27  C   UNL     1       7.248   4.756  16.608  0.00  0.00    +0.000 C 
ATOM     28  O   UNL     1       8.153   4.203  17.217  0.00  0.00    +0.000 OA
BRANCH  27  29
ATOM     29  O   UNL     1       7.472   5.729  15.691  0.00  0.00    +0.000 OA
ATOM     30  H   UNL     1       6.689   5.810  15.103  0.00  0.00    +0.000 HD
ENDBRANCH  27  29
ENDBRANCH  26  27
ENDBRANCH  25  26
ENDBRANCH  22  25
ENDBRANCH  17  19
ENDBRANCH   4  17
TORSDOF 9
ENDMDL
MODEL 8
REMARK VINA RESULT:      -6.9      2.637      3.876
REMARK  Name = 
REMARK  10 active torsions:
REMARK  status: ('A' for Active; 'I' for Inactive)
REMARK    1  A    between atoms: C_1  and  C_2
REMARK    2  A    between atoms: C_2  and  C_4
REMARK    3  A    between atoms: C_5  and  O_6
REMARK    4  A    between atoms: C_8  and  O_9
REMARK    5  A    between atoms: C_8  and  N_10
REMARK    6  A    between atoms: N_10  and  C_11
REMARK    7  A    between atoms: C_14  and  O_15
REMARK    8  A    between atoms: O_15  and  C_16
REMARK    9  A    between atoms: C_16  and  C_17
REMARK   10  A    between atoms: C_17  and  O_19
REMARK                            x       y       z     vdW  Elec       q    Type
REMARK                         _______ _______ _______ _____ _____    ______ ____
ROOT
ATOM      1  C   UNL     1       0.629  11.528  20.725  0.00  0.00    +0.000 C 
ATOM      2  C   UNL     1       1.099  10.897  19.635  0.00  0.00    +0.000 C 
ATOM      3  C   UNL     1       1.239   9.452  19.590  0.00  0.00    +0.000 C 
ATOM      4  C   UNL     1       1.657   8.746  18.502  0.00  0.00    +0.000 C 
ATOM      5  C   UNL     1       0.897   8.702  20.827  0.00  0.00    +0.000 C 
ATOM      6  O   UNL     1       1.035   7.485  20.922  0.00  0.00    +0.000 OA
ATOM      7  O   UNL     1       0.404   9.395  21.874  0.00  0.00    +0.000 OA
ATOM      8  C   UNL     1       0.220  10.728  21.878  0.00  0.00    +0.000 C 
ATOM      9  O   UNL     1      -0.301  11.264  22.850  0.00  0.00    +0.000 OA
ENDROOT
BRANCH   1  11
ATOM     10  C   UNL     1      -0.769  13.709  20.485  0.00  0.00    +0.000 C 
ATOM     11  C   UNL     1       0.551  13.023  20.701  0.00  0.00    +0.000 C 
ATOM     12  O   UNL     1       1.567  13.679  20.957  0.00  0.00    +0.000 OA
ENDBRANCH   1  11
BRANCH   2  13
ATOM     13  O   UNL     1       1.489  11.567  18.479  0.00  0.00    +0.000 OA
ATOM     14  H   UNL     1       2.290  11.126  18.102  0.00  0.00    +0.000 HD
ENDBRANCH   2  13
BRANCH   4  15
ATOM     15  O   UNL     1       1.954   9.400  17.315  0.00  0.00    +0.000 OA
ATOM     16  H   UNL     1       1.116   9.660  16.885  0.00  0.00    +0.000 HD
ENDBRANCH   4  15
BRANCH   4  17
ATOM     17  N   UNL     1       1.767   7.369  18.426  0.00  0.00    +0.000 N 
ATOM     18  H   UNL     1       0.886   6.855  18.523  0.00  0.00    +0.000 HD
BRANCH  17  19
ATOM     19  C   UNL     1       2.911   6.552  18.408  0.00  0.00    +0.000 A 
ATOM     20  C   UNL     1       3.199   5.602  19.394  0.00  0.00    +0.000 A 
ATOM     21  C   UNL     1       4.385   4.864  19.373  0.00  0.00    +0.000 A 
ATOM     22  C   UNL     1       5.314   5.054  18.355  0.00  0.00    +0.000 A 
ATOM     23  C   UNL     1       5.065   6.016  17.379  0.00  0.00    +0.000 A 
ATOM     24  C   UNL     1       3.874   6.756  17.408  0.00  0.00    +0.000 A 
BRANCH  22  25
ATOM     25  O   UNL     1       6.444   4.287  18.443  0.00  0.00    +0.000 OA
BRANCH  25  26
ATOM     26  C   UNL     1       7.649   4.944  18.033  0.00  0.00    +0.000 C 
BRANCH  26  27
ATOM     27  C   UNL     1       7.973   6.036  19.038  0.00  0.00    +0.000 C 
ATOM     28  O   UNL     1       8.254   7.186  18.726  0.00  0.00    +0.000 OA
BRANCH  27  29
ATOM     29  O   UNL     1       7.913   5.623  20.328  0.00  0.00    +0.000 OA
ATOM     30  H   UNL     1       8.437   4.798  20.431  0.00  0.00    +0.000 HD
ENDBRANCH  27  29
ENDBRANCH  26  27
ENDBRANCH  25  26
ENDBRANCH  22  25
ENDBRANCH  17  19
ENDBRANCH   4  17
TORSDOF 9
ENDMDL
MODEL 9
REMARK VINA RESULT:      -6.9      3.201      4.358
REMARK  Name = 
REMARK  10 active torsions:
REMARK  status: ('A' for Active; 'I' for Inactive)
REMARK    1  A    between atoms: C_1  and  C_2
REMARK    2  A    between atoms: C_2  and  C_4
REMARK    3  A    between atoms: C_5  and  O_6
REMARK    4  A    between atoms: C_8  and  O_9
REMARK    5  A    between atoms: C_8  and  N_10
REMARK    6  A    between atoms: N_10  and  C_11
REMARK    7  A    between atoms: C_14  and  O_15
REMARK    8  A    between atoms: O_15  and  C_16
REMARK    9  A    between atoms: C_16  and  C_17
REMARK   10  A    between atoms: C_17  and  O_19
REMARK                            x       y       z     vdW  Elec       q    Type
REMARK                         _______ _______ _______ _____ _____    ______ ____
ROOT
ATOM      1  C   UNL     1       0.189  10.901  20.302  0.00  0.00    +0.000 C 
ATOM      2  C   UNL     1       0.886  10.280  19.335  0.00  0.00    +0.000 C 
ATOM      3  C   UNL     1       1.387   8.927  19.502  0.00  0.00    +0.000 C 
ATOM      4  C   UNL     1       2.053   8.221  18.545  0.00  0.00    +0.000 C 
ATOM      5  C   UNL     1       1.149   8.277  20.818  0.00  0.00    +0.000 C 
ATOM      6  O   UNL     1       1.580   7.160  21.092  0.00  0.00    +0.000 OA
ATOM      7  O   UNL     1       0.418   8.945  21.733  0.00  0.00    +0.000 OA
ATOM      8  C   UNL     1      -0.095  10.175  21.539  0.00  0.00    +0.000 C 
ATOM      9  O   UNL     1      -0.808  10.677  22.402  0.00  0.00    +0.000 OA
ENDROOT
BRANCH   1  11
ATOM     10  C   UNL     1      -1.699  12.601  19.741  0.00  0.00    +0.000 C 
ATOM     11  C   UNL     1      -0.259  12.308  20.062  0.00  0.00    +0.000 C 
ATOM     12  O   UNL     1       0.548  13.230  20.226  0.00  0.00    +0.000 OA
ENDBRANCH   1  11
BRANCH   2  13
ATOM     13  O   UNL     1       1.184  10.876  18.112  0.00  0.00    +0.000 OA
ATOM     14  H   UNL     1       0.770  10.350  17.385  0.00  0.00    +0.000 HD
ENDBRANCH   2  13
BRANCH   4  15
ATOM     15  O   UNL     1       2.267   8.774  17.291  0.00  0.00    +0.000 OA
ATOM     16  H   UNL     1       2.161   9.743  17.356  0.00  0.00    +0.000 HD
ENDBRANCH   4  15
BRANCH   4  17
ATOM     17  N   UNL     1       2.510   6.921  18.671  0.00  0.00    +0.000 N 
ATOM     18  H   UNL     1       2.190   6.426  19.508  0.00  0.00    +0.000 HD
BRANCH  17  19
ATOM     19  C   UNL     1       3.480   6.227  17.926  0.00  0.00    +0.000 A 
ATOM     20  C   UNL     1       4.579   6.846  17.321  0.00  0.00    +0.000 A 
ATOM     21  C   UNL     1       5.477   6.126  16.528  0.00  0.00    +0.000 A 
ATOM     22  C   UNL     1       5.300   4.761  16.326  0.00  0.00    +0.000 A 
ATOM     23  C   UNL     1       4.195   4.128  16.892  0.00  0.00    +0.000 A 
ATOM     24  C   UNL     1       3.296   4.858  17.684  0.00  0.00    +0.000 A 
BRANCH  22  25
ATOM     25  O   UNL     1       6.231   4.163  15.523  0.00  0.00    +0.000 OA
BRANCH  25  26
ATOM     26  C   UNL     1       5.888   4.120  14.133  0.00  0.00    +0.000 C 
BRANCH  26  27
ATOM     27  C   UNL     1       7.064   4.640  13.325  0.00  0.00    +0.000 C 
ATOM     28  O   UNL     1       7.255   4.367  12.148  0.00  0.00    +0.000 OA
BRANCH  27  29
ATOM     29  O   UNL     1       7.890   5.453  14.029  0.00  0.00    +0.000 OA
ATOM     30  H   UNL     1       7.596   6.385  13.926  0.00  0.00    +0.000 HD
ENDBRANCH  27  29
ENDBRANCH  26  27
ENDBRANCH  25  26
ENDBRANCH  22  25
ENDBRANCH  17  19
ENDBRANCH   4  17
TORSDOF 9
ENDMDL
