MODEL 1
REMARK VINA RESULT:      -7.8      0.000      0.000
REMARK  Name = 
REMARK  7 active torsions:
REMARK  status: ('A' for Active; 'I' for Inactive)
REMARK    1  A    between atoms: C_1  and  O_2
REMARK    2  A    between atoms: O_2  and  C_3
REMARK    3  A    between atoms: C_5  and  C_6
REMARK    4  A    between atoms: N_7  and  N_8
REMARK    5  A    between atoms: C_9  and  C_11
REMARK    6  A    between atoms: C_13  and  C_14
REMARK    7  A    between atoms: C_25  and  O_26
REMARK                            x       y       z     vdW  Elec       q    Type
REMARK                         _______ _______ _______ _____ _____    ______ ____
ROOT
ATOM      1  N   UNL     1       1.514   8.031  20.770  0.00  0.00    +0.000 N 
ATOM      2  C   UNL     1       1.010   9.283  20.416  0.00  0.00    +0.000 C 
ATOM      3  O   UNL     1       1.190   9.778  19.302  0.00  0.00    +0.000 OA
ATOM      4  H   UNL     1       1.346   7.650  21.694  0.00  0.00    +0.000 HD
ENDROOT
BRANCH   2   5
ATOM      5  C   UNL     1       0.263   9.968  21.451  0.00  0.00    +0.000 A 
ATOM      6  N   UNL     1      -0.268  11.177  21.432  0.00  0.00    +0.000 NA
ATOM      7  C   UNL     1      -0.889  11.238  22.673  0.00  0.00    +0.000 A 
ATOM      8  N   UNL     1      -0.723  10.135  23.420  0.00  0.00    +0.000 NA
ATOM      9  O   UNL     1       0.032   9.296  22.614  0.00  0.00    +0.000 OA
BRANCH   7  10
ATOM     10  C   UNL     1      -1.691  12.377  23.116  0.00  0.00    +0.000 A 
ATOM     11  C   UNL     1      -3.048  12.214  23.428  0.00  0.00    +0.000 A 
ATOM     12  C   UNL     1      -3.808  13.297  23.885  0.00  0.00    +0.000 A 
ATOM     13  C   UNL     1      -3.218  14.551  24.026  0.00  0.00    +0.000 A 
ATOM     14 BR   UNL     1      -4.246  16.010  24.648  0.00  0.00    +0.000 Br
ATOM     15  C   UNL     1      -1.873  14.735  23.717  0.00  0.00    +0.000 A 
ATOM     16  C   UNL     1      -1.114  13.651  23.263  0.00  0.00    +0.000 A 
ENDBRANCH   7  10
ENDBRANCH   2   5
BRANCH   1  18
ATOM     17  C   UNL     1       2.592   6.125  20.110  0.00  0.00    +0.000 C 
ATOM     18  N   UNL     1       2.246   7.341  19.841  0.00  0.00    +0.000 NA
BRANCH  17  21
ATOM     19  C   UNL     1       5.522   4.457  18.344  0.00  0.00    +0.000 A 
ATOM     20  C   UNL     1       4.772   5.200  19.270  0.00  0.00    +0.000 A 
ATOM     21  C   UNL     1       3.383   5.333  19.136  0.00  0.00    +0.000 A 
ATOM     22  C   UNL     1       2.729   4.715  18.069  0.00  0.00    +0.000 A 
ATOM     23  C   UNL     1       3.466   3.974  17.141  0.00  0.00    +0.000 A 
ATOM     24  C   UNL     1       4.855   3.848  17.274  0.00  0.00    +0.000 A 
BRANCH  19  26
ATOM     25  C   UNL     1       7.609   5.631  18.471  0.00  0.00    +0.000 C 
ATOM     26  O   UNL     1       6.862   4.433  18.630  0.00  0.00    +0.000 OA
ENDBRANCH  19  26
BRANCH  24  27
ATOM     27  O   UNL     1       5.529   3.119  16.333  0.00  0.00    +0.000 OA
ATOM     28  H   UNL     1       6.482   3.280  16.416  0.00  0.00    +0.000 HD
ENDBRANCH  24  27
ENDBRANCH  17  21
ENDBRANCH   1  18
TORSDOF 6
ENDMDL
MODEL 2
REMARK VINA RESULT:      -7.5      3.575      4.159
REMARK  Name = 
REMARK  7 active torsions:
REMARK  status: ('A' for Active; 'I' for Inactive)
REMARK    1  A    between atoms: C_1  and  O_2
REMARK    2  A    between atoms: O_2  and  C_3
REMARK    3  A    between atoms: C_5  and  C_6
REMARK    4  A    between atoms: N_7  and  N_8
REMARK    5  A    between atoms: C_9  and  C_11
REMARK    6  A    between atoms: C_13  and  C_14
REMARK    7  A    between atoms: C_25  and  O_26
REMARK                            x       y       z     vdW  Elec       q    Type
REMARK                         _______ _______ _______ _____ _____    ______ ____
ROOT
ATOM      1  N   UNL     1       1.645   8.429  18.115  0.00  0.00    +0.000 N 
ATOM      2  C   UNL     1       1.605   9.823  18.170  0.00  0.00    +0.000 C 
ATOM      3  O   UNL     1       2.568  10.525  17.862  0.00  0.00    +0.000 OA
ATOM      4  H   UNL     1       0.834   7.879  18.373  0.00  0.00    +0.000 HD
ENDROOT
BRANCH   2   5
ATOM      5  C   UNL     1       0.351  10.391  18.622  0.00  0.00    +0.000 A 
ATOM      6  N   UNL     1      -0.727  10.691  17.921  0.00  0.00    +0.000 NA
ATOM      7  C   UNL     1      -1.596  11.142  18.907  0.00  0.00    +0.000 A 
ATOM      8  N   UNL     1      -1.065  11.143  20.140  0.00  0.00    +0.000 NA
ATOM      9  O   UNL     1       0.215  10.644  19.955  0.00  0.00    +0.000 OA
BRANCH   7  10
ATOM     10  C   UNL     1      -2.977  11.538  18.641  0.00  0.00    +0.000 A 
ATOM     11  C   UNL     1      -3.712  12.247  19.602  0.00  0.00    +0.000 A 
ATOM     12  C   UNL     1      -5.024  12.656  19.336  0.00  0.00    +0.000 A 
ATOM     13  C   UNL     1      -5.611  12.354  18.109  0.00  0.00    +0.000 A 
ATOM     14 BR   UNL     1      -7.381  12.913  17.751  0.00  0.00    +0.000 Br
ATOM     15  C   UNL     1      -4.900  11.648  17.143  0.00  0.00    +0.000 A 
ATOM     16  C   UNL     1      -3.589  11.241  17.410  0.00  0.00    +0.000 A 
ENDBRANCH   7  10
ENDBRANCH   2   5
BRANCH   1  18
ATOM     17  C   UNL     1       3.237   6.808  18.382  0.00  0.00    +0.000 C 
ATOM     18  N   UNL     1       2.809   7.830  17.715  0.00  0.00    +0.000 NA
BRANCH  17  21
ATOM     19  C   UNL     1       6.101   5.446  16.276  0.00  0.00    +0.000 A 
ATOM     20  C   UNL     1       4.917   6.102  16.651  0.00  0.00    +0.000 A 
ATOM     21  C   UNL     1       4.492   6.122  17.987  0.00  0.00    +0.000 A 
ATOM     22  C   UNL     1       5.258   5.486  18.965  0.00  0.00    +0.000 A 
ATOM     23  C   UNL     1       6.436   4.829  18.602  0.00  0.00    +0.000 A 
ATOM     24  C   UNL     1       6.855   4.806  17.266  0.00  0.00    +0.000 A 
BRANCH  19  26
ATOM     25  C   UNL     1       6.127   4.381  14.127  0.00  0.00    +0.000 C 
ATOM     26  O   UNL     1       6.361   5.529  14.934  0.00  0.00    +0.000 OA
ENDBRANCH  19  26
BRANCH  24  27
ATOM     27  O   UNL     1       8.012   4.141  16.964  0.00  0.00    +0.000 OA
ATOM     28  H   UNL     1       7.968   3.235  17.306  0.00  0.00    +0.000 HD
ENDBRANCH  24  27
ENDBRANCH  17  21
ENDBRANCH   1  18
TORSDOF 6
ENDMDL
MODEL 3
REMARK VINA RESULT:      -7.5      4.347     11.127
REMARK  Name = 
REMARK  7 active torsions:
REMARK  status: ('A' for Active; 'I' for Inactive)
REMARK    1  A    between atoms: C_1  and  O_2
REMARK    2  A    between atoms: O_2  and  C_3
REMARK    3  A    between atoms: C_5  and  C_6
REMARK    4  A    between atoms: N_7  and  N_8
REMARK    5  A    between atoms: C_9  and  C_11
REMARK    6  A    between atoms: C_13  and  C_14
REMARK    7  A    between atoms: C_25  and  O_26
REMARK                            x       y       z     vdW  Elec       q    Type
REMARK                         _______ _______ _______ _____ _____    ______ ____
ROOT
ATOM      1  N   UNL     1       0.849   9.910  21.705  0.00  0.00    +0.000 N 
ATOM      2  C   UNL     1       0.816   9.684  20.328  0.00  0.00    +0.000 C 
ATOM      3  O   UNL     1       0.260  10.455  19.544  0.00  0.00    +0.000 OA
ATOM      4  H   UNL     1       1.319   9.258  22.323  0.00  0.00    +0.000 HD
ENDROOT
BRANCH   2   5
ATOM      5  C   UNL     1       1.478   8.476  19.879  0.00  0.00    +0.000 A 
ATOM      6  N   UNL     1       2.127   8.253  18.752  0.00  0.00    +0.000 NA
ATOM      7  C   UNL     1       2.573   6.949  18.929  0.00  0.00    +0.000 A 
ATOM      8  N   UNL     1       2.191   6.397  20.092  0.00  0.00    +0.000 NA
ATOM      9  O   UNL     1       1.474   7.403  20.721  0.00  0.00    +0.000 OA
BRANCH   7  10
ATOM     10  C   UNL     1       3.417   6.249  17.963  0.00  0.00    +0.000 A 
ATOM     11  C   UNL     1       4.328   6.957  17.168  0.00  0.00    +0.000 A 
ATOM     12  C   UNL     1       5.162   6.284  16.267  0.00  0.00    +0.000 A 
ATOM     13  C   UNL     1       5.084   4.898  16.151  0.00  0.00    +0.000 A 
ATOM     14 BR   UNL     1       6.214   3.991  14.937  0.00  0.00    +0.000 Br
ATOM     15  C   UNL     1       4.183   4.176  16.928  0.00  0.00    +0.000 A 
ATOM     16  C   UNL     1       3.352   4.850  17.829  0.00  0.00    +0.000 A 
ENDBRANCH   7  10
ENDBRANCH   2   5
BRANCH   1  18
ATOM     17  C   UNL     1      -1.008  10.925  22.571  0.00  0.00    +0.000 C 
ATOM     18  N   UNL     1       0.225  11.025  22.194  0.00  0.00    +0.000 NA
BRANCH  17  21
ATOM     19  C   UNL     1      -3.739  13.118  24.063  0.00  0.00    +0.000 A 
ATOM     20  C   UNL     1      -3.053  12.000  23.559  0.00  0.00    +0.000 A 
ATOM     21  C   UNL     1      -1.730  12.105  23.110  0.00  0.00    +0.000 A 
ATOM     22  C   UNL     1      -1.075  13.336  23.167  0.00  0.00    +0.000 A 
ATOM     23  C   UNL     1      -1.749  14.454  23.666  0.00  0.00    +0.000 A 
ATOM     24  C   UNL     1      -3.073  14.348  24.108  0.00  0.00    +0.000 A 
BRANCH  19  26
ATOM     25  C   UNL     1      -6.072  13.017  23.517  0.00  0.00    +0.000 C 
ATOM     26  O   UNL     1      -5.020  12.833  24.455  0.00  0.00    +0.000 OA
ENDBRANCH  19  26
BRANCH  24  27
ATOM     27  O   UNL     1      -3.688  15.476  24.578  0.00  0.00    +0.000 OA
ATOM     28  H   UNL     1      -3.656  15.487  25.548  0.00  0.00    +0.000 HD
ENDBRANCH  24  27
ENDBRANCH  17  21
ENDBRANCH   1  18
TORSDOF 6
ENDMDL
MODEL 4
REMARK VINA RESULT:      -7.4      1.468      1.628
REMARK  Name = 
REMARK  7 active torsions:
REMARK  status: ('A' for Active; 'I' for Inactive)
REMARK    1  A    between atoms: C_1  and  O_2
REMARK    2  A    between atoms: O_2  and  C_3
REMARK    3  A    between atoms: C_5  and  C_6
REMARK    4  A    between atoms: N_7  and  N_8
REMARK    5  A    between atoms: C_9  and  C_11
REMARK    6  A    between atoms: C_13  and  C_14
REMARK    7  A    between atoms: C_25  and  O_26
REMARK                            x       y       z     vdW  Elec       q    Type
REMARK                         _______ _______ _______ _____ _____    ______ ____
ROOT
ATOM      1  N   UNL     1       1.358   8.648  19.930  0.00  0.00    +0.000 N 
ATOM      2  C   UNL     1       1.181   9.966  19.505  0.00  0.00    +0.000 C 
ATOM      3  O   UNL     1       1.667  10.393  18.456  0.00  0.00    +0.000 OA
ATOM      4  H   UNL     1       0.942   8.326  20.796  0.00  0.00    +0.000 HD
ENDROOT
BRANCH   2   5
ATOM      5  C   UNL     1       0.391  10.803  20.384  0.00  0.00    +0.000 A 
ATOM      6  N   UNL     1      -0.921  10.935  20.451  0.00  0.00    +0.000 NA
ATOM      7  C   UNL     1      -1.068  11.823  21.509  0.00  0.00    +0.000 A 
ATOM      8  N   UNL     1       0.095  12.232  22.041  0.00  0.00    +0.000 NA
ATOM      9  O   UNL     1       1.056  11.557  21.305  0.00  0.00    +0.000 OA
BRANCH   7  10
ATOM     10  C   UNL     1      -2.366  12.244  22.031  0.00  0.00    +0.000 A 
ATOM     11  C   UNL     1      -2.663  12.113  23.394  0.00  0.00    +0.000 A 
ATOM     12  C   UNL     1      -3.893  12.547  23.901  0.00  0.00    +0.000 A 
ATOM     13  C   UNL     1      -4.838  13.110  23.045  0.00  0.00    +0.000 A 
ATOM     14 BR   UNL     1      -6.496  13.700  23.732  0.00  0.00    +0.000 Br
ATOM     15  C   UNL     1      -4.565  13.245  21.687  0.00  0.00    +0.000 A 
ATOM     16  C   UNL     1      -3.334  12.813  21.183  0.00  0.00    +0.000 A 
ENDBRANCH   7  10
ENDBRANCH   2   5
BRANCH   1  18
ATOM     17  C   UNL     1       2.498   6.685  19.654  0.00  0.00    +0.000 C 
ATOM     18  N   UNL     1       2.111   7.812  19.151  0.00  0.00    +0.000 NA
BRANCH  17  21
ATOM     19  C   UNL     1       5.446   4.646  18.372  0.00  0.00    +0.000 A 
ATOM     20  C   UNL     1       4.671   5.533  19.137  0.00  0.00    +0.000 A 
ATOM     21  C   UNL     1       3.315   5.741  18.850  0.00  0.00    +0.000 A 
ATOM     22  C   UNL     1       2.718   5.055  17.792  0.00  0.00    +0.000 A 
ATOM     23  C   UNL     1       3.481   4.171  17.024  0.00  0.00    +0.000 A 
ATOM     24  C   UNL     1       4.837   3.969  17.309  0.00  0.00    +0.000 A 
BRANCH  19  26
ATOM     25  C   UNL     1       7.437   5.771  19.093  0.00  0.00    +0.000 C 
ATOM     26  O   UNL     1       6.747   4.565  18.793  0.00  0.00    +0.000 OA
ENDBRANCH  19  26
BRANCH  24  27
ATOM     27  O   UNL     1       5.539   3.100  16.520  0.00  0.00    +0.000 OA
ATOM     28  H   UNL     1       5.349   2.187  16.789  0.00  0.00    +0.000 HD
ENDBRANCH  24  27
ENDBRANCH  17  21
ENDBRANCH   1  18
TORSDOF 6
ENDMDL
MODEL 5
REMARK VINA RESULT:      -7.4      1.549      1.621
REMARK  Name = 
REMARK  7 active torsions:
REMARK  status: ('A' for Active; 'I' for Inactive)
REMARK    1  A    between atoms: C_1  and  O_2
REMARK    2  A    between atoms: O_2  and  C_3
REMARK    3  A    between atoms: C_5  and  C_6
REMARK    4  A    between atoms: N_7  and  N_8
REMARK    5  A    between atoms: C_9  and  C_11
REMARK    6  A    between atoms: C_13  and  C_14
REMARK    7  A    between atoms: C_25  and  O_26
REMARK                            x       y       z     vdW  Elec       q    Type
REMARK                         _______ _______ _______ _____ _____    ______ ____
ROOT
ATOM      1  N   UNL     1       1.241   7.680  21.263  0.00  0.00    +0.000 N 
ATOM      2  C   UNL     1       0.955   8.875  20.600  0.00  0.00    +0.000 C 
ATOM      3  O   UNL     1       1.299   9.083  19.436  0.00  0.00    +0.000 OA
ATOM      4  H   UNL     1       0.941   7.538  22.221  0.00  0.00    +0.000 HD
ENDROOT
BRANCH   2   5
ATOM      5  C   UNL     1       0.231   9.860  21.376  0.00  0.00    +0.000 A 
ATOM      6  N   UNL     1      -0.691  10.717  20.980  0.00  0.00    +0.000 NA
ATOM      7  C   UNL     1      -1.037  11.341  22.172  0.00  0.00    +0.000 A 
ATOM      8  N   UNL     1      -0.342  10.905  23.235  0.00  0.00    +0.000 NA
ATOM      9  O   UNL     1       0.491   9.926  22.713  0.00  0.00    +0.000 OA
BRANCH   7  10
ATOM     10  C   UNL     1      -2.090  12.348  22.278  0.00  0.00    +0.000 A 
ATOM     11  C   UNL     1      -2.856  12.458  23.447  0.00  0.00    +0.000 A 
ATOM     12  C   UNL     1      -3.843  13.445  23.561  0.00  0.00    +0.000 A 
ATOM     13  C   UNL     1      -4.074  14.323  22.505  0.00  0.00    +0.000 A 
ATOM     14 BR   UNL     1      -5.403  15.657  22.664  0.00  0.00    +0.000 Br
ATOM     15  C   UNL     1      -3.327  14.227  21.334  0.00  0.00    +0.000 A 
ATOM     16  C   UNL     1      -2.341  13.243  21.222  0.00  0.00    +0.000 A 
ENDBRANCH   7  10
ENDBRANCH   2   5
BRANCH   1  18
ATOM     17  C   UNL     1       1.565   5.485  20.711  0.00  0.00    +0.000 C 
ATOM     18  N   UNL     1       1.940   6.716  20.589  0.00  0.00    +0.000 NA
BRANCH  17  21
ATOM     19  C   UNL     1       4.350   3.470  19.075  0.00  0.00    +0.000 A 
ATOM     20  C   UNL     1       3.666   4.491  19.755  0.00  0.00    +0.000 A 
ATOM     21  C   UNL     1       2.289   4.402  19.999  0.00  0.00    +0.000 A 
ATOM     22  C   UNL     1       1.581   3.280  19.565  0.00  0.00    +0.000 A 
ATOM     23  C   UNL     1       2.251   2.259  18.887  0.00  0.00    +0.000 A 
ATOM     24  C   UNL     1       3.626   2.353  18.639  0.00  0.00    +0.000 A 
BRANCH  19  26
ATOM     25  C   UNL     1       6.088   5.013  18.484  0.00  0.00    +0.000 C 
ATOM     26  O   UNL     1       5.688   3.723  18.927  0.00  0.00    +0.000 OA
ENDBRANCH  19  26
BRANCH  24  27
ATOM     27  O   UNL     1       4.231   1.330  17.963  0.00  0.00    +0.000 OA
ATOM     28  H   UNL     1       3.656   0.549  17.968  0.00  0.00    +0.000 HD
ENDBRANCH  24  27
ENDBRANCH  17  21
ENDBRANCH   1  18
TORSDOF 6
ENDMDL
MODEL 6
REMARK VINA RESULT:      -7.3      1.782      2.144
REMARK  Name = 
REMARK  7 active torsions:
REMARK  status: ('A' for Active; 'I' for Inactive)
REMARK    1  A    between atoms: C_1  and  O_2
REMARK    2  A    between atoms: O_2  and  C_3
REMARK    3  A    between atoms: C_5  and  C_6
REMARK    4  A    between atoms: N_7  and  N_8
REMARK    5  A    between atoms: C_9  and  C_11
REMARK    6  A    between atoms: C_13  and  C_14
REMARK    7  A    between atoms: C_25  and  O_26
REMARK                            x       y       z     vdW  Elec       q    Type
REMARK                         _______ _______ _______ _____ _____    ______ ____
ROOT
ATOM      1  N   UNL     1       1.037   8.977  20.338  0.00  0.00    +0.000 N 
ATOM      2  C   UNL     1       0.844  10.320  20.009  0.00  0.00    +0.000 C 
ATOM      3  O   UNL     1       1.374  10.844  19.029  0.00  0.00    +0.000 OA
ATOM      4  H   UNL     1       0.583   8.574  21.149  0.00  0.00    +0.000 HD
ENDROOT
BRANCH   2   5
ATOM      5  C   UNL     1      -0.022  11.061  20.904  0.00  0.00    +0.000 A 
ATOM      6  N   UNL     1      -1.335  11.191  20.874  0.00  0.00    +0.000 NA
ATOM      7  C   UNL     1      -1.575  11.960  22.005  0.00  0.00    +0.000 A 
ATOM      8  N   UNL     1      -0.463  12.304  22.674  0.00  0.00    +0.000 NA
ATOM      9  O   UNL     1       0.560  11.709  21.953  0.00  0.00    +0.000 OA
BRANCH   7  10
ATOM     10  C   UNL     1      -2.915  12.329  22.458  0.00  0.00    +0.000 A 
ATOM     11  C   UNL     1      -3.252  12.259  23.816  0.00  0.00    +0.000 A 
ATOM     12  C   UNL     1      -4.524  12.644  24.255  0.00  0.00    +0.000 A 
ATOM     13  C   UNL     1      -5.470  13.096  23.337  0.00  0.00    +0.000 A 
ATOM     14 BR   UNL     1      -7.185  13.619  23.933  0.00  0.00    +0.000 Br
ATOM     15  C   UNL     1      -5.156  13.168  21.983  0.00  0.00    +0.000 A 
ATOM     16  C   UNL     1      -3.884  12.785  21.546  0.00  0.00    +0.000 A 
ENDBRANCH   7  10
ENDBRANCH   2   5
BRANCH   1  18
ATOM     17  C   UNL     1       2.293   7.097  19.995  0.00  0.00    +0.000 C 
ATOM     18  N   UNL     1       1.860   8.227  19.542  0.00  0.00    +0.000 NA
BRANCH  17  21
ATOM     19  C   UNL     1       4.640   4.296  18.927  0.00  0.00    +0.000 A 
ATOM     20  C   UNL     1       3.789   5.098  19.705  0.00  0.00    +0.000 A 
ATOM     21  C   UNL     1       3.186   6.245  19.170  0.00  0.00    +0.000 A 
ATOM     22  C   UNL     1       3.428   6.598  17.842  0.00  0.00    +0.000 A 
ATOM     23  C   UNL     1       4.274   5.808  17.059  0.00  0.00    +0.000 A 
ATOM     24  C   UNL     1       4.880   4.666  17.598  0.00  0.00    +0.000 A 
BRANCH  19  26
ATOM     25  C   UNL     1       4.236   2.197  20.014  0.00  0.00    +0.000 C 
ATOM     26  O   UNL     1       5.139   3.219  19.609  0.00  0.00    +0.000 OA
ENDBRANCH  19  26
BRANCH  24  27
ATOM     27  O   UNL     1       5.705   3.933  16.791  0.00  0.00    +0.000 OA
ATOM     28  H   UNL     1       5.370   3.946  15.880  0.00  0.00    +0.000 HD
ENDBRANCH  24  27
ENDBRANCH  17  21
ENDBRANCH   1  18
TORSDOF 6
ENDMDL
MODEL 7
REMARK VINA RESULT:      -7.3      7.829     10.836
REMARK  Name = 
REMARK  7 active torsions:
REMARK  status: ('A' for Active; 'I' for Inactive)
REMARK    1  A    between atoms: C_1  and  O_2
REMARK    2  A    between atoms: O_2  and  C_3
REMARK    3  A    between atoms: C_5  and  C_6
REMARK    4  A    between atoms: N_7  and  N_8
REMARK    5  A    between atoms: C_9  and  C_11
REMARK    6  A    between atoms: C_13  and  C_14
REMARK    7  A    between atoms: C_25  and  O_26
REMARK                            x       y       z     vdW  Elec       q    Type
REMARK                         _______ _______ _______ _____ _____    ______ ____
ROOT
ATOM      1  N   UNL     1       8.180   8.975  18.473  0.00  0.00    +0.000 N 
ATOM      2  C   UNL     1       7.982   7.847  17.675  0.00  0.00    +0.000 C 
ATOM      3  O   UNL     1       8.451   7.750  16.540  0.00  0.00    +0.000 OA
ATOM      4  H   UNL     1       7.784   9.024  19.405  0.00  0.00    +0.000 HD
ENDROOT
BRANCH   2   5
ATOM      5  C   UNL     1       7.182   6.797  18.270  0.00  0.00    +0.000 A 
ATOM      6  N   UNL     1       5.941   6.440  17.996  0.00  0.00    +0.000 NA
ATOM      7  C   UNL     1       5.757   5.356  18.845  0.00  0.00    +0.000 A 
ATOM      8  N   UNL     1       6.822   5.084  19.616  0.00  0.00    +0.000 NA
ATOM      9  O   UNL     1       7.762   6.029  19.236  0.00  0.00    +0.000 OA
BRANCH   7  10
ATOM     10  C   UNL     1       4.537   4.552  18.872  0.00  0.00    +0.000 A 
ATOM     11  C   UNL     1       4.490   3.354  19.597  0.00  0.00    +0.000 A 
ATOM     12  C   UNL     1       3.311   2.600  19.651  0.00  0.00    +0.000 A 
ATOM     13  C   UNL     1       2.175   3.037  18.974  0.00  0.00    +0.000 A 
ATOM     14 BR   UNL     1       0.584   2.020  19.052  0.00  0.00    +0.000 Br
ATOM     15  C   UNL     1       2.203   4.222  18.244  0.00  0.00    +0.000 A 
ATOM     16  C   UNL     1       3.380   4.975  18.193  0.00  0.00    +0.000 A 
ENDBRANCH   7  10
ENDBRANCH   2   5
BRANCH   1  18
ATOM     17  C   UNL     1       9.200  11.005  18.736  0.00  0.00    +0.000 C 
ATOM     18  N   UNL     1       8.912  10.011  17.960  0.00  0.00    +0.000 NA
BRANCH  17  21
ATOM     19  C   UNL     1      10.274  14.553  17.869  0.00  0.00    +0.000 A 
ATOM     20  C   UNL     1       9.527  13.468  18.355  0.00  0.00    +0.000 A 
ATOM     21  C   UNL     1       9.994  12.152  18.228  0.00  0.00    +0.000 A 
ATOM     22  C   UNL     1      11.223  11.911  17.614  0.00  0.00    +0.000 A 
ATOM     23  C   UNL     1      11.974  12.983  17.126  0.00  0.00    +0.000 A 
ATOM     24  C   UNL     1      11.503  14.296  17.248  0.00  0.00    +0.000 A 
BRANCH  19  26
ATOM     25  C   UNL     1       8.273  15.874  17.823  0.00  0.00    +0.000 C 
ATOM     26  O   UNL     1       9.667  15.763  18.079  0.00  0.00    +0.000 OA
ENDBRANCH  19  26
BRANCH  24  27
ATOM     27  O   UNL     1      12.273  15.308  16.745  0.00  0.00    +0.000 OA
ATOM     28  H   UNL     1      12.358  16.015  17.405  0.00  0.00    +0.000 HD
ENDBRANCH  24  27
ENDBRANCH  17  21
ENDBRANCH   1  18
TORSDOF 6
ENDMDL
MODEL 8
REMARK VINA RESULT:      -7.3      4.354     10.927
REMARK  Name = 
REMARK  7 active torsions:
REMARK  status: ('A' for Active; 'I' for Inactive)
REMARK    1  A    between atoms: C_1  and  O_2
REMARK    2  A    between atoms: O_2  and  C_3
REMARK    3  A    between atoms: C_5  and  C_6
REMARK    4  A    between atoms: N_7  and  N_8
REMARK    5  A    between atoms: C_9  and  C_11
REMARK    6  A    between atoms: C_13  and  C_14
REMARK    7  A    between atoms: C_25  and  O_26
REMARK                            x       y       z     vdW  Elec       q    Type
REMARK                         _______ _______ _______ _____ _____    ______ ____
ROOT
ATOM      1  N   UNL     1       0.711  10.059  21.574  0.00  0.00    +0.000 N 
ATOM      2  C   UNL     1       0.736   9.814  20.200  0.00  0.00    +0.000 C 
ATOM      3  O   UNL     1       0.193  10.561  19.385  0.00  0.00    +0.000 OA
ATOM      4  H   UNL     1       1.171   9.426  22.219  0.00  0.00    +0.000 HD
ENDROOT
BRANCH   2   5
ATOM      5  C   UNL     1       1.440   8.614  19.795  0.00  0.00    +0.000 A 
ATOM      6  N   UNL     1       2.051   8.353  18.655  0.00  0.00    +0.000 NA
ATOM      7  C   UNL     1       2.571   7.086  18.889  0.00  0.00    +0.000 A 
ATOM      8  N   UNL     1       2.268   6.590  20.099  0.00  0.00    +0.000 NA
ATOM      9  O   UNL     1       1.527   7.597  20.699  0.00  0.00    +0.000 OA
BRANCH   7  10
ATOM     10  C   UNL     1       3.408   6.370  17.930  0.00  0.00    +0.000 A 
ATOM     11  C   UNL     1       4.319   7.064  17.122  0.00  0.00    +0.000 A 
ATOM     12  C   UNL     1       5.146   6.376  16.226  0.00  0.00    +0.000 A 
ATOM     13  C   UNL     1       5.063   4.988  16.129  0.00  0.00    +0.000 A 
ATOM     14 BR   UNL     1       6.184   4.061  14.923  0.00  0.00    +0.000 Br
ATOM     15  C   UNL     1       4.162   4.281  16.920  0.00  0.00    +0.000 A 
ATOM     16  C   UNL     1       3.338   4.970  17.815  0.00  0.00    +0.000 A 
ENDBRANCH   7  10
ENDBRANCH   2   5
BRANCH   1  18
ATOM     17  C   UNL     1      -1.034  10.999  22.714  0.00  0.00    +0.000 C 
ATOM     18  N   UNL     1       0.045  11.167  22.023  0.00  0.00    +0.000 NA
BRANCH  17  21
ATOM     19  C   UNL     1      -1.911  14.539  23.806  0.00  0.00    +0.000 A 
ATOM     20  C   UNL     1      -1.196  13.434  23.316  0.00  0.00    +0.000 A 
ATOM     21  C   UNL     1      -1.793  12.168  23.225  0.00  0.00    +0.000 A 
ATOM     22  C   UNL     1      -3.119  11.999  23.623  0.00  0.00    +0.000 A 
ATOM     23  C   UNL     1      -3.839  13.091  24.114  0.00  0.00    +0.000 A 
ATOM     24  C   UNL     1      -3.239  14.353  24.209  0.00  0.00    +0.000 A 
BRANCH  19  26
ATOM     25  C   UNL     1      -0.058  15.796  22.949  0.00  0.00    +0.000 C 
ATOM     26  O   UNL     1      -1.174  15.693  23.823  0.00  0.00    +0.000 OA
ENDBRANCH  19  26
BRANCH  24  27
ATOM     27  O   UNL     1      -3.986  15.387  24.705  0.00  0.00    +0.000 OA
ATOM     28  H   UNL     1      -4.737  15.560  24.116  0.00  0.00    +0.000 HD
ENDBRANCH  24  27
ENDBRANCH  17  21
ENDBRANCH   1  18
TORSDOF 6
ENDMDL
MODEL 9
REMARK VINA RESULT:      -7.3      1.844      2.299
REMARK  Name = 
REMARK  7 active torsions:
REMARK  status: ('A' for Active; 'I' for Inactive)
REMARK    1  A    between atoms: C_1  and  O_2
REMARK    2  A    between atoms: O_2  and  C_3
REMARK    3  A    between atoms: C_5  and  C_6
REMARK    4  A    between atoms: N_7  and  N_8
REMARK    5  A    between atoms: C_9  and  C_11
REMARK    6  A    between atoms: C_13  and  C_14
REMARK    7  A    between atoms: C_25  and  O_26
REMARK                            x       y       z     vdW  Elec       q    Type
REMARK                         _______ _______ _______ _____ _____    ______ ____
ROOT
ATOM      1  N   UNL     1       0.930   9.024  20.486  0.00  0.00    +0.000 N 
ATOM      2  C   UNL     1       0.997   9.662  21.726  0.00  0.00    +0.000 C 
ATOM      3  O   UNL     1       1.826   9.354  22.584  0.00  0.00    +0.000 OA
ATOM      4  H   UNL     1       0.239   9.303  19.800  0.00  0.00    +0.000 HD
ENDROOT
BRANCH   2   5
ATOM      5  C   UNL     1       0.021  10.710  21.940  0.00  0.00    +0.000 A 
ATOM      6  N   UNL     1      -1.272  10.604  22.188  0.00  0.00    +0.000 NA
ATOM      7  C   UNL     1      -1.644  11.933  22.348  0.00  0.00    +0.000 A 
ATOM      8  N   UNL     1      -0.636  12.804  22.180  0.00  0.00    +0.000 NA
ATOM      9  O   UNL     1       0.462  12.000  21.916  0.00  0.00    +0.000 OA
BRANCH   7  10
ATOM     10  C   UNL     1      -2.996  12.352  22.711  0.00  0.00    +0.000 A 
ATOM     11  C   UNL     1      -3.429  12.286  24.043  0.00  0.00    +0.000 A 
ATOM     12  C   UNL     1      -4.713  12.718  24.397  0.00  0.00    +0.000 A 
ATOM     13  C   UNL     1      -5.574  13.214  23.419  0.00  0.00    +0.000 A 
ATOM     14 BR   UNL     1      -7.304  13.801  23.901  0.00  0.00    +0.000 Br
ATOM     15  C   UNL     1      -5.164  13.284  22.091  0.00  0.00    +0.000 A 
ATOM     16  C   UNL     1      -3.881  12.853  21.739  0.00  0.00    +0.000 A 
ENDBRANCH   7  10
ENDBRANCH   2   5
BRANCH   1  18
ATOM     17  C   UNL     1       1.452   6.798  20.489  0.00  0.00    +0.000 C 
ATOM     18  N   UNL     1       1.814   8.011  20.230  0.00  0.00    +0.000 NA
BRANCH  17  21
ATOM     19  C   UNL     1       4.425   4.772  19.245  0.00  0.00    +0.000 A 
ATOM     20  C   UNL     1       3.557   5.846  19.500  0.00  0.00    +0.000 A 
ATOM     21  C   UNL     1       2.373   5.663  20.226  0.00  0.00    +0.000 A 
ATOM     22  C   UNL     1       2.048   4.396  20.711  0.00  0.00    +0.000 A 
ATOM     23  C   UNL     1       2.903   3.320  20.462  0.00  0.00    +0.000 A 
ATOM     24  C   UNL     1       4.084   3.504  19.731  0.00  0.00    +0.000 A 
BRANCH  19  26
ATOM     25  C   UNL     1       6.730   5.434  19.228  0.00  0.00    +0.000 C 
ATOM     26  O   UNL     1       5.533   5.132  18.524  0.00  0.00    +0.000 OA
ENDBRANCH  19  26
BRANCH  24  27
ATOM     27  O   UNL     1       4.881   2.415  19.509  0.00  0.00    +0.000 OA
ATOM     28  H   UNL     1       5.655   2.451  20.093  0.00  0.00    +0.000 HD
ENDBRANCH  24  27
ENDBRANCH  17  21
ENDBRANCH   1  18
TORSDOF 6
ENDMDL
