MODEL 1
REMARK VINA RESULT:      -8.5      0.000      0.000
REMARK  Name = 
REMARK  7 active torsions:
REMARK  status: ('A' for Active; 'I' for Inactive)
REMARK    1  A    between atoms: C_1  and  C_2
REMARK    2  A    between atoms: C_2  and  C_3
REMARK    3  A    between atoms: C_6  and  C_7
REMARK    4  A    between atoms: C_7  and  N_8
REMARK    5  A    between atoms: C_9  and  C_11
REMARK    6  A    between atoms: C_11  and  C_12
REMARK    7  A    between atoms: C_17  and  C_18
REMARK                            x       y       z     vdW  Elec       q    Type
REMARK                         _______ _______ _______ _____ _____    ______ ____
ROOT
ATOM      1  N   UNL     1       5.212   4.178  17.569  0.00  0.00    +0.000 N 
ATOM      2  C   UNL     1       4.705   4.787  18.700  0.00  0.00    +0.000 C 
ATOM      3  O   UNL     1       5.451   5.404  19.459  0.00  0.00    +0.000 OA
ATOM      4  H   UNL     1       4.622   3.647  16.939  0.00  0.00    +0.000 HD
ENDROOT
BRANCH   2   5
ATOM      5  C   UNL     1       3.179   4.668  18.944  0.00  0.00    +0.000 C 
ATOM      6  C   UNL     1       2.532   3.940  17.727  0.00  0.00    +0.000 C 
ATOM      7  C   UNL     1       1.258   3.282  18.255  0.00  0.00    +0.000 C 
ATOM      8  C   UNL     1       1.536   2.984  19.717  0.00  0.00    +0.000 C 
ATOM      9  C   UNL     1       2.913   3.570  20.012  0.00  0.00    +0.000 C 
BRANCH   5  10
ATOM     10  C   UNL     1       2.552   6.034  19.345  0.00  0.00    +0.000 A 
ATOM     11  C   UNL     1       1.853   6.149  20.572  0.00  0.00    +0.000 A 
ATOM     12  C   UNL     1       1.289   7.351  21.013  0.00  0.00    +0.000 A 
ATOM     13  C   UNL     1       1.387   8.487  20.235  0.00  0.00    +0.000 A 
ATOM     14  C   UNL     1       2.046   8.415  19.014  0.00  0.00    +0.000 A 
ATOM     15  C   UNL     1       2.635   7.214  18.552  0.00  0.00    +0.000 A 
ATOM     16  C   UNL     1       3.266   7.299  17.184  0.00  0.00    +0.000 C 
ENDBRANCH   5  10
ENDBRANCH   2   5
BRANCH   1  17
ATOM     17  C   UNL     1       6.634   4.275  17.282  0.00  0.00    +0.000 C 
BRANCH  17  21
ATOM     18  C   UNL     1       6.790   4.317  13.750  0.00  0.00    +0.000 A 
ATOM     19  N   UNL     1       7.526   5.390  13.948  0.00  0.00    +0.000 NA
ATOM     20  N   UNL     1       7.603   5.575  15.314  0.00  0.00    +0.000 NA
ATOM     21  C   UNL     1       6.905   4.594  15.860  0.00  0.00    +0.000 A 
ATOM     22  O   UNL     1       6.351   3.755  14.922  0.00  0.00    +0.000 OA
BRANCH  18  24
ATOM     23  C   UNL     1       4.905   3.436  12.404  0.00  0.00    +0.000 C 
ATOM     24  C   UNL     1       6.406   3.653  12.486  0.00  0.00    +0.000 C 
ENDBRANCH  18  24
ENDBRANCH  17  21
ENDBRANCH   1  17
TORSDOF 5
ENDMDL
MODEL 2
REMARK VINA RESULT:      -7.9      1.133      3.025
REMARK  Name = 
REMARK  7 active torsions:
REMARK  status: ('A' for Active; 'I' for Inactive)
REMARK    1  A    between atoms: C_1  and  C_2
REMARK    2  A    between atoms: C_2  and  C_3
REMARK    3  A    between atoms: C_6  and  C_7
REMARK    4  A    between atoms: C_7  and  N_8
REMARK    5  A    between atoms: C_9  and  C_11
REMARK    6  A    between atoms: C_11  and  C_12
REMARK    7  A    between atoms: C_17  and  C_18
REMARK                            x       y       z     vdW  Elec       q    Type
REMARK                         _______ _______ _______ _____ _____    ______ ____
ROOT
ATOM      1  N   UNL     1       5.482   4.938  17.109  0.00  0.00    +0.000 N 
ATOM      2  C   UNL     1       5.056   4.703  18.402  0.00  0.00    +0.000 C 
ATOM      3  O   UNL     1       5.787   4.113  19.196  0.00  0.00    +0.000 OA
ATOM      4  H   UNL     1       4.891   5.403  16.429  0.00  0.00    +0.000 HD
ENDROOT
BRANCH   2   5
ATOM      5  C   UNL     1       3.651   5.229  18.792  0.00  0.00    +0.000 C 
ATOM      6  C   UNL     1       3.806   6.635  19.447  0.00  0.00    +0.000 C 
ATOM      7  C   UNL     1       2.481   7.359  19.213  0.00  0.00    +0.000 C 
ATOM      8  C   UNL     1       1.930   6.782  17.921  0.00  0.00    +0.000 C 
ATOM      9  C   UNL     1       2.896   5.676  17.508  0.00  0.00    +0.000 C 
BRANCH   5  10
ATOM     10  C   UNL     1       2.846   4.173  19.602  0.00  0.00    +0.000 A 
ATOM     11  C   UNL     1       2.646   4.363  20.992  0.00  0.00    +0.000 A 
ATOM     12  C   UNL     1       1.908   3.473  21.779  0.00  0.00    +0.000 A 
ATOM     13  C   UNL     1       1.352   2.344  21.211  0.00  0.00    +0.000 A 
ATOM     14  C   UNL     1       1.541   2.107  19.855  0.00  0.00    +0.000 A 
ATOM     15  C   UNL     1       2.273   2.999  19.035  0.00  0.00    +0.000 A 
ATOM     16  C   UNL     1       2.423   2.566  17.597  0.00  0.00    +0.000 C 
ENDBRANCH   5  10
ENDBRANCH   2   5
BRANCH   1  17
ATOM     17  C   UNL     1       6.799   4.484  16.696  0.00  0.00    +0.000 C 
BRANCH  17  21
ATOM     18  C   UNL     1       6.805   4.140  13.178  0.00  0.00    +0.000 A 
ATOM     19  N   UNL     1       7.590   5.196  13.230  0.00  0.00    +0.000 NA
ATOM     20  N   UNL     1       7.732   5.523  14.563  0.00  0.00    +0.000 NA
ATOM     21  C   UNL     1       7.021   4.637  15.239  0.00  0.00    +0.000 A 
ATOM     22  O   UNL     1       6.396   3.726  14.420  0.00  0.00    +0.000 OA
BRANCH  18  24
ATOM     23  C   UNL     1       4.827   3.299  11.945  0.00  0.00    +0.000 C 
ATOM     24  C   UNL     1       6.344   3.361  12.009  0.00  0.00    +0.000 C 
ENDBRANCH  18  24
ENDBRANCH  17  21
ENDBRANCH   1  17
TORSDOF 5
ENDMDL
MODEL 3
REMARK VINA RESULT:      -7.8      3.008      4.099
REMARK  Name = 
REMARK  7 active torsions:
REMARK  status: ('A' for Active; 'I' for Inactive)
REMARK    1  A    between atoms: C_1  and  C_2
REMARK    2  A    between atoms: C_2  and  C_3
REMARK    3  A    between atoms: C_6  and  C_7
REMARK    4  A    between atoms: C_7  and  N_8
REMARK    5  A    between atoms: C_9  and  C_11
REMARK    6  A    between atoms: C_11  and  C_12
REMARK    7  A    between atoms: C_17  and  C_18
REMARK                            x       y       z     vdW  Elec       q    Type
REMARK                         _______ _______ _______ _____ _____    ______ ____
ROOT
ATOM      1  N   UNL     1       6.388   5.251  19.172  0.00  0.00    +0.000 N 
ATOM      2  C   UNL     1       5.759   4.523  18.181  0.00  0.00    +0.000 C 
ATOM      3  O   UNL     1       6.355   4.251  17.139  0.00  0.00    +0.000 OA
ATOM      4  H   UNL     1       5.912   5.506  20.030  0.00  0.00    +0.000 HD
ENDROOT
BRANCH   2   5
ATOM      5  C   UNL     1       4.304   4.064  18.455  0.00  0.00    +0.000 C 
ATOM      6  C   UNL     1       3.771   3.310  17.198  0.00  0.00    +0.000 C 
ATOM      7  C   UNL     1       2.689   2.357  17.703  0.00  0.00    +0.000 C 
ATOM      8  C   UNL     1       3.088   2.013  19.127  0.00  0.00    +0.000 C 
ATOM      9  C   UNL     1       4.323   2.855  19.433  0.00  0.00    +0.000 C 
BRANCH   5  10
ATOM     10  C   UNL     1       3.423   5.229  18.987  0.00  0.00    +0.000 A 
ATOM     11  C   UNL     1       2.690   5.060  20.187  0.00  0.00    +0.000 A 
ATOM     12  C   UNL     1       1.901   6.073  20.743  0.00  0.00    +0.000 A 
ATOM     13  C   UNL     1       1.797   7.295  20.109  0.00  0.00    +0.000 A 
ATOM     14  C   UNL     1       2.483   7.498  18.917  0.00  0.00    +0.000 A 
ATOM     15  C   UNL     1       3.297   6.493  18.342  0.00  0.00    +0.000 A 
ATOM     16  C   UNL     1       3.929   6.862  17.022  0.00  0.00    +0.000 C 
ENDBRANCH   5  10
ENDBRANCH   2   5
BRANCH   1  17
ATOM     17  C   UNL     1       7.759   5.690  18.974  0.00  0.00    +0.000 C 
BRANCH  17  21
ATOM     18  C   UNL     1       8.507   9.049  18.162  0.00  0.00    +0.000 A 
ATOM     19  N   UNL     1       7.678   8.831  17.163  0.00  0.00    +0.000 NA
ATOM     20  N   UNL     1       7.244   7.526  17.282  0.00  0.00    +0.000 NA
ATOM     21  C   UNL     1       7.841   7.034  18.354  0.00  0.00    +0.000 A 
ATOM     22  O   UNL     1       8.667   7.948  18.965  0.00  0.00    +0.000 OA
BRANCH  18  24
ATOM     23  C   UNL     1       9.255  10.488  20.036  0.00  0.00    +0.000 C 
ATOM     24  C   UNL     1       9.241  10.278  18.532  0.00  0.00    +0.000 C 
ENDBRANCH  18  24
ENDBRANCH  17  21
ENDBRANCH   1  17
TORSDOF 5
ENDMDL
MODEL 4
REMARK VINA RESULT:      -7.7      2.243      4.394
REMARK  Name = 
REMARK  7 active torsions:
REMARK  status: ('A' for Active; 'I' for Inactive)
REMARK    1  A    between atoms: C_1  and  C_2
REMARK    2  A    between atoms: C_2  and  C_3
REMARK    3  A    between atoms: C_6  and  C_7
REMARK    4  A    between atoms: C_7  and  N_8
REMARK    5  A    between atoms: C_9  and  C_11
REMARK    6  A    between atoms: C_11  and  C_12
REMARK    7  A    between atoms: C_17  and  C_18
REMARK                            x       y       z     vdW  Elec       q    Type
REMARK                         _______ _______ _______ _____ _____    ______ ____
ROOT
ATOM      1  N   UNL     1       7.076   4.684  14.436  0.00  0.00    +0.000 N 
ATOM      2  C   UNL     1       6.175   5.463  15.135  0.00  0.00    +0.000 C 
ATOM      3  O   UNL     1       5.420   6.226  14.535  0.00  0.00    +0.000 OA
ATOM      4  H   UNL     1       7.723   4.063  14.908  0.00  0.00    +0.000 HD
ENDROOT
BRANCH   2   5
ATOM      5  C   UNL     1       6.154   5.310  16.678  0.00  0.00    +0.000 C 
ATOM      6  C   UNL     1       7.359   4.420  17.109  0.00  0.00    +0.000 C 
ATOM      7  C   UNL     1       7.687   4.818  18.548  0.00  0.00    +0.000 C 
ATOM      8  C   UNL     1       7.275   6.275  18.665  0.00  0.00    +0.000 C 
ATOM      9  C   UNL     1       6.630   6.639  17.331  0.00  0.00    +0.000 C 
BRANCH   5  10
ATOM     10  C   UNL     1       4.754   4.876  17.195  0.00  0.00    +0.000 A 
ATOM     11  C   UNL     1       4.453   3.498  17.328  0.00  0.00    +0.000 A 
ATOM     12  C   UNL     1       3.227   3.033  17.815  0.00  0.00    +0.000 A 
ATOM     13  C   UNL     1       2.240   3.930  18.174  0.00  0.00    +0.000 A 
ATOM     14  C   UNL     1       2.484   5.292  18.040  0.00  0.00    +0.000 A 
ATOM     15  C   UNL     1       3.721   5.787  17.562  0.00  0.00    +0.000 A 
ATOM     16  C   UNL     1       3.800   7.288  17.432  0.00  0.00    +0.000 C 
ENDBRANCH   5  10
ENDBRANCH   2   5
BRANCH   1  17
ATOM     17  C   UNL     1       7.124   4.773  12.986  0.00  0.00    +0.000 C 
BRANCH  17  21
ATOM     18  C   UNL     1       4.606   2.934  11.319  0.00  0.00    +0.000 A 
ATOM     19  N   UNL     1       5.456   1.938  11.459  0.00  0.00    +0.000 NA
ATOM     20  N   UNL     1       6.562   2.446  12.110  0.00  0.00    +0.000 NA
ATOM     21  C   UNL     1       6.309   3.725  12.327  0.00  0.00    +0.000 A 
ATOM     22  O   UNL     1       5.081   4.110  11.843  0.00  0.00    +0.000 OA
BRANCH  18  24
ATOM     23  C   UNL     1       3.055   4.165   9.829  0.00  0.00    +0.000 C 
ATOM     24  C   UNL     1       3.256   2.948  10.716  0.00  0.00    +0.000 C 
ENDBRANCH  18  24
ENDBRANCH  17  21
ENDBRANCH   1  17
TORSDOF 5
ENDMDL
MODEL 5
REMARK VINA RESULT:      -7.7      2.463      3.557
REMARK  Name = 
REMARK  7 active torsions:
REMARK  status: ('A' for Active; 'I' for Inactive)
REMARK    1  A    between atoms: C_1  and  C_2
REMARK    2  A    between atoms: C_2  and  C_3
REMARK    3  A    between atoms: C_6  and  C_7
REMARK    4  A    between atoms: C_7  and  N_8
REMARK    5  A    between atoms: C_9  and  C_11
REMARK    6  A    between atoms: C_11  and  C_12
REMARK    7  A    between atoms: C_17  and  C_18
REMARK                            x       y       z     vdW  Elec       q    Type
REMARK                         _______ _______ _______ _____ _____    ______ ____
ROOT
ATOM      1  N   UNL     1       5.866   4.571  17.820  0.00  0.00    +0.000 N 
ATOM      2  C   UNL     1       5.213   4.535  19.037  0.00  0.00    +0.000 C 
ATOM      3  O   UNL     1       5.833   4.750  20.078  0.00  0.00    +0.000 OA
ATOM      4  H   UNL     1       5.382   4.377  16.950  0.00  0.00    +0.000 HD
ENDROOT
BRANCH   2   5
ATOM      5  C   UNL     1       3.693   4.236  19.017  0.00  0.00    +0.000 C 
ATOM      6  C   UNL     1       3.319   3.633  17.630  0.00  0.00    +0.000 C 
ATOM      7  C   UNL     1       2.068   2.786  17.859  0.00  0.00    +0.000 C 
ATOM      8  C   UNL     1       2.164   2.307  19.297  0.00  0.00    +0.000 C 
ATOM      9  C   UNL     1       3.406   2.975  19.880  0.00  0.00    +0.000 C 
BRANCH   5  10
ATOM     10  C   UNL     1       2.859   5.463  19.485  0.00  0.00    +0.000 A 
ATOM     11  C   UNL     1       2.010   5.342  20.613  0.00  0.00    +0.000 A 
ATOM     12  C   UNL     1       1.254   6.409  21.110  0.00  0.00    +0.000 A 
ATOM     13  C   UNL     1       1.302   7.640  20.487  0.00  0.00    +0.000 A 
ATOM     14  C   UNL     1       2.105   7.798  19.363  0.00  0.00    +0.000 A 
ATOM     15  C   UNL     1       2.888   6.738  18.850  0.00  0.00    +0.000 A 
ATOM     16  C   UNL     1       3.662   7.066  17.596  0.00  0.00    +0.000 C 
ENDBRANCH   5  10
ENDBRANCH   2   5
BRANCH   1  17
ATOM     17  C   UNL     1       7.288   4.866  17.780  0.00  0.00    +0.000 C 
BRANCH  17  21
ATOM     18  C   UNL     1       8.305   8.224  18.212  0.00  0.00    +0.000 A 
ATOM     19  N   UNL     1       7.762   8.381  17.023  0.00  0.00    +0.000 NA
ATOM     20  N   UNL     1       7.280   7.145  16.638  0.00  0.00    +0.000 NA
ATOM     21  C   UNL     1       7.562   6.315  17.627  0.00  0.00    +0.000 A 
ATOM     22  O   UNL     1       8.221   6.932  18.664  0.00  0.00    +0.000 OA
BRANCH  18  24
ATOM     23  C   UNL     1       9.061  10.575  18.420  0.00  0.00    +0.000 C 
ATOM     24  C   UNL     1       8.946   9.220  19.097  0.00  0.00    +0.000 C 
ENDBRANCH  18  24
ENDBRANCH  17  21
ENDBRANCH   1  17
TORSDOF 5
ENDMDL
MODEL 6
REMARK VINA RESULT:      -7.6      2.181      4.343
REMARK  Name = 
REMARK  7 active torsions:
REMARK  status: ('A' for Active; 'I' for Inactive)
REMARK    1  A    between atoms: C_1  and  C_2
REMARK    2  A    between atoms: C_2  and  C_3
REMARK    3  A    between atoms: C_6  and  C_7
REMARK    4  A    between atoms: C_7  and  N_8
REMARK    5  A    between atoms: C_9  and  C_11
REMARK    6  A    between atoms: C_11  and  C_12
REMARK    7  A    between atoms: C_17  and  C_18
REMARK                            x       y       z     vdW  Elec       q    Type
REMARK                         _______ _______ _______ _____ _____    ______ ____
ROOT
ATOM      1  N   UNL     1       7.259   4.969  14.425  0.00  0.00    +0.000 N 
ATOM      2  C   UNL     1       6.304   5.727  15.075  0.00  0.00    +0.000 C 
ATOM      3  O   UNL     1       5.499   6.396  14.428  0.00  0.00    +0.000 OA
ATOM      4  H   UNL     1       7.946   4.426  14.934  0.00  0.00    +0.000 HD
ENDROOT
BRANCH   2   5
ATOM      5  C   UNL     1       6.293   5.675  16.624  0.00  0.00    +0.000 C 
ATOM      6  C   UNL     1       7.167   4.472  17.091  0.00  0.00    +0.000 C 
ATOM      7  C   UNL     1       7.656   4.823  18.495  0.00  0.00    +0.000 C 
ATOM      8  C   UNL     1       7.733   6.340  18.527  0.00  0.00    +0.000 C 
ATOM      9  C   UNL     1       7.189   6.816  17.183  0.00  0.00    +0.000 C 
BRANCH   5  10
ATOM     10  C   UNL     1       4.847   5.740  17.191  0.00  0.00    +0.000 A 
ATOM     11  C   UNL     1       4.300   6.990  17.573  0.00  0.00    +0.000 A 
ATOM     12  C   UNL     1       2.997   7.130  18.062  0.00  0.00    +0.000 A 
ATOM     13  C   UNL     1       2.190   6.020  18.207  0.00  0.00    +0.000 A 
ATOM     14  C   UNL     1       2.692   4.770  17.865  0.00  0.00    +0.000 A 
ATOM     15  C   UNL     1       4.002   4.604  17.356  0.00  0.00    +0.000 A 
ATOM     16  C   UNL     1       4.404   3.176  17.083  0.00  0.00    +0.000 C 
ENDBRANCH   5  10
ENDBRANCH   2   5
BRANCH   1  17
ATOM     17  C   UNL     1       7.301   4.966  12.972  0.00  0.00    +0.000 C 
BRANCH  17  21
ATOM     18  C   UNL     1       4.732   3.032  11.502  0.00  0.00    +0.000 A 
ATOM     19  N   UNL     1       5.618   2.063  11.597  0.00  0.00    +0.000 NA
ATOM     20  N   UNL     1       6.751   2.611  12.165  0.00  0.00    +0.000 NA
ATOM     21  C   UNL     1       6.475   3.886  12.383  0.00  0.00    +0.000 A 
ATOM     22  O   UNL     1       5.207   4.228  11.979  0.00  0.00    +0.000 OA
BRANCH  18  24
ATOM     23  C   UNL     1       3.140   4.002   9.870  0.00  0.00    +0.000 C 
ATOM     24  C   UNL     1       3.345   2.999  10.992  0.00  0.00    +0.000 C 
ENDBRANCH  18  24
ENDBRANCH  17  21
ENDBRANCH   1  17
TORSDOF 5
ENDMDL
MODEL 7
REMARK VINA RESULT:      -7.5      3.840      7.745
REMARK  Name = 
REMARK  7 active torsions:
REMARK  status: ('A' for Active; 'I' for Inactive)
REMARK    1  A    between atoms: C_1  and  C_2
REMARK    2  A    between atoms: C_2  and  C_3
REMARK    3  A    between atoms: C_6  and  C_7
REMARK    4  A    between atoms: C_7  and  N_8
REMARK    5  A    between atoms: C_9  and  C_11
REMARK    6  A    between atoms: C_11  and  C_12
REMARK    7  A    between atoms: C_17  and  C_18
REMARK                            x       y       z     vdW  Elec       q    Type
REMARK                         _______ _______ _______ _____ _____    ______ ____
ROOT
ATOM      1  N   UNL     1       2.131   7.695  19.926  0.00  0.00    +0.000 N 
ATOM      2  C   UNL     1       2.562   7.158  18.728  0.00  0.00    +0.000 C 
ATOM      3  O   UNL     1       2.331   7.741  17.670  0.00  0.00    +0.000 OA
ATOM      4  H   UNL     1       2.291   7.224  20.809  0.00  0.00    +0.000 HD
ENDROOT
BRANCH   2   5
ATOM      5  C   UNL     1       3.350   5.825  18.793  0.00  0.00    +0.000 C 
ATOM      6  C   UNL     1       3.846   5.466  17.359  0.00  0.00    +0.000 C 
ATOM      7  C   UNL     1       5.088   4.596  17.545  0.00  0.00    +0.000 C 
ATOM      8  C   UNL     1       5.701   5.045  18.860  0.00  0.00    +0.000 C 
ATOM      9  C   UNL     1       4.742   6.081  19.439  0.00  0.00    +0.000 C 
BRANCH   5  10
ATOM     10  C   UNL     1       2.554   4.721  19.545  0.00  0.00    +0.000 A 
ATOM     11  C   UNL     1       2.845   4.454  20.906  0.00  0.00    +0.000 A 
ATOM     12  C   UNL     1       2.151   3.498  21.655  0.00  0.00    +0.000 A 
ATOM     13  C   UNL     1       1.145   2.756  21.069  0.00  0.00    +0.000 A 
ATOM     14  C   UNL     1       0.840   2.970  19.730  0.00  0.00    +0.000 A 
ATOM     15  C   UNL     1       1.520   3.940  18.954  0.00  0.00    +0.000 A 
ATOM     16  C   UNL     1       1.099   4.008  17.507  0.00  0.00    +0.000 C 
ENDBRANCH   5  10
ENDBRANCH   2   5
BRANCH   1  17
ATOM     17  C   UNL     1       1.404   8.954  19.924  0.00  0.00    +0.000 C 
BRANCH  17  21
ATOM     18  C   UNL     1      -0.334  10.254  22.715  0.00  0.00    +0.000 A 
ATOM     19  N   UNL     1       0.674   9.741  23.388  0.00  0.00    +0.000 NA
ATOM     20  N   UNL     1       1.514   9.154  22.464  0.00  0.00    +0.000 NA
ATOM     21  C   UNL     1       0.959   9.353  21.281  0.00  0.00    +0.000 A 
ATOM     22  O   UNL     1      -0.227  10.043  21.364  0.00  0.00    +0.000 OA
BRANCH  18  24
ATOM     23  C   UNL     1      -1.351  12.503  22.939  0.00  0.00    +0.000 C 
ATOM     24  C   UNL     1      -1.506  11.014  23.199  0.00  0.00    +0.000 C 
ENDBRANCH  18  24
ENDBRANCH  17  21
ENDBRANCH   1  17
TORSDOF 5
ENDMDL
MODEL 8
REMARK VINA RESULT:      -7.5      0.680      1.547
REMARK  Name = 
REMARK  7 active torsions:
REMARK  status: ('A' for Active; 'I' for Inactive)
REMARK    1  A    between atoms: C_1  and  C_2
REMARK    2  A    between atoms: C_2  and  C_3
REMARK    3  A    between atoms: C_6  and  C_7
REMARK    4  A    between atoms: C_7  and  N_8
REMARK    5  A    between atoms: C_9  and  C_11
REMARK    6  A    between atoms: C_11  and  C_12
REMARK    7  A    between atoms: C_17  and  C_18
REMARK                            x       y       z     vdW  Elec       q    Type
REMARK                         _______ _______ _______ _____ _____    ______ ____
ROOT
ATOM      1  N   UNL     1       5.071   4.676  17.356  0.00  0.00    +0.000 N 
ATOM      2  C   UNL     1       4.518   4.132  18.499  0.00  0.00    +0.000 C 
ATOM      3  O   UNL     1       5.233   3.563  19.323  0.00  0.00    +0.000 OA
ATOM      4  H   UNL     1       4.501   5.131  16.652  0.00  0.00    +0.000 HD
ENDROOT
BRANCH   2   5
ATOM      5  C   UNL     1       2.988   4.290  18.689  0.00  0.00    +0.000 C 
ATOM      6  C   UNL     1       2.258   3.525  17.543  0.00  0.00    +0.000 C 
ATOM      7  C   UNL     1       0.882   3.151  18.092  0.00  0.00    +0.000 C 
ATOM      8  C   UNL     1       1.074   3.001  19.591  0.00  0.00    +0.000 C 
ATOM      9  C   UNL     1       2.522   3.393  19.871  0.00  0.00    +0.000 C 
BRANCH   5  10
ATOM     10  C   UNL     1       2.583   5.778  18.894  0.00  0.00    +0.000 A 
ATOM     11  C   UNL     1       2.590   6.663  17.787  0.00  0.00    +0.000 A 
ATOM     12  C   UNL     1       2.210   8.005  17.889  0.00  0.00    +0.000 A 
ATOM     13  C   UNL     1       1.823   8.524  19.108  0.00  0.00    +0.000 A 
ATOM     14  C   UNL     1       1.821   7.697  20.225  0.00  0.00    +0.000 A 
ATOM     15  C   UNL     1       2.190   6.333  20.145  0.00  0.00    +0.000 A 
ATOM     16  C   UNL     1       2.181   5.592  21.460  0.00  0.00    +0.000 C 
ENDBRANCH   5  10
ENDBRANCH   2   5
BRANCH   1  17
ATOM     17  C   UNL     1       6.504   4.573  17.137  0.00  0.00    +0.000 C 
BRANCH  17  21
ATOM     18  C   UNL     1       6.880   4.320  13.631  0.00  0.00    +0.000 A 
ATOM     19  N   UNL     1       7.647   5.378  13.791  0.00  0.00    +0.000 NA
ATOM     20  N   UNL     1       7.646   5.671  15.140  0.00  0.00    +0.000 NA
ATOM     21  C   UNL     1       6.875   4.765  15.715  0.00  0.00    +0.000 A 
ATOM     22  O   UNL     1       6.347   3.872  14.813  0.00  0.00    +0.000 OA
BRANCH  18  24
ATOM     23  C   UNL     1       5.047   3.477  12.193  0.00  0.00    +0.000 C 
ATOM     24  C   UNL     1       6.549   3.568  12.401  0.00  0.00    +0.000 C 
ENDBRANCH  18  24
ENDBRANCH  17  21
ENDBRANCH   1  17
TORSDOF 5
ENDMDL
MODEL 9
REMARK VINA RESULT:      -7.5      1.227      1.503
REMARK  Name = 
REMARK  7 active torsions:
REMARK  status: ('A' for Active; 'I' for Inactive)
REMARK    1  A    between atoms: C_1  and  C_2
REMARK    2  A    between atoms: C_2  and  C_3
REMARK    3  A    between atoms: C_6  and  C_7
REMARK    4  A    between atoms: C_7  and  N_8
REMARK    5  A    between atoms: C_9  and  C_11
REMARK    6  A    between atoms: C_11  and  C_12
REMARK    7  A    between atoms: C_17  and  C_18
REMARK                            x       y       z     vdW  Elec       q    Type
REMARK                         _______ _______ _______ _____ _____    ______ ____
ROOT
ATOM      1  N   UNL     1       5.137   5.340  19.290  0.00  0.00    +0.000 N 
ATOM      2  C   UNL     1       4.423   4.173  19.476  0.00  0.00    +0.000 C 
ATOM      3  O   UNL     1       4.987   3.082  19.395  0.00  0.00    +0.000 OA
ATOM      4  H   UNL     1       4.692   6.250  19.331  0.00  0.00    +0.000 HD
ENDROOT
BRANCH   2   5
ATOM      5  C   UNL     1       2.914   4.310  19.802  0.00  0.00    +0.000 C 
ATOM      6  C   UNL     1       2.116   3.306  18.915  0.00  0.00    +0.000 C 
ATOM      7  C   UNL     1       0.827   3.000  19.677  0.00  0.00    +0.000 C 
ATOM      8  C   UNL     1       1.180   3.159  21.145  0.00  0.00    +0.000 C 
ATOM      9  C   UNL     1       2.624   3.651  21.180  0.00  0.00    +0.000 C 
BRANCH   5  10
ATOM     10  C   UNL     1       2.448   5.793  19.757  0.00  0.00    +0.000 A 
ATOM     11  C   UNL     1       1.845   6.372  20.901  0.00  0.00    +0.000 A 
ATOM     12  C   UNL     1       1.429   7.707  20.944  0.00  0.00    +0.000 A 
ATOM     13  C   UNL     1       1.583   8.516  19.837  0.00  0.00    +0.000 A 
ATOM     14  C   UNL     1       2.151   7.984  18.685  0.00  0.00    +0.000 A 
ATOM     15  C   UNL     1       2.591   6.641  18.620  0.00  0.00    +0.000 A 
ATOM     16  C   UNL     1       3.137   6.212  17.280  0.00  0.00    +0.000 C 
ENDBRANCH   5  10
ENDBRANCH   2   5
BRANCH   1  17
ATOM     17  C   UNL     1       6.560   5.269  19.002  0.00  0.00    +0.000 C 
BRANCH  17  21
ATOM     18  C   UNL     1       6.760   4.775  15.507  0.00  0.00    +0.000 A 
ATOM     19  N   UNL     1       7.499   5.864  15.550  0.00  0.00    +0.000 NA
ATOM     20  N   UNL     1       7.559   6.254  16.873  0.00  0.00    +0.000 NA
ATOM     21  C   UNL     1       6.850   5.369  17.552  0.00  0.00    +0.000 A 
ATOM     22  O   UNL     1       6.305   4.398  16.744  0.00  0.00    +0.000 OA
BRANCH  18  24
ATOM     23  C   UNL     1       6.988   4.456  13.060  0.00  0.00    +0.000 C 
ATOM     24  C   UNL     1       6.390   3.928  14.353  0.00  0.00    +0.000 C 
ENDBRANCH  18  24
ENDBRANCH  17  21
ENDBRANCH   1  17
TORSDOF 5
ENDMDL
