MODEL 1
REMARK VINA RESULT:      -7.7      0.000      0.000
REMARK  Name = 
REMARK  2 active torsions:
REMARK  status: ('A' for Active; 'I' for Inactive)
REMARK    1  A    between atoms: C_2  and  C_5
REMARK    2  A    between atoms: C_15  and  C_16
REMARK                            x       y       z     vdW  Elec       q    Type
REMARK                         _______ _______ _______ _____ _____    ______ ____
ROOT
ATOM      1  C   UNL     1       2.128   3.990  20.704  0.00  0.00    +0.000 A 
ATOM      2  N   UNL     1       1.528   5.147  20.925  0.00  0.00    +0.000 NA
ATOM      3  N   UNL     1       2.162   6.118  20.183  0.00  0.00    +0.000 NA
ATOM      4  C   UNL     1       3.136   5.541  19.521  0.00  0.00    +0.000 A 
ATOM      5  N   UNL     1       3.148   4.204  19.817  0.00  0.00    +0.000 N 
ATOM      6  C   UNL     1       4.088   3.265  19.236  0.00  0.00    +0.000 C 
ATOM      7  C   UNL     1       5.355   3.986  18.761  0.00  0.00    +0.000 C 
ATOM      8  N   UNL     1       5.007   5.155  17.950  0.00  0.00    +0.000 N 
ATOM      9  C   UNL     1       5.311   5.186  16.622  0.00  0.00    +0.000 A 
ATOM     10  N   UNL     1       5.737   4.151  15.928  0.00  0.00    +0.000 NA
ATOM     11  C   UNL     1       5.966   4.539  14.610  0.00  0.00    +0.000 A 
ATOM     12  N   UNL     1       5.758   5.804  14.252  0.00  0.00    +0.000 NA
ATOM     13  S   UNL     1       5.226   6.598  15.609  0.00  0.00    +0.000 S 
ATOM     14  C   UNL     1       4.122   6.146  18.576  0.00  0.00    +0.000 C 
ENDROOT
BRANCH   1  16
ATOM     15  F   UNL     1       0.761   2.688  22.144  0.00  0.00    +0.000 F 
ATOM     16  C   UNL     1       1.807   2.665  21.284  0.00  0.00    +0.000 C 
ATOM     17  F   UNL     1       2.868   2.154  21.963  0.00  0.00    +0.000 F 
ATOM     18  F   UNL     1       1.506   1.758  20.316  0.00  0.00    +0.000 F 
ENDBRANCH   1  16
BRANCH  11  19
ATOM     19  C   UNL     1       6.457   3.542  13.561  0.00  0.00    +0.000 C 
ATOM     20  C   UNL     1       5.588   3.268  12.350  0.00  0.00    +0.000 C 
ATOM     21  C   UNL     1       6.844   4.053  12.188  0.00  0.00    +0.000 C 
ENDBRANCH  11  19
TORSDOF 2
ENDMDL
MODEL 2
REMARK VINA RESULT:      -7.2      0.731      1.188
REMARK  Name = 
REMARK  2 active torsions:
REMARK  status: ('A' for Active; 'I' for Inactive)
REMARK    1  A    between atoms: C_2  and  C_5
REMARK    2  A    between atoms: C_15  and  C_16
REMARK                            x       y       z     vdW  Elec       q    Type
REMARK                         _______ _______ _______ _____ _____    ______ ____
ROOT
ATOM      1  C   UNL     1       1.905   4.054  20.257  0.00  0.00    +0.000 A 
ATOM      2  N   UNL     1       1.705   5.292  20.674  0.00  0.00    +0.000 NA
ATOM      3  N   UNL     1       2.690   6.097  20.149  0.00  0.00    +0.000 NA
ATOM      4  C   UNL     1       3.475   5.340  19.419  0.00  0.00    +0.000 A 
ATOM      5  N   UNL     1       3.016   4.051  19.457  0.00  0.00    +0.000 N 
ATOM      6  C   UNL     1       3.641   2.958  18.737  0.00  0.00    +0.000 C 
ATOM      7  C   UNL     1       5.113   3.270  18.444  0.00  0.00    +0.000 C 
ATOM      8  N   UNL     1       5.249   4.606  17.859  0.00  0.00    +0.000 N 
ATOM      9  C   UNL     1       5.666   4.753  16.571  0.00  0.00    +0.000 A 
ATOM     10  N   UNL     1       5.787   3.768  15.706  0.00  0.00    +0.000 NA
ATOM     11  C   UNL     1       6.253   4.268  14.493  0.00  0.00    +0.000 A 
ATOM     12  N   UNL     1       6.510   5.570  14.374  0.00  0.00    +0.000 NA
ATOM     13  S   UNL     1       6.148   6.258  15.841  0.00  0.00    +0.000 S 
ATOM     14  C   UNL     1       4.688   5.720  18.635  0.00  0.00    +0.000 C 
ENDROOT
BRANCH   1  16
ATOM     15  F   UNL     1       1.744   1.685  20.258  0.00  0.00    +0.000 F 
ATOM     16  C   UNL     1       1.111   2.842  20.566  0.00  0.00    +0.000 C 
ATOM     17  F   UNL     1      -0.069   2.841  19.890  0.00  0.00    +0.000 F 
ATOM     18  F   UNL     1       0.789   2.780  21.886  0.00  0.00    +0.000 F 
ENDBRANCH   1  16
BRANCH  11  19
ATOM     19  C   UNL     1       6.480   3.355  13.289  0.00  0.00    +0.000 C 
ATOM     20  C   UNL     1       5.464   3.362  12.164  0.00  0.00    +0.000 C 
ATOM     21  C   UNL     1       6.804   3.978  11.946  0.00  0.00    +0.000 C 
ENDBRANCH  11  19
TORSDOF 2
ENDMDL
MODEL 3
REMARK VINA RESULT:      -7.1      2.381      3.654
REMARK  Name = 
REMARK  2 active torsions:
REMARK  status: ('A' for Active; 'I' for Inactive)
REMARK    1  A    between atoms: C_2  and  C_5
REMARK    2  A    between atoms: C_15  and  C_16
REMARK                            x       y       z     vdW  Elec       q    Type
REMARK                         _______ _______ _______ _____ _____    ______ ____
ROOT
ATOM      1  C   UNL     1       1.956   2.989  19.893  0.00  0.00    +0.000 A 
ATOM      2  N   UNL     1       1.844   1.823  19.280  0.00  0.00    +0.000 NA
ATOM      3  N   UNL     1       2.449   1.915  18.047  0.00  0.00    +0.000 NA
ATOM      4  C   UNL     1       2.921   3.133  17.926  0.00  0.00    +0.000 A 
ATOM      5  N   UNL     1       2.635   3.840  19.063  0.00  0.00    +0.000 N 
ATOM      6  C   UNL     1       3.036   5.218  19.271  0.00  0.00    +0.000 C 
ATOM      7  C   UNL     1       3.263   5.926  17.930  0.00  0.00    +0.000 C 
ATOM      8  N   UNL     1       4.118   5.117  17.058  0.00  0.00    +0.000 N 
ATOM      9  C   UNL     1       5.365   5.550  16.724  0.00  0.00    +0.000 A 
ATOM     10  N   UNL     1       5.974   6.578  17.278  0.00  0.00    +0.000 NA
ATOM     11  C   UNL     1       7.223   6.751  16.688  0.00  0.00    +0.000 A 
ATOM     12  N   UNL     1       7.607   5.933  15.710  0.00  0.00    +0.000 NA
ATOM     13  S   UNL     1       6.368   4.851  15.485  0.00  0.00    +0.000 S 
ATOM     14  C   UNL     1       3.662   3.748  16.784  0.00  0.00    +0.000 C 
ENDROOT
BRANCH   1  16
ATOM     15  F   UNL     1       2.434   3.728  22.098  0.00  0.00    +0.000 F 
ATOM     16  C   UNL     1       1.454   3.373  21.233  0.00  0.00    +0.000 C 
ATOM     17  F   UNL     1       0.764   2.353  21.811  0.00  0.00    +0.000 F 
ATOM     18  F   UNL     1       0.588   4.420  21.160  0.00  0.00    +0.000 F 
ENDBRANCH   1  16
BRANCH  11  19
ATOM     19  C   UNL     1       8.169   7.865  17.137  0.00  0.00    +0.000 C 
ATOM     20  C   UNL     1       7.591   9.073  17.846  0.00  0.00    +0.000 C 
ATOM     21  C   UNL     1       8.394   8.083  18.619  0.00  0.00    +0.000 C 
ENDBRANCH  11  19
TORSDOF 2
ENDMDL
MODEL 4
REMARK VINA RESULT:      -6.9      1.550      2.003
REMARK  Name = 
REMARK  2 active torsions:
REMARK  status: ('A' for Active; 'I' for Inactive)
REMARK    1  A    between atoms: C_2  and  C_5
REMARK    2  A    between atoms: C_15  and  C_16
REMARK                            x       y       z     vdW  Elec       q    Type
REMARK                         _______ _______ _______ _____ _____    ______ ____
ROOT
ATOM      1  C   UNL     1       2.383   4.220  19.580  0.00  0.00    +0.000 A 
ATOM      2  N   UNL     1       2.847   5.171  20.372  0.00  0.00    +0.000 NA
ATOM      3  N   UNL     1       4.119   5.500  19.963  0.00  0.00    +0.000 NA
ATOM      4  C   UNL     1       4.412   4.748  18.929  0.00  0.00    +0.000 A 
ATOM      5  N   UNL     1       3.348   3.932  18.654  0.00  0.00    +0.000 N 
ATOM      6  C   UNL     1       3.328   2.987  17.554  0.00  0.00    +0.000 C 
ATOM      7  C   UNL     1       4.754   2.601  17.142  0.00  0.00    +0.000 C 
ATOM      8  N   UNL     1       5.580   3.798  16.966  0.00  0.00    +0.000 N 
ATOM      9  C   UNL     1       6.043   4.138  15.731  0.00  0.00    +0.000 A 
ATOM     10  N   UNL     1       5.653   3.578  14.605  0.00  0.00    +0.000 NA
ATOM     11  C   UNL     1       6.340   4.152  13.538  0.00  0.00    +0.000 A 
ATOM     12  N   UNL     1       7.240   5.105  13.773  0.00  0.00    +0.000 NA
ATOM     13  S   UNL     1       7.256   5.346  15.415  0.00  0.00    +0.000 S 
ATOM     14  C   UNL     1       5.664   4.710  18.114  0.00  0.00    +0.000 C 
ENDROOT
BRANCH   1  16
ATOM     15  F   UNL     1       0.462   3.433  18.427  0.00  0.00    +0.000 F 
ATOM     16  C   UNL     1       1.066   3.543  19.635  0.00  0.00    +0.000 C 
ATOM     17  F   UNL     1       0.204   4.207  20.451  0.00  0.00    +0.000 F 
ATOM     18  F   UNL     1       1.174   2.286  20.143  0.00  0.00    +0.000 F 
ENDBRANCH   1  16
BRANCH  11  19
ATOM     19  C   UNL     1       6.086   3.711  12.098  0.00  0.00    +0.000 C 
ATOM     20  C   UNL     1       5.842   2.242  11.815  0.00  0.00    +0.000 C 
ATOM     21  C   UNL     1       4.709   3.206  11.716  0.00  0.00    +0.000 C 
ENDBRANCH  11  19
TORSDOF 2
ENDMDL
MODEL 5
REMARK VINA RESULT:      -6.7      2.695      4.054
REMARK  Name = 
REMARK  2 active torsions:
REMARK  status: ('A' for Active; 'I' for Inactive)
REMARK    1  A    between atoms: C_2  and  C_5
REMARK    2  A    between atoms: C_15  and  C_16
REMARK                            x       y       z     vdW  Elec       q    Type
REMARK                         _______ _______ _______ _____ _____    ______ ____
ROOT
ATOM      1  C   UNL     1       2.421   2.948  19.894  0.00  0.00    +0.000 A 
ATOM      2  N   UNL     1       2.761   1.758  19.429  0.00  0.00    +0.000 NA
ATOM      3  N   UNL     1       3.592   1.931  18.346  0.00  0.00    +0.000 NA
ATOM      4  C   UNL     1       3.748   3.221  18.166  0.00  0.00    +0.000 A 
ATOM      5  N   UNL     1       3.033   3.896  19.119  0.00  0.00    +0.000 N 
ATOM      6  C   UNL     1       3.004   5.342  19.223  0.00  0.00    +0.000 C 
ATOM      7  C   UNL     1       3.347   5.991  17.877  0.00  0.00    +0.000 C 
ATOM      8  N   UNL     1       4.561   5.396  17.313  0.00  0.00    +0.000 N 
ATOM      9  C   UNL     1       5.697   6.138  17.189  0.00  0.00    +0.000 A 
ATOM     10  N   UNL     1       5.873   7.331  17.718  0.00  0.00    +0.000 NA
ATOM     11  C   UNL     1       7.137   7.807  17.380  0.00  0.00    +0.000 A 
ATOM     12  N   UNL     1       7.937   7.064  16.617  0.00  0.00    +0.000 NA
ATOM     13  S   UNL     1       7.107   5.665  16.285  0.00  0.00    +0.000 S 
ATOM     14  C   UNL     1       4.551   3.939  17.131  0.00  0.00    +0.000 C 
ENDROOT
BRANCH   1  16
ATOM     15  F   UNL     1       1.064   2.172  21.681  0.00  0.00    +0.000 F 
ATOM     16  C   UNL     1       1.539   3.267  21.040  0.00  0.00    +0.000 C 
ATOM     17  F   UNL     1       0.460   3.994  20.644  0.00  0.00    +0.000 F 
ATOM     18  F   UNL     1       2.183   4.024  21.969  0.00  0.00    +0.000 F 
ENDBRANCH   1  16
BRANCH  11  19
ATOM     19  C   UNL     1       7.631   9.169  17.865  0.00  0.00    +0.000 C 
ATOM     20  C   UNL     1       8.765   9.222  18.869  0.00  0.00    +0.000 C 
ATOM     21  C   UNL     1       9.015   9.635  17.459  0.00  0.00    +0.000 C 
ENDBRANCH  11  19
TORSDOF 2
ENDMDL
MODEL 6
REMARK VINA RESULT:      -6.4      4.125      7.461
REMARK  Name = 
REMARK  2 active torsions:
REMARK  status: ('A' for Active; 'I' for Inactive)
REMARK    1  A    between atoms: C_2  and  C_5
REMARK    2  A    between atoms: C_15  and  C_16
REMARK                            x       y       z     vdW  Elec       q    Type
REMARK                         _______ _______ _______ _____ _____    ______ ____
ROOT
ATOM      1  C   UNL     1       6.350   5.742  17.413  0.00  0.00    +0.000 A 
ATOM      2  N   UNL     1       6.500   6.283  16.217  0.00  0.00    +0.000 NA
ATOM      3  N   UNL     1       5.364   6.999  15.914  0.00  0.00    +0.000 NA
ATOM      4  C   UNL     1       4.540   6.886  16.928  0.00  0.00    +0.000 A 
ATOM      5  N   UNL     1       5.121   6.107  17.892  0.00  0.00    +0.000 N 
ATOM      6  C   UNL     1       4.488   5.799  19.160  0.00  0.00    +0.000 C 
ATOM      7  C   UNL     1       2.964   5.928  19.053  0.00  0.00    +0.000 C 
ATOM      8  N   UNL     1       2.598   7.201  18.428  0.00  0.00    +0.000 N 
ATOM      9  C   UNL     1       1.947   8.157  19.146  0.00  0.00    +0.000 A 
ATOM     10  N   UNL     1       1.772   8.124  20.451  0.00  0.00    +0.000 NA
ATOM     11  C   UNL     1       1.053   9.247  20.852  0.00  0.00    +0.000 A 
ATOM     12  N   UNL     1       0.654  10.132  19.940  0.00  0.00    +0.000 NA
ATOM     13  S   UNL     1       1.200   9.578  18.474  0.00  0.00    +0.000 S 
ATOM     14  C   UNL     1       3.176   7.469  17.105  0.00  0.00    +0.000 C 
ENDROOT
BRANCH   1  16
ATOM     15  F   UNL     1       6.696   3.962  18.946  0.00  0.00    +0.000 F 
ATOM     16  C   UNL     1       7.300   4.882  18.156  0.00  0.00    +0.000 C 
ATOM     17  F   UNL     1       8.112   5.622  18.958  0.00  0.00    +0.000 F 
ATOM     18  F   UNL     1       8.123   4.203  17.312  0.00  0.00    +0.000 F 
ENDBRANCH   1  16
BRANCH  11  19
ATOM     19  C   UNL     1       0.707   9.488  22.321  0.00  0.00    +0.000 C 
ATOM     20  C   UNL     1      -0.384  10.484  22.661  0.00  0.00    +0.000 C 
ATOM     21  C   UNL     1      -0.639   9.026  22.843  0.00  0.00    +0.000 C 
ENDBRANCH  11  19
TORSDOF 2
ENDMDL
MODEL 7
REMARK VINA RESULT:      -6.3      4.888      7.097
REMARK  Name = 
REMARK  2 active torsions:
REMARK  status: ('A' for Active; 'I' for Inactive)
REMARK    1  A    between atoms: C_2  and  C_5
REMARK    2  A    between atoms: C_15  and  C_16
REMARK                            x       y       z     vdW  Elec       q    Type
REMARK                         _______ _______ _______ _____ _____    ______ ____
ROOT
ATOM      1  C   UNL     1       2.866   4.693  18.801  0.00  0.00    +0.000 A 
ATOM      2  N   UNL     1       2.861   4.262  20.050  0.00  0.00    +0.000 NA
ATOM      3  N   UNL     1       2.498   5.303  20.873  0.00  0.00    +0.000 NA
ATOM      4  C   UNL     1       2.286   6.353  20.115  0.00  0.00    +0.000 A 
ATOM      5  N   UNL     1       2.502   6.013  18.807  0.00  0.00    +0.000 N 
ATOM      6  C   UNL     1       2.333   6.936  17.702  0.00  0.00    +0.000 C 
ATOM      7  C   UNL     1       2.467   8.387  18.179  0.00  0.00    +0.000 C 
ATOM      8  N   UNL     1       1.636   8.619  19.363  0.00  0.00    +0.000 N 
ATOM      9  C   UNL     1       0.563   9.455  19.296  0.00  0.00    +0.000 A 
ATOM     10  N   UNL     1       0.070   9.953  18.181  0.00  0.00    +0.000 NA
ATOM     11  C   UNL     1      -1.010  10.780  18.479  0.00  0.00    +0.000 A 
ATOM     12  N   UNL     1      -1.369  10.960  19.749  0.00  0.00    +0.000 NA
ATOM     13  S   UNL     1      -0.330  10.047  20.668  0.00  0.00    +0.000 S 
ATOM     14  C   UNL     1       1.871   7.733  20.511  0.00  0.00    +0.000 C 
ENDROOT
BRANCH   1  16
ATOM     15  F   UNL     1       2.120   3.643  16.805  0.00  0.00    +0.000 F 
ATOM     16  C   UNL     1       3.199   3.938  17.571  0.00  0.00    +0.000 C 
ATOM     17  F   UNL     1       3.809   2.759  17.866  0.00  0.00    +0.000 F 
ATOM     18  F   UNL     1       4.070   4.626  16.784  0.00  0.00    +0.000 F 
ENDBRANCH   1  16
BRANCH  11  19
ATOM     19  C   UNL     1      -1.795  11.492  17.379  0.00  0.00    +0.000 C 
ATOM     20  C   UNL     1      -2.548  10.658  16.361  0.00  0.00    +0.000 C 
ATOM     21  C   UNL     1      -3.309  11.419  17.393  0.00  0.00    +0.000 C 
ENDBRANCH  11  19
TORSDOF 2
ENDMDL
MODEL 8
REMARK VINA RESULT:      -6.3      4.422      6.909
REMARK  Name = 
REMARK  2 active torsions:
REMARK  status: ('A' for Active; 'I' for Inactive)
REMARK    1  A    between atoms: C_2  and  C_5
REMARK    2  A    between atoms: C_15  and  C_16
REMARK                            x       y       z     vdW  Elec       q    Type
REMARK                         _______ _______ _______ _____ _____    ______ ____
ROOT
ATOM      1  C   UNL     1       2.456   3.704  18.999  0.00  0.00    +0.000 A 
ATOM      2  N   UNL     1       2.263   3.101  20.160  0.00  0.00    +0.000 NA
ATOM      3  N   UNL     1       2.006   4.058  21.114  0.00  0.00    +0.000 NA
ATOM      4  C   UNL     1       2.045   5.229  20.524  0.00  0.00    +0.000 A 
ATOM      5  N   UNL     1       2.322   5.051  19.195  0.00  0.00    +0.000 N 
ATOM      6  C   UNL     1       2.414   6.143  18.244  0.00  0.00    +0.000 C 
ATOM      7  C   UNL     1       2.747   7.459  18.957  0.00  0.00    +0.000 C 
ATOM      8  N   UNL     1       1.860   7.660  20.105  0.00  0.00    +0.000 N 
ATOM      9  C   UNL     1       0.955   8.678  20.104  0.00  0.00    +0.000 A 
ATOM     10  N   UNL     1       0.659   9.416  19.054  0.00  0.00    +0.000 NA
ATOM     11  C   UNL     1      -0.289  10.372  19.410  0.00  0.00    +0.000 A 
ATOM     12  N   UNL     1      -0.729  10.425  20.666  0.00  0.00    +0.000 NA
ATOM     13  S   UNL     1       0.051   9.214  21.492  0.00  0.00    +0.000 S 
ATOM     14  C   UNL     1       1.835   6.588  21.108  0.00  0.00    +0.000 C 
ENDROOT
BRANCH   1  16
ATOM     15  F   UNL     1       1.916   3.452  16.700  0.00  0.00    +0.000 F 
ATOM     16  C   UNL     1       2.770   3.090  17.688  0.00  0.00    +0.000 C 
ATOM     17  F   UNL     1       2.740   1.732  17.759  0.00  0.00    +0.000 F 
ATOM     18  F   UNL     1       4.023   3.417  17.271  0.00  0.00    +0.000 F 
ENDBRANCH   1  16
BRANCH  11  19
ATOM     19  C   UNL     1      -0.837  11.368  18.390  0.00  0.00    +0.000 C 
ATOM     20  C   UNL     1      -1.944  10.924  17.455  0.00  0.00    +0.000 C 
ATOM     21  C   UNL     1      -2.253  11.883  18.554  0.00  0.00    +0.000 C 
ENDBRANCH  11  19
TORSDOF 2
ENDMDL
MODEL 9
REMARK VINA RESULT:      -6.2      4.534      5.530
REMARK  Name = 
REMARK  2 active torsions:
REMARK  status: ('A' for Active; 'I' for Inactive)
REMARK    1  A    between atoms: C_2  and  C_5
REMARK    2  A    between atoms: C_15  and  C_16
REMARK                            x       y       z     vdW  Elec       q    Type
REMARK                         _______ _______ _______ _____ _____    ______ ____
ROOT
ATOM      1  C   UNL     1       1.005  10.005  19.967  0.00  0.00    +0.000 A 
ATOM      2  N   UNL     1       0.834   9.785  21.259  0.00  0.00    +0.000 NA
ATOM      3  N   UNL     1       1.225   8.496  21.541  0.00  0.00    +0.000 NA
ATOM      4  C   UNL     1       1.628   7.949  20.419  0.00  0.00    +0.000 A 
ATOM      5  N   UNL     1       1.510   8.863  19.407  0.00  0.00    +0.000 N 
ATOM      6  C   UNL     1       1.893   8.592  18.034  0.00  0.00    +0.000 C 
ATOM      7  C   UNL     1       1.872   7.085  17.752  0.00  0.00    +0.000 C 
ATOM      8  N   UNL     1       2.599   6.356  18.794  0.00  0.00    +0.000 N 
ATOM      9  C   UNL     1       3.759   5.707  18.497  0.00  0.00    +0.000 A 
ATOM     10  N   UNL     1       4.416   5.829  17.362  0.00  0.00    +0.000 NA
ATOM     11  C   UNL     1       5.545   5.014  17.388  0.00  0.00    +0.000 A 
ATOM     12  N   UNL     1       5.790   4.266  18.462  0.00  0.00    +0.000 NA
ATOM     13  S   UNL     1       4.568   4.575  19.543  0.00  0.00    +0.000 S 
ATOM     14  C   UNL     1       2.151   6.571  20.176  0.00  0.00    +0.000 C 
ENDROOT
BRANCH   1  16
ATOM     15  F   UNL     1       1.801  11.752  18.569  0.00  0.00    +0.000 F 
ATOM     16  C   UNL     1       0.717  11.240  19.201  0.00  0.00    +0.000 C 
ATOM     17  F   UNL     1       0.230  12.220  20.009  0.00  0.00    +0.000 F 
ATOM     18  F   UNL     1      -0.234  11.027  18.252  0.00  0.00    +0.000 F 
ENDBRANCH   1  16
BRANCH  11  19
ATOM     19  C   UNL     1       6.512   4.956  16.207  0.00  0.00    +0.000 C 
ATOM     20  C   UNL     1       6.327   3.874  15.163  0.00  0.00    +0.000 C 
ATOM     21  C   UNL     1       5.999   5.287  14.821  0.00  0.00    +0.000 C 
ENDBRANCH  11  19
TORSDOF 2
ENDMDL
