MODEL 1
REMARK VINA RESULT:      -6.2      0.000      0.000
REMARK  Name = 
REMARK  8 active torsions:
REMARK  status: ('A' for Active; 'I' for Inactive)
REMARK    1  A    between atoms: C_1  and  C_2
REMARK    2  A    between atoms: C_2  and  C_3
REMARK    3  A    between atoms: C_3  and  N_4
REMARK    4  A    between atoms: N_4  and  C_5
REMARK    5  A    between atoms: N_4  and  C_8
REMARK    6  A    between atoms: C_5  and  C_6
REMARK    7  A    between atoms: C_6  and  C_7
REMARK    8  A    between atoms: C_14  and  C_15
REMARK                            x       y       z     vdW  Elec       q    Type
REMARK                         _______ _______ _______ _____ _____    ______ ____
ROOT
ATOM      1  C   UNL     1       4.038   4.559  19.443  0.00  0.00    +0.000 C 
ATOM      2  C   UNL     1       4.316   3.106  18.970  0.00  0.00    +0.000 C 
ATOM      3  C   UNL     1       4.621   3.020  17.472  0.00  0.00    +0.000 C 
ATOM      4  N   UNL     1       5.462   4.105  16.998  0.00  0.00    +0.000 N 
ATOM      5  C   UNL     1       5.965   4.220  15.734  0.00  0.00    +0.000 A 
ATOM      6  C   UNL     1       6.754   5.347  15.701  0.00  0.00    +0.000 A 
ATOM      7  C   UNL     1       6.720   5.942  16.994  0.00  0.00    +0.000 A 
ATOM      8  C   UNL     1       7.471   7.148  17.426  0.00  0.00    +0.000 C 
ATOM      9  C   UNL     1       5.854   5.175  17.759  0.00  0.00    +0.000 A 
ATOM     10  C   UNL     1       5.375   5.329  19.175  0.00  0.00    +0.000 C 
ENDROOT
BRANCH   1  11
ATOM     11  N   UNL     1       2.841   5.204  18.831  0.00  0.00    +0.000 NA
BRANCH  11  12
ATOM     12  C   UNL     1       2.735   6.653  19.127  0.00  0.00    +0.000 C 
BRANCH  12  14
ATOM     13  C   UNL     1       1.852   8.737  18.002  0.00  0.00    +0.000 C 
ATOM     14  C   UNL     1       2.887   7.621  17.938  0.00  0.00    +0.000 C 
ENDBRANCH  12  14
ENDBRANCH  11  12
BRANCH  11  15
ATOM     15  C   UNL     1       1.568   4.498  19.049  0.00  0.00    +0.000 C 
BRANCH  15  16
ATOM     16  C   UNL     1       1.150   4.386  20.525  0.00  0.00    +0.000 C 
ATOM     17  C   UNL     1       1.186   2.947  21.033  0.00  0.00    +0.000 C 
ENDBRANCH  15  16
ENDBRANCH  11  15
ENDBRANCH   1  11
TORSDOF 5
ENDMDL
MODEL 2
REMARK VINA RESULT:      -6.2      1.747      5.215
REMARK  Name = 
REMARK  8 active torsions:
REMARK  status: ('A' for Active; 'I' for Inactive)
REMARK    1  A    between atoms: C_1  and  C_2
REMARK    2  A    between atoms: C_2  and  C_3
REMARK    3  A    between atoms: C_3  and  N_4
REMARK    4  A    between atoms: N_4  and  C_5
REMARK    5  A    between atoms: N_4  and  C_8
REMARK    6  A    between atoms: C_5  and  C_6
REMARK    7  A    between atoms: C_6  and  C_7
REMARK    8  A    between atoms: C_14  and  C_15
REMARK                            x       y       z     vdW  Elec       q    Type
REMARK                         _______ _______ _______ _____ _____    ______ ____
ROOT
ATOM      1  C   UNL     1       3.426   3.933  17.048  0.00  0.00    +0.000 C 
ATOM      2  C   UNL     1       2.934   2.469  17.212  0.00  0.00    +0.000 C 
ATOM      3  C   UNL     1       3.074   1.955  18.647  0.00  0.00    +0.000 C 
ATOM      4  N   UNL     1       2.723   2.949  19.646  0.00  0.00    +0.000 N 
ATOM      5  C   UNL     1       2.665   2.730  20.993  0.00  0.00    +0.000 A 
ATOM      6  C   UNL     1       2.241   3.896  21.587  0.00  0.00    +0.000 A 
ATOM      7  C   UNL     1       2.044   4.863  20.559  0.00  0.00    +0.000 A 
ATOM      8  C   UNL     1       1.540   6.247  20.741  0.00  0.00    +0.000 C 
ATOM      9  C   UNL     1       2.415   4.256  19.369  0.00  0.00    +0.000 A 
ATOM     10  C   UNL     1       2.476   4.778  17.961  0.00  0.00    +0.000 C 
ENDROOT
BRANCH   1  11
ATOM     11  N   UNL     1       4.875   4.146  17.328  0.00  0.00    +0.000 NA
BRANCH  11  12
ATOM     12  C   UNL     1       5.176   5.483  17.893  0.00  0.00    +0.000 C 
BRANCH  12  14
ATOM     13  C   UNL     1       7.300   6.831  17.643  0.00  0.00    +0.000 C 
ATOM     14  C   UNL     1       6.608   5.714  18.415  0.00  0.00    +0.000 C 
ENDBRANCH  12  14
ENDBRANCH  11  12
BRANCH  11  15
ATOM     15  C   UNL     1       5.786   3.791  16.228  0.00  0.00    +0.000 C 
BRANCH  15  16
ATOM     16  C   UNL     1       5.550   4.581  14.929  0.00  0.00    +0.000 C 
ATOM     17  C   UNL     1       6.154   3.891  13.709  0.00  0.00    +0.000 C 
ENDBRANCH  15  16
ENDBRANCH  11  15
ENDBRANCH   1  11
TORSDOF 5
ENDMDL
MODEL 3
REMARK VINA RESULT:      -6.2      1.598      3.462
REMARK  Name = 
REMARK  8 active torsions:
REMARK  status: ('A' for Active; 'I' for Inactive)
REMARK    1  A    between atoms: C_1  and  C_2
REMARK    2  A    between atoms: C_2  and  C_3
REMARK    3  A    between atoms: C_3  and  N_4
REMARK    4  A    between atoms: N_4  and  C_5
REMARK    5  A    between atoms: N_4  and  C_8
REMARK    6  A    between atoms: C_5  and  C_6
REMARK    7  A    between atoms: C_6  and  C_7
REMARK    8  A    between atoms: C_14  and  C_15
REMARK                            x       y       z     vdW  Elec       q    Type
REMARK                         _______ _______ _______ _____ _____    ______ ____
ROOT
ATOM      1  C   UNL     1       2.445   4.694  17.795  0.00  0.00    +0.000 C 
ATOM      2  C   UNL     1       2.624   5.987  18.637  0.00  0.00    +0.000 C 
ATOM      3  C   UNL     1       3.925   5.991  19.444  0.00  0.00    +0.000 C 
ATOM      4  N   UNL     1       5.054   5.447  18.711  0.00  0.00    +0.000 N 
ATOM      5  C   UNL     1       6.346   5.419  19.154  0.00  0.00    +0.000 A 
ATOM      6  C   UNL     1       7.118   4.880  18.151  0.00  0.00    +0.000 A 
ATOM      7  C   UNL     1       6.259   4.559  17.062  0.00  0.00    +0.000 A 
ATOM      8  C   UNL     1       6.675   4.004  15.749  0.00  0.00    +0.000 C 
ATOM      9  C   UNL     1       4.970   4.868  17.471  0.00  0.00    +0.000 A 
ATOM     10  C   UNL     1       3.642   4.705  16.787  0.00  0.00    +0.000 C 
ENDROOT
BRANCH   1  11
ATOM     11  N   UNL     1       2.337   3.436  18.587  0.00  0.00    +0.000 NA
BRANCH  11  12
ATOM     12  C   UNL     1       2.729   2.225  17.827  0.00  0.00    +0.000 C 
BRANCH  12  14
ATOM     13  C   UNL     1       4.448   1.987  19.665  0.00  0.00    +0.000 C 
ATOM     14  C   UNL     1       3.788   1.309  18.470  0.00  0.00    +0.000 C 
ENDBRANCH  12  14
ENDBRANCH  11  12
BRANCH  11  15
ATOM     15  C   UNL     1       1.066   3.253  19.305  0.00  0.00    +0.000 C 
BRANCH  15  16
ATOM     16  C   UNL     1       1.104   3.683  20.781  0.00  0.00    +0.000 C 
ATOM     17  C   UNL     1       1.534   2.549  21.708  0.00  0.00    +0.000 C 
ENDBRANCH  15  16
ENDBRANCH  11  15
ENDBRANCH   1  11
TORSDOF 5
ENDMDL
MODEL 4
REMARK VINA RESULT:      -6.1      1.556      5.116
REMARK  Name = 
REMARK  8 active torsions:
REMARK  status: ('A' for Active; 'I' for Inactive)
REMARK    1  A    between atoms: C_1  and  C_2
REMARK    2  A    between atoms: C_2  and  C_3
REMARK    3  A    between atoms: C_3  and  N_4
REMARK    4  A    between atoms: N_4  and  C_5
REMARK    5  A    between atoms: N_4  and  C_8
REMARK    6  A    between atoms: C_5  and  C_6
REMARK    7  A    between atoms: C_6  and  C_7
REMARK    8  A    between atoms: C_14  and  C_15
REMARK                            x       y       z     vdW  Elec       q    Type
REMARK                         _______ _______ _______ _____ _____    ______ ____
ROOT
ATOM      1  C   UNL     1       4.245   4.969  16.965  0.00  0.00    +0.000 C 
ATOM      2  C   UNL     1       3.707   3.518  16.827  0.00  0.00    +0.000 C 
ATOM      3  C   UNL     1       3.597   2.798  18.173  0.00  0.00    +0.000 C 
ATOM      4  N   UNL     1       3.101   3.651  19.238  0.00  0.00    +0.000 N 
ATOM      5  C   UNL     1       2.816   3.243  20.510  0.00  0.00    +0.000 A 
ATOM      6  C   UNL     1       2.319   4.329  21.194  0.00  0.00    +0.000 A 
ATOM      7  C   UNL     1       2.313   5.441  20.304  0.00  0.00    +0.000 A 
ATOM      8  C   UNL     1       1.809   6.804  20.605  0.00  0.00    +0.000 C 
ATOM      9  C   UNL     1       2.866   4.996  19.112  0.00  0.00    +0.000 A 
ATOM     10  C   UNL     1       3.171   5.713  17.827  0.00  0.00    +0.000 C 
ENDROOT
BRANCH   1  11
ATOM     11  N   UNL     1       5.630   5.080  17.505  0.00  0.00    +0.000 NA
BRANCH  11  12
ATOM     12  C   UNL     1       6.012   6.464  17.872  0.00  0.00    +0.000 C 
BRANCH  12  14
ATOM     13  C   UNL     1       7.892   8.144  17.683  0.00  0.00    +0.000 C 
ATOM     14  C   UNL     1       7.509   6.734  18.118  0.00  0.00    +0.000 C 
ENDBRANCH  12  14
ENDBRANCH  11  12
BRANCH  11  15
ATOM     15  C   UNL     1       6.670   4.410  16.707  0.00  0.00    +0.000 C 
BRANCH  15  16
ATOM     16  C   UNL     1       6.798   4.933  15.267  0.00  0.00    +0.000 C 
ATOM     17  C   UNL     1       6.328   3.912  14.233  0.00  0.00    +0.000 C 
ENDBRANCH  15  16
ENDBRANCH  11  15
ENDBRANCH   1  11
TORSDOF 5
ENDMDL
MODEL 5
REMARK VINA RESULT:      -5.9      0.936      1.259
REMARK  Name = 
REMARK  8 active torsions:
REMARK  status: ('A' for Active; 'I' for Inactive)
REMARK    1  A    between atoms: C_1  and  C_2
REMARK    2  A    between atoms: C_2  and  C_3
REMARK    3  A    between atoms: C_3  and  N_4
REMARK    4  A    between atoms: N_4  and  C_5
REMARK    5  A    between atoms: N_4  and  C_8
REMARK    6  A    between atoms: C_5  and  C_6
REMARK    7  A    between atoms: C_6  and  C_7
REMARK    8  A    between atoms: C_14  and  C_15
REMARK                            x       y       z     vdW  Elec       q    Type
REMARK                         _______ _______ _______ _____ _____    ______ ____
ROOT
ATOM      1  C   UNL     1       3.811   3.490  18.713  0.00  0.00    +0.000 C 
ATOM      2  C   UNL     1       4.000   2.809  17.330  0.00  0.00    +0.000 C 
ATOM      3  C   UNL     1       4.534   3.771  16.265  0.00  0.00    +0.000 C 
ATOM      4  N   UNL     1       5.555   4.671  16.770  0.00  0.00    +0.000 N 
ATOM      5  C   UNL     1       6.267   5.561  16.016  0.00  0.00    +0.000 A 
ATOM      6  C   UNL     1       7.171   6.181  16.848  0.00  0.00    +0.000 A 
ATOM      7  C   UNL     1       6.993   5.653  18.159  0.00  0.00    +0.000 A 
ATOM      8  C   UNL     1       7.792   5.999  19.361  0.00  0.00    +0.000 C 
ATOM      9  C   UNL     1       5.934   4.759  18.084  0.00  0.00    +0.000 A 
ATOM     10  C   UNL     1       5.251   3.936  19.139  0.00  0.00    +0.000 C 
ENDROOT
BRANCH   1  11
ATOM     11  N   UNL     1       2.808   4.593  18.742  0.00  0.00    +0.000 NA
BRANCH  11  12
ATOM     12  C   UNL     1       3.274   5.796  19.472  0.00  0.00    +0.000 C 
BRANCH  12  14
ATOM     13  C   UNL     1       3.344   7.568  17.671  0.00  0.00    +0.000 C 
ATOM     14  C   UNL     1       2.724   7.156  19.001  0.00  0.00    +0.000 C 
ENDBRANCH  12  14
ENDBRANCH  11  12
BRANCH  11  15
ATOM     15  C   UNL     1       1.449   4.195  19.139  0.00  0.00    +0.000 C 
BRANCH  15  16
ATOM     16  C   UNL     1       1.202   4.210  20.657  0.00  0.00    +0.000 C 
ATOM     17  C   UNL     1       1.308   2.820  21.279  0.00  0.00    +0.000 C 
ENDBRANCH  15  16
ENDBRANCH  11  15
ENDBRANCH   1  11
TORSDOF 5
ENDMDL
MODEL 6
REMARK VINA RESULT:      -5.8      1.583      5.327
REMARK  Name = 
REMARK  8 active torsions:
REMARK  status: ('A' for Active; 'I' for Inactive)
REMARK    1  A    between atoms: C_1  and  C_2
REMARK    2  A    between atoms: C_2  and  C_3
REMARK    3  A    between atoms: C_3  and  N_4
REMARK    4  A    between atoms: N_4  and  C_5
REMARK    5  A    between atoms: N_4  and  C_8
REMARK    6  A    between atoms: C_5  and  C_6
REMARK    7  A    between atoms: C_6  and  C_7
REMARK    8  A    between atoms: C_14  and  C_15
REMARK                            x       y       z     vdW  Elec       q    Type
REMARK                         _______ _______ _______ _____ _____    ______ ____
ROOT
ATOM      1  C   UNL     1       3.695   5.890  18.860  0.00  0.00    +0.000 C 
ATOM      2  C   UNL     1       2.475   6.139  17.932  0.00  0.00    +0.000 C 
ATOM      3  C   UNL     1       1.779   4.843  17.509  0.00  0.00    +0.000 C 
ATOM      4  N   UNL     1       1.679   3.872  18.583  0.00  0.00    +0.000 N 
ATOM      5  C   UNL     1       1.023   2.675  18.510  0.00  0.00    +0.000 A 
ATOM      6  C   UNL     1       1.110   2.077  19.745  0.00  0.00    +0.000 A 
ATOM      7  C   UNL     1       1.855   2.940  20.598  0.00  0.00    +0.000 A 
ATOM      8  C   UNL     1       2.148   2.715  22.036  0.00  0.00    +0.000 C 
ATOM      9  C   UNL     1       2.248   4.020  19.822  0.00  0.00    +0.000 A 
ATOM     10  C   UNL     1       3.091   5.222  20.142  0.00  0.00    +0.000 C 
ENDROOT
BRANCH   1  11
ATOM     11  N   UNL     1       4.807   5.112  18.245  0.00  0.00    +0.000 NA
BRANCH  11  12
ATOM     12  C   UNL     1       6.032   5.072  19.079  0.00  0.00    +0.000 C 
BRANCH  12  14
ATOM     13  C   UNL     1       7.962   6.648  18.651  0.00  0.00    +0.000 C 
ATOM     14  C   UNL     1       7.377   5.272  18.355  0.00  0.00    +0.000 C 
ENDBRANCH  12  14
ENDBRANCH  11  12
BRANCH  11  15
ATOM     15  C   UNL     1       5.103   5.441  16.841  0.00  0.00    +0.000 C 
BRANCH  15  16
ATOM     16  C   UNL     1       5.044   4.241  15.883  0.00  0.00    +0.000 C 
ATOM     17  C   UNL     1       6.193   4.240  14.878  0.00  0.00    +0.000 C 
ENDBRANCH  15  16
ENDBRANCH  11  15
ENDBRANCH   1  11
TORSDOF 5
ENDMDL
MODEL 7
REMARK VINA RESULT:      -5.7      1.641      5.359
REMARK  Name = 
REMARK  8 active torsions:
REMARK  status: ('A' for Active; 'I' for Inactive)
REMARK    1  A    between atoms: C_1  and  C_2
REMARK    2  A    between atoms: C_2  and  C_3
REMARK    3  A    between atoms: C_3  and  N_4
REMARK    4  A    between atoms: N_4  and  C_5
REMARK    5  A    between atoms: N_4  and  C_8
REMARK    6  A    between atoms: C_5  and  C_6
REMARK    7  A    between atoms: C_6  and  C_7
REMARK    8  A    between atoms: C_14  and  C_15
REMARK                            x       y       z     vdW  Elec       q    Type
REMARK                         _______ _______ _______ _____ _____    ______ ____
ROOT
ATOM      1  C   UNL     1       5.430   5.503  18.725  0.00  0.00    +0.000 C 
ATOM      2  C   UNL     1       4.235   6.358  19.228  0.00  0.00    +0.000 C 
ATOM      3  C   UNL     1       2.919   6.003  18.529  0.00  0.00    +0.000 C 
ATOM      4  N   UNL     1       2.749   4.575  18.325  0.00  0.00    +0.000 N 
ATOM      5  C   UNL     1       1.631   3.978  17.816  0.00  0.00    +0.000 A 
ATOM      6  C   UNL     1       1.840   2.618  17.836  0.00  0.00    +0.000 A 
ATOM      7  C   UNL     1       3.140   2.383  18.369  0.00  0.00    +0.000 A 
ATOM      8  C   UNL     1       3.760   1.059  18.620  0.00  0.00    +0.000 C 
ATOM      9  C   UNL     1       3.701   3.630  18.604  0.00  0.00    +0.000 A 
ATOM     10  C   UNL     1       5.058   4.031  19.109  0.00  0.00    +0.000 C 
ENDROOT
BRANCH   1  11
ATOM     11  N   UNL     1       5.771   5.681  17.285  0.00  0.00    +0.000 NA
BRANCH  11  12
ATOM     12  C   UNL     1       6.486   4.521  16.700  0.00  0.00    +0.000 C 
BRANCH  12  14
ATOM     13  C   UNL     1       5.943   4.076  14.271  0.00  0.00    +0.000 C 
ATOM     14  C   UNL     1       6.964   4.658  15.242  0.00  0.00    +0.000 C 
ENDBRANCH  12  14
ENDBRANCH  11  12
BRANCH  11  15
ATOM     15  C   UNL     1       6.416   6.959  16.945  0.00  0.00    +0.000 C 
BRANCH  15  16
ATOM     16  C   UNL     1       7.663   7.282  17.785  0.00  0.00    +0.000 C 
ATOM     17  C   UNL     1       7.976   8.776  17.812  0.00  0.00    +0.000 C 
ENDBRANCH  15  16
ENDBRANCH  11  15
ENDBRANCH   1  11
TORSDOF 5
ENDMDL
MODEL 8
REMARK VINA RESULT:      -5.7      1.426      5.121
REMARK  Name = 
REMARK  8 active torsions:
REMARK  status: ('A' for Active; 'I' for Inactive)
REMARK    1  A    between atoms: C_1  and  C_2
REMARK    2  A    between atoms: C_2  and  C_3
REMARK    3  A    between atoms: C_3  and  N_4
REMARK    4  A    between atoms: N_4  and  C_5
REMARK    5  A    between atoms: N_4  and  C_8
REMARK    6  A    between atoms: C_5  and  C_6
REMARK    7  A    between atoms: C_6  and  C_7
REMARK    8  A    between atoms: C_14  and  C_15
REMARK                            x       y       z     vdW  Elec       q    Type
REMARK                         _______ _______ _______ _____ _____    ______ ____
ROOT
ATOM      1  C   UNL     1       5.599   4.753  18.002  0.00  0.00    +0.000 C 
ATOM      2  C   UNL     1       6.258   6.107  17.623  0.00  0.00    +0.000 C 
ATOM      3  C   UNL     1       5.242   7.146  17.141  0.00  0.00    +0.000 C 
ATOM      4  N   UNL     1       4.009   7.135  17.907  0.00  0.00    +0.000 N 
ATOM      5  C   UNL     1       2.976   8.017  17.755  0.00  0.00    +0.000 A 
ATOM      6  C   UNL     1       2.024   7.710  18.700  0.00  0.00    +0.000 A 
ATOM      7  C   UNL     1       2.495   6.592  19.447  0.00  0.00    +0.000 A 
ATOM      8  C   UNL     1       1.811   5.958  20.602  0.00  0.00    +0.000 C 
ATOM      9  C   UNL     1       3.706   6.222  18.884  0.00  0.00    +0.000 A 
ATOM     10  C   UNL     1       4.648   5.094  19.199  0.00  0.00    +0.000 C 
ENDROOT
BRANCH   1  11
ATOM     11  N   UNL     1       4.921   4.045  16.879  0.00  0.00    +0.000 NA
BRANCH  11  12
ATOM     12  C   UNL     1       4.030   2.948  17.325  0.00  0.00    +0.000 C 
BRANCH  12  14
ATOM     13  C   UNL     1       1.768   2.673  18.420  0.00  0.00    +0.000 C 
ATOM     14  C   UNL     1       2.513   3.182  17.192  0.00  0.00    +0.000 C 
ENDBRANCH  12  14
ENDBRANCH  11  12
BRANCH  11  15
ATOM     15  C   UNL     1       5.802   3.630  15.776  0.00  0.00    +0.000 C 
BRANCH  15  16
ATOM     16  C   UNL     1       5.561   4.383  14.456  0.00  0.00    +0.000 C 
ATOM     17  C   UNL     1       6.206   3.685  13.261  0.00  0.00    +0.000 C 
ENDBRANCH  15  16
ENDBRANCH  11  15
ENDBRANCH   1  11
TORSDOF 5
ENDMDL
MODEL 9
REMARK VINA RESULT:      -5.7      1.151      3.005
REMARK  Name = 
REMARK  8 active torsions:
REMARK  status: ('A' for Active; 'I' for Inactive)
REMARK    1  A    between atoms: C_1  and  C_2
REMARK    2  A    between atoms: C_2  and  C_3
REMARK    3  A    between atoms: C_3  and  N_4
REMARK    4  A    between atoms: N_4  and  C_5
REMARK    5  A    between atoms: N_4  and  C_8
REMARK    6  A    between atoms: C_5  and  C_6
REMARK    7  A    between atoms: C_6  and  C_7
REMARK    8  A    between atoms: C_14  and  C_15
REMARK                            x       y       z     vdW  Elec       q    Type
REMARK                         _______ _______ _______ _____ _____    ______ ____
ROOT
ATOM      1  C   UNL     1       3.872   3.704  18.976  0.00  0.00    +0.000 C 
ATOM      2  C   UNL     1       3.880   3.163  17.520  0.00  0.00    +0.000 C 
ATOM      3  C   UNL     1       4.408   4.187  16.511  0.00  0.00    +0.000 C 
ATOM      4  N   UNL     1       5.546   4.941  17.006  0.00  0.00    +0.000 N 
ATOM      5  C   UNL     1       6.270   5.846  16.282  0.00  0.00    +0.000 A 
ATOM      6  C   UNL     1       7.293   6.297  17.083  0.00  0.00    +0.000 A 
ATOM      7  C   UNL     1       7.179   5.646  18.345  0.00  0.00    +0.000 A 
ATOM      8  C   UNL     1       8.105   5.794  19.496  0.00  0.00    +0.000 C 
ATOM      9  C   UNL     1       6.042   4.856  18.281  0.00  0.00    +0.000 A 
ATOM     10  C   UNL     1       5.377   3.982  19.307  0.00  0.00    +0.000 C 
ENDROOT
BRANCH   1  11
ATOM     11  N   UNL     1       2.980   4.876  19.208  0.00  0.00    +0.000 NA
BRANCH  11  12
ATOM     12  C   UNL     1       2.268   4.827  20.508  0.00  0.00    +0.000 C 
BRANCH  12  14
ATOM     13  C   UNL     1       1.577   2.666  21.621  0.00  0.00    +0.000 C 
ATOM     14  C   UNL     1       1.158   3.769  20.657  0.00  0.00    +0.000 C 
ENDBRANCH  12  14
ENDBRANCH  11  12
BRANCH  11  15
ATOM     15  C   UNL     1       2.079   5.210  18.094  0.00  0.00    +0.000 C 
BRANCH  15  16
ATOM     16  C   UNL     1       1.932   6.717  17.827  0.00  0.00    +0.000 C 
ATOM     17  C   UNL     1       3.261   7.461  17.941  0.00  0.00    +0.000 C 
ENDBRANCH  15  16
ENDBRANCH  11  15
ENDBRANCH   1  11
TORSDOF 5
ENDMDL
