MODEL 1
REMARK VINA RESULT:      -8.0      0.000      0.000
REMARK  Name = 
REMARK  4 active torsions:
REMARK  status: ('A' for Active; 'I' for Inactive)
REMARK    1  A    between atoms: C_1  and  C_2
REMARK    2  A    between atoms: C_2  and  C_3
REMARK    3  A    between atoms: C_8  and  N_9
REMARK    4  A    between atoms: C_11  and  C_12
REMARK                            x       y       z     vdW  Elec       q    Type
REMARK                         _______ _______ _______ _____ _____    ______ ____
ROOT
ATOM      1  N   UNL     1       1.995   6.607  20.215  0.00  0.00    +0.000 N 
ATOM      2  C   UNL     1       3.095   7.063  19.532  0.00  0.00    +0.000 A 
ATOM      3  C   UNL     1       3.731   5.977  18.965  0.00  0.00    +0.000 A 
ATOM      4  C   UNL     1       3.009   4.796  19.363  0.00  0.00    +0.000 A 
ATOM      5  C   UNL     1       3.122   3.396  19.203  0.00  0.00    +0.000 A 
ATOM      6  N   UNL     1       4.143   2.741  18.529  0.00  0.00    +0.000 N 
ATOM      7  N   UNL     1       2.188   2.594  19.749  0.00  0.00    +0.000 NA
ATOM      8  C   UNL     1       1.191   3.157  20.446  0.00  0.00    +0.000 A 
ATOM      9  N   UNL     1       0.985   4.463  20.693  0.00  0.00    +0.000 NA
ATOM     10  C   UNL     1       1.937   5.231  20.127  0.00  0.00    +0.000 A 
ATOM     11  H   UNL     1       5.048   3.182  18.610  0.00  0.00    +0.000 HD
ATOM     12  H   UNL     1       4.120   1.747  18.725  0.00  0.00    +0.000 HD
ENDROOT
BRANCH   3  13
ATOM     13  C   UNL     1       4.987   6.070  18.238  0.00  0.00    +0.000 A 
ATOM     14  C   UNL     1       6.173   5.556  18.818  0.00  0.00    +0.000 A 
ATOM     15  C   UNL     1       7.239   5.151  18.011  0.00  0.00    +0.000 A 
ATOM     16  C   UNL     1       7.042   5.222  16.652  0.00  0.00    +0.000 A 
ATOM     17  C   UNL     1       5.946   5.852  16.103  0.00  0.00    +0.000 A 
ATOM     18  C   UNL     1       4.941   6.376  16.877  0.00  0.00    +0.000 A 
ATOM     19  O   UNL     1       5.863   5.654  14.756  0.00  0.00    +0.000 OA
ATOM     20  C   UNL     1       6.771   4.541  14.647  0.00  0.00    +0.000 C 
ATOM     21  O   UNL     1       7.757   4.550  15.704  0.00  0.00    +0.000 OA
ENDBRANCH   3  13
BRANCH   1  27
ATOM     22  C   UNL     1      -0.278  10.730  19.812  0.00  0.00    +0.000 C 
ATOM     23  O   UNL     1      -0.918  10.561  18.766  0.00  0.00    +0.000 OA
ATOM     24  N   UNL     1       0.114   9.632  20.564  0.00  0.00    +0.000 N 
ATOM     25  C   UNL     1       0.704   9.603  21.888  0.00  0.00    +0.000 C 
ATOM     26  C   UNL     1       1.700   8.466  21.828  0.00  0.00    +0.000 C 
ATOM     27  C   UNL     1       1.038   7.465  20.874  0.00  0.00    +0.000 C 
ATOM     28  C   UNL     1       0.162   8.314  19.945  0.00  0.00    +0.000 C 
BRANCH  22  30
ATOM     29  C   UNL     1       1.713  12.305  19.896  0.00  0.00    +0.000 C 
ATOM     30  C   UNL     1       0.231  12.131  20.251  0.00  0.00    +0.000 C 
ATOM     31  C   UNL     1      -0.610  13.327  19.742  0.00  0.00    +0.000 C 
ATOM     32  O   UNL     1      -0.583  13.943  21.057  0.00  0.00    +0.000 OA
ATOM     33  C   UNL     1      -0.169  12.682  21.633  0.00  0.00    +0.000 C 
ENDBRANCH  22  30
ENDBRANCH   1  27
TORSDOF 3
ENDMDL
MODEL 2
REMARK VINA RESULT:      -7.9      1.108      1.153
REMARK  Name = 
REMARK  4 active torsions:
REMARK  status: ('A' for Active; 'I' for Inactive)
REMARK    1  A    between atoms: C_1  and  C_2
REMARK    2  A    between atoms: C_2  and  C_3
REMARK    3  A    between atoms: C_8  and  N_9
REMARK    4  A    between atoms: C_11  and  C_12
REMARK                            x       y       z     vdW  Elec       q    Type
REMARK                         _______ _______ _______ _____ _____    ______ ____
ROOT
ATOM      1  N   UNL     1       2.055   7.405  19.635  0.00  0.00    +0.000 N 
ATOM      2  C   UNL     1       2.931   7.752  18.638  0.00  0.00    +0.000 A 
ATOM      3  C   UNL     1       3.702   6.647  18.338  0.00  0.00    +0.000 A 
ATOM      4  C   UNL     1       3.306   5.588  19.231  0.00  0.00    +0.000 A 
ATOM      5  C   UNL     1       3.691   4.257  19.513  0.00  0.00    +0.000 A 
ATOM      6  N   UNL     1       4.728   3.570  18.898  0.00  0.00    +0.000 N 
ATOM      7  N   UNL     1       3.030   3.569  20.463  0.00  0.00    +0.000 NA
ATOM      8  C   UNL     1       2.039   4.183  21.124  0.00  0.00    +0.000 A 
ATOM      9  N   UNL     1       1.595   5.443  20.971  0.00  0.00    +0.000 NA
ATOM     10  C   UNL     1       2.278   6.096  20.010  0.00  0.00    +0.000 A 
ATOM     11  H   UNL     1       5.522   4.144  18.652  0.00  0.00    +0.000 HD
ATOM     12  H   UNL     1       4.943   2.719  19.406  0.00  0.00    +0.000 HD
ENDROOT
BRANCH   3  13
ATOM     13  C   UNL     1       4.801   6.666  17.386  0.00  0.00    +0.000 A 
ATOM     14  C   UNL     1       6.132   6.792  17.854  0.00  0.00    +0.000 A 
ATOM     15  C   UNL     1       7.199   6.309  17.093  0.00  0.00    +0.000 A 
ATOM     16  C   UNL     1       6.877   5.664  15.922  0.00  0.00    +0.000 A 
ATOM     17  C   UNL     1       5.597   5.672  15.411  0.00  0.00    +0.000 A 
ATOM     18  C   UNL     1       4.548   6.254  16.076  0.00  0.00    +0.000 A 
ATOM     19  O   UNL     1       5.467   4.832  14.343  0.00  0.00    +0.000 OA
ATOM     20  C   UNL     1       6.664   4.055  14.536  0.00  0.00    +0.000 C 
ATOM     21  O   UNL     1       7.683   4.805  15.233  0.00  0.00    +0.000 OA
ENDBRANCH   3  13
BRANCH   1  27
ATOM     22  C   UNL     1       0.513  11.871  19.543  0.00  0.00    +0.000 C 
ATOM     23  O   UNL     1       0.240  12.016  18.343  0.00  0.00    +0.000 OA
ATOM     24  N   UNL     1       0.509  10.601  20.099  0.00  0.00    +0.000 N 
ATOM     25  C   UNL     1       0.621  10.222  21.495  0.00  0.00    +0.000 C 
ATOM     26  C   UNL     1       1.449   8.956  21.472  0.00  0.00    +0.000 C 
ATOM     27  C   UNL     1       1.034   8.284  20.158  0.00  0.00    +0.000 C 
ATOM     28  C   UNL     1       0.614   9.434  19.234  0.00  0.00    +0.000 C 
BRANCH  22  30
ATOM     29  C   UNL     1       2.524  13.021  20.584  0.00  0.00    +0.000 C 
ATOM     30  C   UNL     1       0.999  13.052  20.427  0.00  0.00    +0.000 C 
ATOM     31  C   UNL     1       0.511  14.453  19.983  0.00  0.00    +0.000 C 
ATOM     32  O   UNL     1       0.169  14.800  21.351  0.00  0.00    +0.000 OA
ATOM     33  C   UNL     1       0.227  13.401  21.714  0.00  0.00    +0.000 C 
ENDBRANCH  22  30
ENDBRANCH   1  27
TORSDOF 3
ENDMDL
MODEL 3
REMARK VINA RESULT:      -7.2      1.811      2.604
REMARK  Name = 
REMARK  4 active torsions:
REMARK  status: ('A' for Active; 'I' for Inactive)
REMARK    1  A    between atoms: C_1  and  C_2
REMARK    2  A    between atoms: C_2  and  C_3
REMARK    3  A    between atoms: C_8  and  N_9
REMARK    4  A    between atoms: C_11  and  C_12
REMARK                            x       y       z     vdW  Elec       q    Type
REMARK                         _______ _______ _______ _____ _____    ______ ____
ROOT
ATOM      1  N   UNL     1       2.018   8.896  18.409  0.00  0.00    +0.000 N 
ATOM      2  C   UNL     1       3.027   8.787  17.485  0.00  0.00    +0.000 A 
ATOM      3  C   UNL     1       3.675   7.586  17.694  0.00  0.00    +0.000 A 
ATOM      4  C   UNL     1       3.058   6.954  18.832  0.00  0.00    +0.000 A 
ATOM      5  C   UNL     1       3.238   5.785  19.604  0.00  0.00    +0.000 A 
ATOM      6  N   UNL     1       4.234   4.837  19.414  0.00  0.00    +0.000 N 
ATOM      7  N   UNL     1       2.402   5.540  20.632  0.00  0.00    +0.000 NA
ATOM      8  C   UNL     1       1.438   6.432  20.897  0.00  0.00    +0.000 A 
ATOM      9  N   UNL     1       1.179   7.588  20.261  0.00  0.00    +0.000 NA
ATOM     10  C   UNL     1       2.032   7.793  19.238  0.00  0.00    +0.000 A 
ATOM     11  H   UNL     1       5.115   5.214  19.098  0.00  0.00    +0.000 HD
ATOM     12  H   UNL     1       4.285   4.208  20.208  0.00  0.00    +0.000 HD
ENDROOT
BRANCH   3  13
ATOM     13  C   UNL     1       4.856   7.170  16.955  0.00  0.00    +0.000 A 
ATOM     14  C   UNL     1       6.114   7.138  17.605  0.00  0.00    +0.000 A 
ATOM     15  C   UNL     1       7.127   6.293  17.146  0.00  0.00    +0.000 A 
ATOM     16  C   UNL     1       6.811   5.471  16.090  0.00  0.00    +0.000 A 
ATOM     17  C   UNL     1       5.638   5.610  15.380  0.00  0.00    +0.000 A 
ATOM     18  C   UNL     1       4.676   6.524  15.730  0.00  0.00    +0.000 A 
ATOM     19  O   UNL     1       5.451   4.589  14.495  0.00  0.00    +0.000 OA
ATOM     20  C   UNL     1       6.407   3.658  15.037  0.00  0.00    +0.000 C 
ATOM     21  O   UNL     1       7.478   4.335  15.732  0.00  0.00    +0.000 OA
ENDBRANCH   3  13
BRANCH   1  27
ATOM     22  C   UNL     1       0.178  12.186  21.258  0.00  0.00    +0.000 C 
ATOM     23  O   UNL     1       1.183  12.843  21.562  0.00  0.00    +0.000 OA
ATOM     24  N   UNL     1       0.162  11.464  20.074  0.00  0.00    +0.000 N 
ATOM     25  C   UNL     1      -0.952  10.782  19.444  0.00  0.00    +0.000 C 
ATOM     26  C   UNL     1      -0.336   9.533  18.851  0.00  0.00    +0.000 C 
ATOM     27  C   UNL     1       1.072   9.988  18.450  0.00  0.00    +0.000 C 
ATOM     28  C   UNL     1       1.418  11.126  19.418  0.00  0.00    +0.000 C 
BRANCH  22  30
ATOM     29  C   UNL     1      -0.958  10.678  22.956  0.00  0.00    +0.000 C 
ATOM     30  C   UNL     1      -1.026  12.025  22.226  0.00  0.00    +0.000 C 
ATOM     31  C   UNL     1      -1.233  13.192  23.222  0.00  0.00    +0.000 C 
ATOM     32  O   UNL     1      -2.660  13.210  22.952  0.00  0.00    +0.000 OA
ATOM     33  C   UNL     1      -2.436  12.430  21.754  0.00  0.00    +0.000 C 
ENDBRANCH  22  30
ENDBRANCH   1  27
TORSDOF 3
ENDMDL
MODEL 4
REMARK VINA RESULT:      -7.1      6.240     10.005
REMARK  Name = 
REMARK  4 active torsions:
REMARK  status: ('A' for Active; 'I' for Inactive)
REMARK    1  A    between atoms: C_1  and  C_2
REMARK    2  A    between atoms: C_2  and  C_3
REMARK    3  A    between atoms: C_8  and  N_9
REMARK    4  A    between atoms: C_11  and  C_12
REMARK                            x       y       z     vdW  Elec       q    Type
REMARK                         _______ _______ _______ _____ _____    ______ ____
ROOT
ATOM      1  N   UNL     1       3.923  14.953  18.457  0.00  0.00    +0.000 N 
ATOM      2  C   UNL     1       3.571  13.638  18.634  0.00  0.00    +0.000 A 
ATOM      3  C   UNL     1       2.195  13.569  18.724  0.00  0.00    +0.000 A 
ATOM      4  C   UNL     1       1.688  14.915  18.644  0.00  0.00    +0.000 A 
ATOM      5  C   UNL     1       0.437  15.568  18.718  0.00  0.00    +0.000 A 
ATOM      6  N   UNL     1      -0.784  14.949  18.945  0.00  0.00    +0.000 N 
ATOM      7  N   UNL     1       0.384  16.907  18.578  0.00  0.00    +0.000 NA
ATOM      8  C   UNL     1       1.530  17.575  18.392  0.00  0.00    +0.000 A 
ATOM      9  N   UNL     1       2.779  17.080  18.329  0.00  0.00    +0.000 NA
ATOM     10  C   UNL     1       2.789  15.739  18.469  0.00  0.00    +0.000 A 
ATOM     11  H   UNL     1      -0.741  14.154  19.566  0.00  0.00    +0.000 HD
ATOM     12  H   UNL     1      -1.499  15.636  19.162  0.00  0.00    +0.000 HD
ENDROOT
BRANCH   3  13
ATOM     13  C   UNL     1       1.468  12.342  19.002  0.00  0.00    +0.000 A 
ATOM     14  C   UNL     1       1.608  11.231  18.134  0.00  0.00    +0.000 A 
ATOM     15  C   UNL     1       1.381   9.934  18.601  0.00  0.00    +0.000 A 
ATOM     16  C   UNL     1       1.082   9.805  19.936  0.00  0.00    +0.000 A 
ATOM     17  C   UNL     1       0.811  10.895  20.735  0.00  0.00    +0.000 A 
ATOM     18  C   UNL     1       0.900  12.182  20.268  0.00  0.00    +0.000 A 
ATOM     19  O   UNL     1       0.712  10.554  22.052  0.00  0.00    +0.000 OA
ATOM     20  C   UNL     1       1.338   9.258  21.984  0.00  0.00    +0.000 C 
ATOM     21  O   UNL     1       1.196   8.663  20.675  0.00  0.00    +0.000 OA
ENDBRANCH   3  13
BRANCH   1  27
ATOM     22  C   UNL     1       8.418  13.498  18.364  0.00  0.00    +0.000 C 
ATOM     23  O   UNL     1       8.391  12.662  17.451  0.00  0.00    +0.000 OA
ATOM     24  N   UNL     1       7.475  14.515  18.393  0.00  0.00    +0.000 N 
ATOM     25  C   UNL     1       7.427  15.683  19.251  0.00  0.00    +0.000 C 
ATOM     26  C   UNL     1       5.954  15.876  19.537  0.00  0.00    +0.000 C 
ATOM     27  C   UNL     1       5.278  15.407  18.243  0.00  0.00    +0.000 C 
ATOM     28  C   UNL     1       6.235  14.371  17.642  0.00  0.00    +0.000 C 
BRANCH  22  30
ATOM     29  C   UNL     1       8.616  13.103  20.865  0.00  0.00    +0.000 C 
ATOM     30  C   UNL     1       9.390  13.373  19.569  0.00  0.00    +0.000 C 
ATOM     31  C   UNL     1      10.542  12.356  19.384  0.00  0.00    +0.000 C 
ATOM     32  O   UNL     1      11.506  13.305  19.911  0.00  0.00    +0.000 OA
ATOM     33  C   UNL     1      10.553  14.375  19.711  0.00  0.00    +0.000 C 
ENDBRANCH  22  30
ENDBRANCH   1  27
TORSDOF 3
ENDMDL
MODEL 5
REMARK VINA RESULT:      -7.0      4.732      7.969
REMARK  Name = 
REMARK  4 active torsions:
REMARK  status: ('A' for Active; 'I' for Inactive)
REMARK    1  A    between atoms: C_1  and  C_2
REMARK    2  A    between atoms: C_2  and  C_3
REMARK    3  A    between atoms: C_8  and  N_9
REMARK    4  A    between atoms: C_11  and  C_12
REMARK                            x       y       z     vdW  Elec       q    Type
REMARK                         _______ _______ _______ _____ _____    ______ ____
ROOT
ATOM      1  N   UNL     1      -3.493  12.667  20.179  0.00  0.00    +0.000 N 
ATOM      2  C   UNL     1      -2.252  12.297  20.635  0.00  0.00    +0.000 A 
ATOM      3  C   UNL     1      -1.657  11.508  19.672  0.00  0.00    +0.000 A 
ATOM      4  C   UNL     1      -2.601  11.352  18.595  0.00  0.00    +0.000 A 
ATOM      5  C   UNL     1      -2.681  10.662  17.365  0.00  0.00    +0.000 A 
ATOM      6  N   UNL     1      -1.706   9.820  16.847  0.00  0.00    +0.000 N 
ATOM      7  N   UNL     1      -3.788  10.792  16.608  0.00  0.00    +0.000 NA
ATOM      8  C   UNL     1      -4.785  11.561  17.063  0.00  0.00    +0.000 A 
ATOM      9  N   UNL     1      -4.845  12.246  18.220  0.00  0.00    +0.000 NA
ATOM     10  C   UNL     1      -3.719  12.093  18.945  0.00  0.00    +0.000 A 
ATOM     11  H   UNL     1      -1.201   9.289  17.541  0.00  0.00    +0.000 HD
ATOM     12  H   UNL     1      -2.073   9.286  16.067  0.00  0.00    +0.000 HD
ENDROOT
BRANCH   3  13
ATOM     13  C   UNL     1      -0.367  10.861  19.847  0.00  0.00    +0.000 A 
ATOM     14  C   UNL     1      -0.211   9.866  20.843  0.00  0.00    +0.000 A 
ATOM     15  C   UNL     1       0.778   8.887  20.718  0.00  0.00    +0.000 A 
ATOM     16  C   UNL     1       1.528   8.914  19.566  0.00  0.00    +0.000 A 
ATOM     17  C   UNL     1       1.463   9.964  18.675  0.00  0.00    +0.000 A 
ATOM     18  C   UNL     1       0.589  11.008  18.840  0.00  0.00    +0.000 A 
ATOM     19  O   UNL     1       2.154   9.704  17.527  0.00  0.00    +0.000 OA
ATOM     20  C   UNL     1       2.283   8.277  17.673  0.00  0.00    +0.000 C 
ATOM     21  O   UNL     1       2.258   7.877  19.062  0.00  0.00    +0.000 OA
ENDBRANCH   3  13
BRANCH   1  27
ATOM     22  C   UNL     1      -3.573  16.495  22.949  0.00  0.00    +0.000 C 
ATOM     23  O   UNL     1      -3.052  17.345  22.215  0.00  0.00    +0.000 OA
ATOM     24  N   UNL     1      -4.203  15.395  22.386  0.00  0.00    +0.000 N 
ATOM     25  C   UNL     1      -5.020  14.387  23.035  0.00  0.00    +0.000 C 
ATOM     26  C   UNL     1      -4.665  13.102  22.320  0.00  0.00    +0.000 C 
ATOM     27  C   UNL     1      -4.381  13.562  20.884  0.00  0.00    +0.000 C 
ATOM     28  C   UNL     1      -3.895  15.010  21.015  0.00  0.00    +0.000 C 
BRANCH  22  30
ATOM     29  C   UNL     1      -4.703  17.099  25.142  0.00  0.00    +0.000 C 
ATOM     30  C   UNL     1      -3.430  16.540  24.495  0.00  0.00    +0.000 C 
ATOM     31  C   UNL     1      -3.006  15.206  25.156  0.00  0.00    +0.000 C 
ATOM     32  O   UNL     1      -2.032  15.892  25.987  0.00  0.00    +0.000 OA
ATOM     33  C   UNL     1      -2.115  17.046  25.118  0.00  0.00    +0.000 C 
ENDBRANCH  22  30
ENDBRANCH   1  27
TORSDOF 3
ENDMDL
MODEL 6
REMARK VINA RESULT:      -7.0      6.284      9.925
REMARK  Name = 
REMARK  4 active torsions:
REMARK  status: ('A' for Active; 'I' for Inactive)
REMARK    1  A    between atoms: C_1  and  C_2
REMARK    2  A    between atoms: C_2  and  C_3
REMARK    3  A    between atoms: C_8  and  N_9
REMARK    4  A    between atoms: C_11  and  C_12
REMARK                            x       y       z     vdW  Elec       q    Type
REMARK                         _______ _______ _______ _____ _____    ______ ____
ROOT
ATOM      1  N   UNL     1       3.885  15.004  18.749  0.00  0.00    +0.000 N 
ATOM      2  C   UNL     1       3.514  13.696  18.936  0.00  0.00    +0.000 A 
ATOM      3  C   UNL     1       2.135  13.639  18.961  0.00  0.00    +0.000 A 
ATOM      4  C   UNL     1       1.643  14.987  18.829  0.00  0.00    +0.000 A 
ATOM      5  C   UNL     1       0.396  15.650  18.829  0.00  0.00    +0.000 A 
ATOM      6  N   UNL     1      -0.840  15.045  19.010  0.00  0.00    +0.000 N 
ATOM      7  N   UNL     1       0.361  16.986  18.660  0.00  0.00    +0.000 NA
ATOM      8  C   UNL     1       1.520  17.641  18.516  0.00  0.00    +0.000 A 
ATOM      9  N   UNL     1       2.767  17.136  18.523  0.00  0.00    +0.000 NA
ATOM     10  C   UNL     1       2.758  15.799  18.691  0.00  0.00    +0.000 A 
ATOM     11  H   UNL     1      -0.833  14.262  19.648  0.00  0.00    +0.000 HD
ATOM     12  H   UNL     1      -1.558  15.741  19.177  0.00  0.00    +0.000 HD
ENDROOT
BRANCH   3  13
ATOM     13  C   UNL     1       1.386  12.423  19.228  0.00  0.00    +0.000 A 
ATOM     14  C   UNL     1       1.483  11.328  18.335  0.00  0.00    +0.000 A 
ATOM     15  C   UNL     1       1.235  10.026  18.779  0.00  0.00    +0.000 A 
ATOM     16  C   UNL     1       0.960   9.876  20.118  0.00  0.00    +0.000 A 
ATOM     17  C   UNL     1       0.730  10.955  20.944  0.00  0.00    +0.000 A 
ATOM     18  C   UNL     1       0.840  12.250  20.502  0.00  0.00    +0.000 A 
ATOM     19  O   UNL     1       0.650  10.588  22.256  0.00  0.00    +0.000 OA
ATOM     20  C   UNL     1       1.245   9.281  22.148  0.00  0.00    +0.000 C 
ATOM     21  O   UNL     1       1.062   8.716  20.831  0.00  0.00    +0.000 OA
ENDBRANCH   3  13
BRANCH   1  27
ATOM     22  C   UNL     1       8.329  13.443  18.364  0.00  0.00    +0.000 C 
ATOM     23  O   UNL     1       8.267  12.765  17.330  0.00  0.00    +0.000 OA
ATOM     24  N   UNL     1       7.421  14.472  18.567  0.00  0.00    +0.000 N 
ATOM     25  C   UNL     1       7.419  15.489  19.601  0.00  0.00    +0.000 C 
ATOM     26  C   UNL     1       5.956  15.680  19.934  0.00  0.00    +0.000 C 
ATOM     27  C   UNL     1       5.253  15.444  18.591  0.00  0.00    +0.000 C 
ATOM     28  C   UNL     1       6.170  14.488  17.820  0.00  0.00    +0.000 C 
BRANCH  22  30
ATOM     29  C   UNL     1      10.528  14.024  19.494  0.00  0.00    +0.000 C 
ATOM     30  C   UNL     1       9.307  13.097  19.520  0.00  0.00    +0.000 C 
ATOM     31  C   UNL     1       8.670  13.051  20.931  0.00  0.00    +0.000 C 
ATOM     32  O   UNL     1       9.359  11.808  21.234  0.00  0.00    +0.000 OA
ATOM     33  C   UNL     1       9.626  11.621  19.825  0.00  0.00    +0.000 C 
ENDBRANCH  22  30
ENDBRANCH   1  27
TORSDOF 3
ENDMDL
MODEL 7
REMARK VINA RESULT:      -6.9      4.824      8.129
REMARK  Name = 
REMARK  4 active torsions:
REMARK  status: ('A' for Active; 'I' for Inactive)
REMARK    1  A    between atoms: C_1  and  C_2
REMARK    2  A    between atoms: C_2  and  C_3
REMARK    3  A    between atoms: C_8  and  N_9
REMARK    4  A    between atoms: C_11  and  C_12
REMARK                            x       y       z     vdW  Elec       q    Type
REMARK                         _______ _______ _______ _____ _____    ______ ____
ROOT
ATOM      1  N   UNL     1      -3.666  12.689  20.091  0.00  0.00    +0.000 N 
ATOM      2  C   UNL     1      -2.427  12.345  20.573  0.00  0.00    +0.000 A 
ATOM      3  C   UNL     1      -1.791  11.578  19.617  0.00  0.00    +0.000 A 
ATOM      4  C   UNL     1      -2.708  11.407  18.518  0.00  0.00    +0.000 A 
ATOM      5  C   UNL     1      -2.743  10.724  17.282  0.00  0.00    +0.000 A 
ATOM      6  N   UNL     1      -1.737   9.909  16.781  0.00  0.00    +0.000 N 
ATOM      7  N   UNL     1      -3.835  10.833  16.501  0.00  0.00    +0.000 NA
ATOM      8  C   UNL     1      -4.861  11.575  16.939  0.00  0.00    +0.000 A 
ATOM      9  N   UNL     1      -4.964  12.249  18.099  0.00  0.00    +0.000 NA
ATOM     10  C   UNL     1      -3.851  12.119  18.848  0.00  0.00    +0.000 A 
ATOM     11  H   UNL     1      -1.235   9.385  17.483  0.00  0.00    +0.000 HD
ATOM     12  H   UNL     1      -2.074   9.372  15.990  0.00  0.00    +0.000 HD
ENDROOT
BRANCH   3  13
ATOM     13  C   UNL     1      -0.491  10.960  19.817  0.00  0.00    +0.000 A 
ATOM     14  C   UNL     1      -0.325   9.987  20.834  0.00  0.00    +0.000 A 
ATOM     15  C   UNL     1       0.684   9.026  20.737  0.00  0.00    +0.000 A 
ATOM     16  C   UNL     1       1.445   9.047  19.592  0.00  0.00    +0.000 A 
ATOM     17  C   UNL     1       1.368  10.078  18.681  0.00  0.00    +0.000 A 
ATOM     18  C   UNL     1       0.472  11.108  18.817  0.00  0.00    +0.000 A 
ATOM     19  O   UNL     1       2.076   9.812  17.545  0.00  0.00    +0.000 OA
ATOM     20  C   UNL     1       2.232   8.390  17.719  0.00  0.00    +0.000 C 
ATOM     21  O   UNL     1       2.201   8.015  19.115  0.00  0.00    +0.000 OA
ENDBRANCH   3  13
BRANCH   1  27
ATOM     22  C   UNL     1      -3.930  16.671  22.622  0.00  0.00    +0.000 C 
ATOM     23  O   UNL     1      -3.509  17.509  21.813  0.00  0.00    +0.000 OA
ATOM     24  N   UNL     1      -4.494  15.492  22.158  0.00  0.00    +0.000 N 
ATOM     25  C   UNL     1      -5.200  14.469  22.906  0.00  0.00    +0.000 C 
ATOM     26  C   UNL     1      -4.776  13.171  22.254  0.00  0.00    +0.000 C 
ATOM     27  C   UNL     1      -4.591  13.557  20.782  0.00  0.00    +0.000 C 
ATOM     28  C   UNL     1      -4.216  15.044  20.800  0.00  0.00    +0.000 C 
BRANCH  22  30
ATOM     29  C   UNL     1      -2.776  15.746  24.686  0.00  0.00    +0.000 C 
ATOM     30  C   UNL     1      -3.724  16.826  24.153  0.00  0.00    +0.000 C 
ATOM     31  C   UNL     1      -3.284  18.236  24.620  0.00  0.00    +0.000 C 
ATOM     32  O   UNL     1      -4.253  18.213  25.701  0.00  0.00    +0.000 OA
ATOM     33  C   UNL     1      -4.940  17.117  25.054  0.00  0.00    +0.000 C 
ENDBRANCH  22  30
ENDBRANCH   1  27
TORSDOF 3
ENDMDL
MODEL 8
REMARK VINA RESULT:      -6.9      2.096      3.393
REMARK  Name = 
REMARK  4 active torsions:
REMARK  status: ('A' for Active; 'I' for Inactive)
REMARK    1  A    between atoms: C_1  and  C_2
REMARK    2  A    between atoms: C_2  and  C_3
REMARK    3  A    between atoms: C_8  and  N_9
REMARK    4  A    between atoms: C_11  and  C_12
REMARK                            x       y       z     vdW  Elec       q    Type
REMARK                         _______ _______ _______ _____ _____    ______ ____
ROOT
ATOM      1  N   UNL     1       1.988   9.170  18.312  0.00  0.00    +0.000 N 
ATOM      2  C   UNL     1       2.831   8.357  17.596  0.00  0.00    +0.000 A 
ATOM      3  C   UNL     1       2.959   7.163  18.278  0.00  0.00    +0.000 A 
ATOM      4  C   UNL     1       2.193   7.274  19.493  0.00  0.00    +0.000 A 
ATOM      5  C   UNL     1       1.929   6.491  20.639  0.00  0.00    +0.000 A 
ATOM      6  N   UNL     1       2.461   5.235  20.898  0.00  0.00    +0.000 N 
ATOM      7  N   UNL     1       1.111   6.975  21.593  0.00  0.00    +0.000 NA
ATOM      8  C   UNL     1       0.590   8.198  21.427  0.00  0.00    +0.000 A 
ATOM      9  N   UNL     1       0.781   9.050  20.403  0.00  0.00    +0.000 NA
ATOM     10  C   UNL     1       1.601   8.527  19.470  0.00  0.00    +0.000 A 
ATOM     11  H   UNL     1       3.405   5.103  20.565  0.00  0.00    +0.000 HD
ATOM     12  H   UNL     1       2.294   4.968  21.862  0.00  0.00    +0.000 HD
ENDROOT
BRANCH   3  13
ATOM     13  C   UNL     1       3.847   6.090  17.861  0.00  0.00    +0.000 A 
ATOM     14  C   UNL     1       3.317   4.802  17.602  0.00  0.00    +0.000 A 
ATOM     15  C   UNL     1       3.976   3.925  16.738  0.00  0.00    +0.000 A 
ATOM     16  C   UNL     1       5.109   4.403  16.123  0.00  0.00    +0.000 A 
ATOM     17  C   UNL     1       5.690   5.599  16.487  0.00  0.00    +0.000 A 
ATOM     18  C   UNL     1       5.132   6.425  17.430  0.00  0.00    +0.000 A 
ATOM     19  O   UNL     1       6.694   5.961  15.637  0.00  0.00    +0.000 OA
ATOM     20  C   UNL     1       6.373   5.082  14.542  0.00  0.00    +0.000 C 
ATOM     21  O   UNL     1       5.681   3.896  14.993  0.00  0.00    +0.000 OA
ENDBRANCH   3  13
BRANCH   1  27
ATOM     22  C   UNL     1       2.374  13.788  19.237  0.00  0.00    +0.000 C 
ATOM     23  O   UNL     1       3.589  13.972  19.085  0.00  0.00    +0.000 OA
ATOM     24  N   UNL     1       1.753  12.732  18.588  0.00  0.00    +0.000 N 
ATOM     25  C   UNL     1       0.336  12.439  18.482  0.00  0.00    +0.000 C 
ATOM     26  C   UNL     1       0.260  10.931  18.557  0.00  0.00    +0.000 C 
ATOM     27  C   UNL     1       1.553  10.475  17.870  0.00  0.00    +0.000 C 
ATOM     28  C   UNL     1       2.551  11.617  18.096  0.00  0.00    +0.000 C 
BRANCH  22  30
ATOM     29  C   UNL     1       0.662  15.644  19.512  0.00  0.00    +0.000 C 
ATOM     30  C   UNL     1       1.534  14.618  20.246  0.00  0.00    +0.000 C 
ATOM     31  C   UNL     1       0.695  13.786  21.247  0.00  0.00    +0.000 C 
ATOM     32  O   UNL     1       1.121  14.628  22.351  0.00  0.00    +0.000 OA
ATOM     33  C   UNL     1       2.198  15.142  21.533  0.00  0.00    +0.000 C 
ENDBRANCH  22  30
ENDBRANCH   1  27
TORSDOF 3
ENDMDL
MODEL 9
REMARK VINA RESULT:      -6.9      2.251      3.669
REMARK  Name = 
REMARK  4 active torsions:
REMARK  status: ('A' for Active; 'I' for Inactive)
REMARK    1  A    between atoms: C_1  and  C_2
REMARK    2  A    between atoms: C_2  and  C_3
REMARK    3  A    between atoms: C_8  and  N_9
REMARK    4  A    between atoms: C_11  and  C_12
REMARK                            x       y       z     vdW  Elec       q    Type
REMARK                         _______ _______ _______ _____ _____    ______ ____
ROOT
ATOM      1  N   UNL     1       1.876   9.427  18.350  0.00  0.00    +0.000 N 
ATOM      2  C   UNL     1       2.717   8.584  17.666  0.00  0.00    +0.000 A 
ATOM      3  C   UNL     1       2.812   7.403  18.373  0.00  0.00    +0.000 A 
ATOM      4  C   UNL     1       2.026   7.552  19.572  0.00  0.00    +0.000 A 
ATOM      5  C   UNL     1       1.728   6.796  20.728  0.00  0.00    +0.000 A 
ATOM      6  N   UNL     1       2.232   5.536  21.021  0.00  0.00    +0.000 N 
ATOM      7  N   UNL     1       0.901   7.314  21.657  0.00  0.00    +0.000 NA
ATOM      8  C   UNL     1       0.405   8.542  21.457  0.00  0.00    +0.000 A 
ATOM      9  N   UNL     1       0.630   9.370  20.421  0.00  0.00    +0.000 NA
ATOM     10  C   UNL     1       1.457   8.814  19.513  0.00  0.00    +0.000 A 
ATOM     11  H   UNL     1       3.180   5.382  20.708  0.00  0.00    +0.000 HD
ATOM     12  H   UNL     1       2.044   5.292  21.987  0.00  0.00    +0.000 HD
ENDROOT
BRANCH   3  13
ATOM     13  C   UNL     1       3.687   6.306  17.994  0.00  0.00    +0.000 A 
ATOM     14  C   UNL     1       3.146   5.012  17.798  0.00  0.00    +0.000 A 
ATOM     15  C   UNL     1       3.789   4.093  16.965  0.00  0.00    +0.000 A 
ATOM     16  C   UNL     1       4.918   4.536  16.317  0.00  0.00    +0.000 A 
ATOM     17  C   UNL     1       5.511   5.742  16.622  0.00  0.00    +0.000 A 
ATOM     18  C   UNL     1       4.970   6.613  17.534  0.00  0.00    +0.000 A 
ATOM     19  O   UNL     1       6.507   6.059  15.746  0.00  0.00    +0.000 OA
ATOM     20  C   UNL     1       6.168   5.135  14.694  0.00  0.00    +0.000 C 
ATOM     21  O   UNL     1       5.474   3.975  15.204  0.00  0.00    +0.000 OA
ENDBRANCH   3  13
BRANCH   1  27
ATOM     22  C   UNL     1       2.467  14.058  19.081  0.00  0.00    +0.000 C 
ATOM     23  O   UNL     1       3.681  14.190  18.876  0.00  0.00    +0.000 OA
ATOM     24  N   UNL     1       1.783  13.002  18.497  0.00  0.00    +0.000 N 
ATOM     25  C   UNL     1       0.353  12.761  18.455  0.00  0.00    +0.000 C 
ATOM     26  C   UNL     1       0.225  11.260  18.591  0.00  0.00    +0.000 C 
ATOM     27  C   UNL     1       1.472  10.730  17.874  0.00  0.00    +0.000 C 
ATOM     28  C   UNL     1       2.520  11.840  18.019  0.00  0.00    +0.000 C 
BRANCH  22  30
ATOM     29  C   UNL     1       1.345  14.171  21.356  0.00  0.00    +0.000 C 
ATOM     30  C   UNL     1       1.698  14.956  20.087  0.00  0.00    +0.000 C 
ATOM     31  C   UNL     1       2.387  16.299  20.434  0.00  0.00    +0.000 C 
ATOM     32  O   UNL     1       1.134  17.017  20.279  0.00  0.00    +0.000 OA
ATOM     33  C   UNL     1       0.579  15.883  19.572  0.00  0.00    +0.000 C 
ENDBRANCH  22  30
ENDBRANCH   1  27
TORSDOF 3
ENDMDL
