MODEL 1
REMARK VINA RESULT:      -7.1      0.000      0.000
REMARK  Name = 
REMARK  6 active torsions:
REMARK  status: ('A' for Active; 'I' for Inactive)
REMARK    1  A    between atoms: C_1  and  N_2
REMARK    2  A    between atoms: C_3  and  C_4
REMARK    3  A    between atoms: C_4  and  N_5
REMARK    4  A    between atoms: N_8  and  S_9
REMARK    5  A    between atoms: S_9  and  C_10
REMARK    6  A    between atoms: C_18  and  N_19
REMARK                            x       y       z     vdW  Elec       q    Type
REMARK                         _______ _______ _______ _____ _____    ______ ____
ROOT
ATOM      1  C   UNL     1       1.765   4.250  19.515  0.00  0.00    +0.000 C 
ATOM      2  N   UNL     1       2.700   5.192  18.951  0.00  0.00    +0.000 N 
ATOM      3  C   UNL     1       2.781   6.541  19.217  0.00  0.00    +0.000 A 
ATOM      4  N   UNL     1       3.654   7.110  18.397  0.00  0.00    +0.000 NA
ATOM      5  C   UNL     1       4.169   6.106  17.613  0.00  0.00    +0.000 A 
ATOM      6  C   UNL     1       5.105   6.169  16.566  0.00  0.00    +0.000 A 
ATOM      7  C   UNL     1       5.473   4.963  15.941  0.00  0.00    +0.000 A 
ATOM      8  C   UNL     1       4.936   3.733  16.344  0.00  0.00    +0.000 A 
ATOM      9  C   UNL     1       3.990   3.673  17.370  0.00  0.00    +0.000 A 
ATOM     10  C   UNL     1       3.620   4.881  17.973  0.00  0.00    +0.000 A 
ENDROOT
BRANCH   7  11
ATOM     11  N   UNL     1       6.436   4.990  14.830  0.00  0.00    +0.000 N 
ATOM     12  O   UNL     1       6.159   4.352  13.809  0.00  0.00    +0.000 OA
ATOM     13  O   UNL     1       7.473   5.656  14.983  0.00  0.00    +0.000 OA
ENDBRANCH   7  11
BRANCH   3  14
ATOM     14  C   UNL     1       1.905   7.283  20.194  0.00  0.00    +0.000 C 
BRANCH  14  15
ATOM     15  N   UNL     1       1.423   8.597  19.813  0.00  0.00    +0.000 NA
ATOM     16  C   UNL     1       0.610   9.377  20.728  0.00  0.00    +0.000 C 
ATOM     17  C   UNL     1       0.921  10.881  20.584  0.00  0.00    +0.000 C 
ATOM     18  N   UNL     1       0.825  11.362  19.174  0.00  0.00    +0.000 NA
ATOM     19  C   UNL     1       1.630  10.518  18.239  0.00  0.00    +0.000 C 
ATOM     20  C   UNL     1       1.381   9.003  18.418  0.00  0.00    +0.000 C 
BRANCH  18  21
ATOM     21  S   UNL     1      -0.676  11.902  18.617  0.00  0.00    +0.000 S 
ATOM     22  C   UNL     1      -1.555  12.177  20.150  0.00  0.00    +0.000 C 
ATOM     23  O   UNL     1      -0.489  13.195  17.996  0.00  0.00    +0.000 OA
ATOM     24  O   UNL     1      -1.308  10.814  17.906  0.00  0.00    +0.000 OA
ENDBRANCH  18  21
ENDBRANCH  14  15
ENDBRANCH   3  14
TORSDOF 4
ENDMDL
MODEL 2
REMARK VINA RESULT:      -7.0      3.094      4.137
REMARK  Name = 
REMARK  6 active torsions:
REMARK  status: ('A' for Active; 'I' for Inactive)
REMARK    1  A    between atoms: C_1  and  N_2
REMARK    2  A    between atoms: C_3  and  C_4
REMARK    3  A    between atoms: C_4  and  N_5
REMARK    4  A    between atoms: N_8  and  S_9
REMARK    5  A    between atoms: S_9  and  C_10
REMARK    6  A    between atoms: C_18  and  N_19
REMARK                            x       y       z     vdW  Elec       q    Type
REMARK                         _______ _______ _______ _____ _____    ______ ____
ROOT
ATOM      1  C   UNL     1       4.455   6.854  16.788  0.00  0.00    +0.000 C 
ATOM      2  N   UNL     1       3.493   6.707  17.853  0.00  0.00    +0.000 N 
ATOM      3  C   UNL     1       2.638   7.673  18.337  0.00  0.00    +0.000 A 
ATOM      4  N   UNL     1       2.016   7.222  19.417  0.00  0.00    +0.000 NA
ATOM      5  C   UNL     1       2.450   5.934  19.612  0.00  0.00    +0.000 A 
ATOM      6  C   UNL     1       2.129   5.017  20.629  0.00  0.00    +0.000 A 
ATOM      7  C   UNL     1       2.713   3.738  20.569  0.00  0.00    +0.000 A 
ATOM      8  C   UNL     1       3.584   3.377  19.532  0.00  0.00    +0.000 A 
ATOM      9  C   UNL     1       3.920   4.294  18.534  0.00  0.00    +0.000 A 
ATOM     10  C   UNL     1       3.345   5.568  18.614  0.00  0.00    +0.000 A 
ENDROOT
BRANCH   7  11
ATOM     11  N   UNL     1       2.415   2.757  21.623  0.00  0.00    +0.000 N 
ATOM     12  O   UNL     1       3.333   2.027  22.010  0.00  0.00    +0.000 OA
ATOM     13  O   UNL     1       1.255   2.722  22.065  0.00  0.00    +0.000 OA
ENDBRANCH   7  11
BRANCH   3  14
ATOM     14  C   UNL     1       2.534   9.079  17.805  0.00  0.00    +0.000 C 
BRANCH  14  15
ATOM     15  N   UNL     1       1.532   9.953  18.386  0.00  0.00    +0.000 NA
ATOM     16  C   UNL     1       0.120   9.717  18.147  0.00  0.00    +0.000 C 
ATOM     17  C   UNL     1      -0.711  10.089  19.392  0.00  0.00    +0.000 C 
ATOM     18  N   UNL     1      -0.434  11.470  19.886  0.00  0.00    +0.000 NA
ATOM     19  C   UNL     1       1.028  11.710  20.080  0.00  0.00    +0.000 C 
ATOM     20  C   UNL     1       1.885  11.279  18.867  0.00  0.00    +0.000 C 
BRANCH  18  21
ATOM     21  S   UNL     1      -1.340  12.743  19.242  0.00  0.00    +0.000 S 
ATOM     22  C   UNL     1      -2.918  11.954  18.949  0.00  0.00    +0.000 C 
ATOM     23  O   UNL     1      -1.542  13.725  20.283  0.00  0.00    +0.000 OA
ATOM     24  O   UNL     1      -0.758  13.108  17.970  0.00  0.00    +0.000 OA
ENDBRANCH  18  21
ENDBRANCH  14  15
ENDBRANCH   3  14
TORSDOF 4
ENDMDL
MODEL 3
REMARK VINA RESULT:      -7.0      1.291      1.720
REMARK  Name = 
REMARK  6 active torsions:
REMARK  status: ('A' for Active; 'I' for Inactive)
REMARK    1  A    between atoms: C_1  and  N_2
REMARK    2  A    between atoms: C_3  and  C_4
REMARK    3  A    between atoms: C_4  and  N_5
REMARK    4  A    between atoms: N_8  and  S_9
REMARK    5  A    between atoms: S_9  and  C_10
REMARK    6  A    between atoms: C_18  and  N_19
REMARK                            x       y       z     vdW  Elec       q    Type
REMARK                         _______ _______ _______ _____ _____    ______ ____
ROOT
ATOM      1  C   UNL     1       1.458   4.040  19.254  0.00  0.00    +0.000 C 
ATOM      2  N   UNL     1       2.519   4.972  18.960  0.00  0.00    +0.000 N 
ATOM      3  C   UNL     1       2.678   6.238  19.478  0.00  0.00    +0.000 A 
ATOM      4  N   UNL     1       3.676   6.855  18.860  0.00  0.00    +0.000 NA
ATOM      5  C   UNL     1       4.190   5.960  17.954  0.00  0.00    +0.000 A 
ATOM      6  C   UNL     1       5.234   6.115  17.025  0.00  0.00    +0.000 A 
ATOM      7  C   UNL     1       5.571   5.008  16.224  0.00  0.00    +0.000 A 
ATOM      8  C   UNL     1       4.898   3.785  16.342  0.00  0.00    +0.000 A 
ATOM      9  C   UNL     1       3.846   3.636  17.250  0.00  0.00    +0.000 A 
ATOM     10  C   UNL     1       3.510   4.750  18.029  0.00  0.00    +0.000 A 
ENDROOT
BRANCH   7  11
ATOM     11  N   UNL     1       6.646   5.136  15.229  0.00  0.00    +0.000 N 
ATOM     12  O   UNL     1       6.527   4.518  14.166  0.00  0.00    +0.000 OA
ATOM     13  O   UNL     1       7.612   5.863  15.516  0.00  0.00    +0.000 OA
ENDBRANCH   7  11
BRANCH   3  14
ATOM     14  C   UNL     1       1.764   6.878  20.492  0.00  0.00    +0.000 C 
BRANCH  14  15
ATOM     15  N   UNL     1       1.394   8.266  20.293  0.00  0.00    +0.000 NA
ATOM     16  C   UNL     1       1.620   8.913  19.013  0.00  0.00    +0.000 C 
ATOM     17  C   UNL     1       0.496   9.924  18.710  0.00  0.00    +0.000 C 
ATOM     18  N   UNL     1       0.277  10.901  19.818  0.00  0.00    +0.000 NA
ATOM     19  C   UNL     1       0.094  10.219  21.136  0.00  0.00    +0.000 C 
ATOM     20  C   UNL     1       1.176   9.152  21.425  0.00  0.00    +0.000 C 
BRANCH  18  21
ATOM     21  S   UNL     1       1.184  12.327  19.813  0.00  0.00    +0.000 S 
ATOM     22  C   UNL     1      -0.091  13.568  19.630  0.00  0.00    +0.000 C 
ATOM     23  O   UNL     1       1.760  12.500  21.128  0.00  0.00    +0.000 OA
ATOM     24  O   UNL     1       2.010  12.328  18.628  0.00  0.00    +0.000 OA
ENDBRANCH  18  21
ENDBRANCH  14  15
ENDBRANCH   3  14
TORSDOF 4
ENDMDL
MODEL 4
REMARK VINA RESULT:      -6.9      2.008      2.464
REMARK  Name = 
REMARK  6 active torsions:
REMARK  status: ('A' for Active; 'I' for Inactive)
REMARK    1  A    between atoms: C_1  and  N_2
REMARK    2  A    between atoms: C_3  and  C_4
REMARK    3  A    between atoms: C_4  and  N_5
REMARK    4  A    between atoms: N_8  and  S_9
REMARK    5  A    between atoms: S_9  and  C_10
REMARK    6  A    between atoms: C_18  and  N_19
REMARK                            x       y       z     vdW  Elec       q    Type
REMARK                         _______ _______ _______ _____ _____    ______ ____
ROOT
ATOM      1  C   UNL     1       1.738   6.626  20.106  0.00  0.00    +0.000 C 
ATOM      2  N   UNL     1       2.553   7.062  18.999  0.00  0.00    +0.000 N 
ATOM      3  C   UNL     1       2.255   8.050  18.087  0.00  0.00    +0.000 A 
ATOM      4  N   UNL     1       3.165   8.063  17.123  0.00  0.00    +0.000 NA
ATOM      5  C   UNL     1       4.082   7.090  17.436  0.00  0.00    +0.000 A 
ATOM      6  C   UNL     1       5.226   6.668  16.734  0.00  0.00    +0.000 A 
ATOM      7  C   UNL     1       6.010   5.649  17.307  0.00  0.00    +0.000 A 
ATOM      8  C   UNL     1       5.675   5.070  18.538  0.00  0.00    +0.000 A 
ATOM      9  C   UNL     1       4.527   5.473  19.225  0.00  0.00    +0.000 A 
ATOM     10  C   UNL     1       3.747   6.476  18.637  0.00  0.00    +0.000 A 
ENDROOT
BRANCH   7  11
ATOM     11  N   UNL     1       7.203   5.169  16.595  0.00  0.00    +0.000 N 
ATOM     12  O   UNL     1       7.959   4.393  17.189  0.00  0.00    +0.000 OA
ATOM     13  O   UNL     1       7.381   5.571  15.433  0.00  0.00    +0.000 OA
ENDBRANCH   7  11
BRANCH   3  14
ATOM     14  C   UNL     1       1.006   8.894  18.106  0.00  0.00    +0.000 C 
BRANCH  14  15
ATOM     15  N   UNL     1       0.901   9.930  19.115  0.00  0.00    +0.000 NA
ATOM     16  C   UNL     1       0.163   9.691  20.343  0.00  0.00    +0.000 C 
ATOM     17  C   UNL     1       0.831  10.420  21.527  0.00  0.00    +0.000 C 
ATOM     18  N   UNL     1       1.057  11.872  21.265  0.00  0.00    +0.000 NA
ATOM     19  C   UNL     1       1.774  12.101  19.974  0.00  0.00    +0.000 C 
ATOM     20  C   UNL     1       1.159  11.323  18.787  0.00  0.00    +0.000 C 
BRANCH  18  21
ATOM     21  S   UNL     1      -0.182  12.954  21.655  0.00  0.00    +0.000 S 
ATOM     22  C   UNL     1       0.544  14.521  21.190  0.00  0.00    +0.000 C 
ATOM     23  O   UNL     1      -1.289  12.715  20.756  0.00  0.00    +0.000 OA
ATOM     24  O   UNL     1      -0.362  12.930  23.088  0.00  0.00    +0.000 OA
ENDBRANCH  18  21
ENDBRANCH  14  15
ENDBRANCH   3  14
TORSDOF 4
ENDMDL
MODEL 5
REMARK VINA RESULT:      -6.9      1.480      1.936
REMARK  Name = 
REMARK  6 active torsions:
REMARK  status: ('A' for Active; 'I' for Inactive)
REMARK    1  A    between atoms: C_1  and  N_2
REMARK    2  A    between atoms: C_3  and  C_4
REMARK    3  A    between atoms: C_4  and  N_5
REMARK    4  A    between atoms: N_8  and  S_9
REMARK    5  A    between atoms: S_9  and  C_10
REMARK    6  A    between atoms: C_18  and  N_19
REMARK                            x       y       z     vdW  Elec       q    Type
REMARK                         _______ _______ _______ _____ _____    ______ ____
ROOT
ATOM      1  C   UNL     1       2.293   3.632  18.701  0.00  0.00    +0.000 C 
ATOM      2  N   UNL     1       3.235   4.637  18.270  0.00  0.00    +0.000 N 
ATOM      3  C   UNL     1       3.311   5.942  18.702  0.00  0.00    +0.000 A 
ATOM      4  N   UNL     1       4.194   6.608  17.971  0.00  0.00    +0.000 NA
ATOM      5  C   UNL     1       4.720   5.708  17.076  0.00  0.00    +0.000 A 
ATOM      6  C   UNL     1       5.670   5.899  16.057  0.00  0.00    +0.000 A 
ATOM      7  C   UNL     1       6.049   4.780  15.293  0.00  0.00    +0.000 A 
ATOM      8  C   UNL     1       5.507   3.510  15.534  0.00  0.00    +0.000 A 
ATOM      9  C   UNL     1       4.548   3.323  16.532  0.00  0.00    +0.000 A 
ATOM     10  C   UNL     1       4.168   4.448  17.274  0.00  0.00    +0.000 A 
ENDROOT
BRANCH   7  11
ATOM     11  N   UNL     1       7.026   4.943  14.207  0.00  0.00    +0.000 N 
ATOM     12  O   UNL     1       8.015   5.653  14.421  0.00  0.00    +0.000 OA
ATOM     13  O   UNL     1       6.802   4.355  13.136  0.00  0.00    +0.000 OA
ENDBRANCH   7  11
BRANCH   3  14
ATOM     14  C   UNL     1       2.421   6.558  19.751  0.00  0.00    +0.000 C 
BRANCH  14  15
ATOM     15  N   UNL     1       1.914   7.896  19.513  0.00  0.00    +0.000 NA
ATOM     16  C   UNL     1       2.295   8.626  18.317  0.00  0.00    +0.000 C 
ATOM     17  C   UNL     1       1.126   9.500  17.819  0.00  0.00    +0.000 C 
ATOM     18  N   UNL     1       0.568  10.387  18.883  0.00  0.00    +0.000 NA
ATOM     19  C   UNL     1       0.227   9.626  20.123  0.00  0.00    +0.000 C 
ATOM     20  C   UNL     1       1.364   8.692  20.598  0.00  0.00    +0.000 C 
BRANCH  18  21
ATOM     21  S   UNL     1       1.260  11.915  19.088  0.00  0.00    +0.000 S 
ATOM     22  C   UNL     1      -0.035  12.986  18.476  0.00  0.00    +0.000 C 
ATOM     23  O   UNL     1       1.385  12.167  20.507  0.00  0.00    +0.000 OA
ATOM     24  O   UNL     1       2.401  12.013  18.207  0.00  0.00    +0.000 OA
ENDBRANCH  18  21
ENDBRANCH  14  15
ENDBRANCH   3  14
TORSDOF 4
ENDMDL
MODEL 6
REMARK VINA RESULT:      -6.9      3.090      8.412
REMARK  Name = 
REMARK  6 active torsions:
REMARK  status: ('A' for Active; 'I' for Inactive)
REMARK    1  A    between atoms: C_1  and  N_2
REMARK    2  A    between atoms: C_3  and  C_4
REMARK    3  A    between atoms: C_4  and  N_5
REMARK    4  A    between atoms: N_8  and  S_9
REMARK    5  A    between atoms: S_9  and  C_10
REMARK    6  A    between atoms: C_18  and  N_19
REMARK                            x       y       z     vdW  Elec       q    Type
REMARK                         _______ _______ _______ _____ _____    ______ ____
ROOT
ATOM      1  C   UNL     1       2.193   8.304  17.522  0.00  0.00    +0.000 C 
ATOM      2  N   UNL     1       1.907   8.211  18.933  0.00  0.00    +0.000 N 
ATOM      3  C   UNL     1       2.048   7.102  19.736  0.00  0.00    +0.000 A 
ATOM      4  N   UNL     1       1.540   7.348  20.936  0.00  0.00    +0.000 NA
ATOM      5  C   UNL     1       1.097   8.648  20.917  0.00  0.00    +0.000 A 
ATOM      6  C   UNL     1       0.451   9.397  21.916  0.00  0.00    +0.000 A 
ATOM      7  C   UNL     1       0.124  10.735  21.627  0.00  0.00    +0.000 A 
ATOM      8  C   UNL     1       0.430  11.314  20.388  0.00  0.00    +0.000 A 
ATOM      9  C   UNL     1       1.052  10.564  19.387  0.00  0.00    +0.000 A 
ATOM     10  C   UNL     1       1.358   9.230  19.682  0.00  0.00    +0.000 A 
ENDROOT
BRANCH   7  11
ATOM     11  N   UNL     1      -0.567  11.545  22.641  0.00  0.00    +0.000 N 
ATOM     12  O   UNL     1      -0.421  12.771  22.599  0.00  0.00    +0.000 OA
ATOM     13  O   UNL     1      -1.261  10.947  23.480  0.00  0.00    +0.000 OA
ENDBRANCH   7  11
BRANCH   3  14
ATOM     14  C   UNL     1       2.568   5.764  19.278  0.00  0.00    +0.000 C 
BRANCH  14  15
ATOM     15  N   UNL     1       3.877   5.721  18.655  0.00  0.00    +0.000 NA
ATOM     16  C   UNL     1       4.040   6.071  17.256  0.00  0.00    +0.000 C 
ATOM     17  C   UNL     1       5.390   6.780  17.027  0.00  0.00    +0.000 C 
ATOM     18  N   UNL     1       6.550   6.010  17.567  0.00  0.00    +0.000 NA
ATOM     19  C   UNL     1       6.344   5.617  18.994  0.00  0.00    +0.000 C 
ATOM     20  C   UNL     1       4.966   4.966  19.254  0.00  0.00    +0.000 C 
BRANCH  18  21
ATOM     21  S   UNL     1       7.290   4.874  16.558  0.00  0.00    +0.000 S 
ATOM     22  C   UNL     1       5.916   3.806  16.144  0.00  0.00    +0.000 C 
ATOM     23  O   UNL     1       7.690   5.544  15.341  0.00  0.00    +0.000 OA
ATOM     24  O   UNL     1       8.241   4.126  17.348  0.00  0.00    +0.000 OA
ENDBRANCH  18  21
ENDBRANCH  14  15
ENDBRANCH   3  14
TORSDOF 4
ENDMDL
MODEL 7
REMARK VINA RESULT:      -6.9      0.908      1.182
REMARK  Name = 
REMARK  6 active torsions:
REMARK  status: ('A' for Active; 'I' for Inactive)
REMARK    1  A    between atoms: C_1  and  N_2
REMARK    2  A    between atoms: C_3  and  C_4
REMARK    3  A    between atoms: C_4  and  N_5
REMARK    4  A    between atoms: N_8  and  S_9
REMARK    5  A    between atoms: S_9  and  C_10
REMARK    6  A    between atoms: C_18  and  N_19
REMARK                            x       y       z     vdW  Elec       q    Type
REMARK                         _______ _______ _______ _____ _____    ______ ____
ROOT
ATOM      1  C   UNL     1       1.544   4.312  18.606  0.00  0.00    +0.000 C 
ATOM      2  N   UNL     1       2.735   5.094  18.383  0.00  0.00    +0.000 N 
ATOM      3  C   UNL     1       3.079   6.276  19.001  0.00  0.00    +0.000 A 
ATOM      4  N   UNL     1       4.162   6.784  18.429  0.00  0.00    +0.000 NA
ATOM      5  C   UNL     1       4.541   5.899  17.449  0.00  0.00    +0.000 A 
ATOM      6  C   UNL     1       5.602   5.971  16.529  0.00  0.00    +0.000 A 
ATOM      7  C   UNL     1       5.773   4.895  15.638  0.00  0.00    +0.000 A 
ATOM      8  C   UNL     1       4.923   3.782  15.660  0.00  0.00    +0.000 A 
ATOM      9  C   UNL     1       3.856   3.719  16.560  0.00  0.00    +0.000 A 
ATOM     10  C   UNL     1       3.687   4.803  17.430  0.00  0.00    +0.000 A 
ENDROOT
BRANCH   7  11
ATOM     11  N   UNL     1       6.860   4.942  14.650  0.00  0.00    +0.000 N 
ATOM     12  O   UNL     1       7.807   5.706  14.867  0.00  0.00    +0.000 OA
ATOM     13  O   UNL     1       6.765   4.207  13.653  0.00  0.00    +0.000 OA
ENDBRANCH   7  11
BRANCH   3  14
ATOM     14  C   UNL     1       2.267   6.960  20.070  0.00  0.00    +0.000 C 
BRANCH  14  15
ATOM     15  N   UNL     1       1.656   8.236  19.748  0.00  0.00    +0.000 NA
ATOM     16  C   UNL     1       0.815   8.916  20.716  0.00  0.00    +0.000 C 
ATOM     17  C   UNL     1       0.988  10.445  20.605  0.00  0.00    +0.000 C 
ATOM     18  N   UNL     1       0.792  10.953  19.215  0.00  0.00    +0.000 NA
ATOM     19  C   UNL     1       1.629  10.209  18.225  0.00  0.00    +0.000 C 
ATOM     20  C   UNL     1       1.521   8.673  18.368  0.00  0.00    +0.000 C 
BRANCH  18  21
ATOM     21  S   UNL     1      -0.773  11.372  18.734  0.00  0.00    +0.000 S 
ATOM     22  C   UNL     1      -0.537  13.043  18.143  0.00  0.00    +0.000 C 
ATOM     23  O   UNL     1      -1.125  10.561  17.589  0.00  0.00    +0.000 OA
ATOM     24  O   UNL     1      -1.610  11.407  19.911  0.00  0.00    +0.000 OA
ENDBRANCH  18  21
ENDBRANCH  14  15
ENDBRANCH   3  14
TORSDOF 4
ENDMDL
MODEL 8
REMARK VINA RESULT:      -6.9      2.021      2.347
REMARK  Name = 
REMARK  6 active torsions:
REMARK  status: ('A' for Active; 'I' for Inactive)
REMARK    1  A    between atoms: C_1  and  N_2
REMARK    2  A    between atoms: C_3  and  C_4
REMARK    3  A    between atoms: C_4  and  N_5
REMARK    4  A    between atoms: N_8  and  S_9
REMARK    5  A    between atoms: S_9  and  C_10
REMARK    6  A    between atoms: C_18  and  N_19
REMARK                            x       y       z     vdW  Elec       q    Type
REMARK                         _______ _______ _______ _____ _____    ______ ____
ROOT
ATOM      1  C   UNL     1       1.580   6.278  20.045  0.00  0.00    +0.000 C 
ATOM      2  N   UNL     1       2.553   6.736  19.084  0.00  0.00    +0.000 N 
ATOM      3  C   UNL     1       2.419   7.786  18.203  0.00  0.00    +0.000 A 
ATOM      4  N   UNL     1       3.450   7.810  17.370  0.00  0.00    +0.000 NA
ATOM      5  C   UNL     1       4.279   6.780  17.742  0.00  0.00    +0.000 A 
ATOM      6  C   UNL     1       5.490   6.345  17.173  0.00  0.00    +0.000 A 
ATOM      7  C   UNL     1       6.150   5.261  17.781  0.00  0.00    +0.000 A 
ATOM      8  C   UNL     1       5.630   4.630  18.919  0.00  0.00    +0.000 A 
ATOM      9  C   UNL     1       4.416   5.048  19.472  0.00  0.00    +0.000 A 
ATOM     10  C   UNL     1       3.762   6.117  18.848  0.00  0.00    +0.000 A 
ENDROOT
BRANCH   7  11
ATOM     11  N   UNL     1       7.409   4.767  17.206  0.00  0.00    +0.000 N 
ATOM     12  O   UNL     1       7.545   4.820  15.979  0.00  0.00    +0.000 OA
ATOM     13  O   UNL     1       8.266   4.326  17.989  0.00  0.00    +0.000 OA
ENDBRANCH   7  11
BRANCH   3  14
ATOM     14  C   UNL     1       1.212   8.684  18.107  0.00  0.00    +0.000 C 
BRANCH  14  15
ATOM     15  N   UNL     1       1.041   9.703  19.125  0.00  0.00    +0.000 NA
ATOM     16  C   UNL     1       0.374   9.391  20.376  0.00  0.00    +0.000 C 
ATOM     17  C   UNL     1       1.007  10.179  21.541  0.00  0.00    +0.000 C 
ATOM     18  N   UNL     1       1.080  11.647  21.278  0.00  0.00    +0.000 NA
ATOM     19  C   UNL     1       1.726  11.948  19.965  0.00  0.00    +0.000 C 
ATOM     20  C   UNL     1       1.150  11.115  18.796  0.00  0.00    +0.000 C 
BRANCH  18  21
ATOM     21  S   UNL     1      -0.244  12.601  21.717  0.00  0.00    +0.000 S 
ATOM     22  C   UNL     1      -1.089  11.538  22.880  0.00  0.00    +0.000 C 
ATOM     23  O   UNL     1       0.247  13.740  22.460  0.00  0.00    +0.000 OA
ATOM     24  O   UNL     1      -1.079  12.772  20.550  0.00  0.00    +0.000 OA
ENDBRANCH  18  21
ENDBRANCH  14  15
ENDBRANCH   3  14
TORSDOF 4
ENDMDL
MODEL 9
REMARK VINA RESULT:      -6.9      3.136      4.140
REMARK  Name = 
REMARK  6 active torsions:
REMARK  status: ('A' for Active; 'I' for Inactive)
REMARK    1  A    between atoms: C_1  and  N_2
REMARK    2  A    between atoms: C_3  and  C_4
REMARK    3  A    between atoms: C_4  and  N_5
REMARK    4  A    between atoms: N_8  and  S_9
REMARK    5  A    between atoms: S_9  and  C_10
REMARK    6  A    between atoms: C_18  and  N_19
REMARK                            x       y       z     vdW  Elec       q    Type
REMARK                         _______ _______ _______ _____ _____    ______ ____
ROOT
ATOM      1  C   UNL     1       4.504   7.049  16.959  0.00  0.00    +0.000 C 
ATOM      2  N   UNL     1       3.477   6.841  17.950  0.00  0.00    +0.000 N 
ATOM      3  C   UNL     1       2.530   7.751  18.367  0.00  0.00    +0.000 A 
ATOM      4  N   UNL     1       1.860   7.261  19.400  0.00  0.00    +0.000 NA
ATOM      5  C   UNL     1       2.359   6.002  19.632  0.00  0.00    +0.000 A 
ATOM      6  C   UNL     1       2.023   5.066  20.626  0.00  0.00    +0.000 A 
ATOM      7  C   UNL     1       2.690   3.827  20.614  0.00  0.00    +0.000 A 
ATOM      8  C   UNL     1       3.655   3.522  19.646  0.00  0.00    +0.000 A 
ATOM      9  C   UNL     1       4.005   4.459  18.671  0.00  0.00    +0.000 A 
ATOM     10  C   UNL     1       3.347   5.694  18.703  0.00  0.00    +0.000 A 
ENDROOT
BRANCH   7  11
ATOM     11  N   UNL     1       2.377   2.829  21.647  0.00  0.00    +0.000 N 
ATOM     12  O   UNL     1       1.229   2.808  22.103  0.00  0.00    +0.000 OA
ATOM     13  O   UNL     1       3.288   2.062  22.001  0.00  0.00    +0.000 OA
ENDBRANCH   7  11
BRANCH   3  14
ATOM     14  C   UNL     1       2.377   9.148  17.823  0.00  0.00    +0.000 C 
BRANCH  14  15
ATOM     15  N   UNL     1       1.420  10.027  18.468  0.00  0.00    +0.000 NA
ATOM     16  C   UNL     1      -0.005   9.858  18.242  0.00  0.00    +0.000 C 
ATOM     17  C   UNL     1      -0.800  10.194  19.520  0.00  0.00    +0.000 C 
ATOM     18  N   UNL     1      -0.460  11.535  20.081  0.00  0.00    +0.000 NA
ATOM     19  C   UNL     1       1.013  11.708  20.262  0.00  0.00    +0.000 C 
ATOM     20  C   UNL     1       1.832  11.310  19.012  0.00  0.00    +0.000 C 
BRANCH  18  21
ATOM     21  S   UNL     1      -1.326  12.874  19.523  0.00  0.00    +0.000 S 
ATOM     22  C   UNL     1      -0.819  14.143  20.676  0.00  0.00    +0.000 C 
ATOM     23  O   UNL     1      -0.801  13.243  18.227  0.00  0.00    +0.000 OA
ATOM     24  O   UNL     1      -2.734  12.608  19.711  0.00  0.00    +0.000 OA
ENDBRANCH  18  21
ENDBRANCH  14  15
ENDBRANCH   3  14
TORSDOF 4
ENDMDL
