MODEL 1
REMARK VINA RESULT:      -7.4      0.000      0.000
REMARK  Name = 
REMARK  5 active torsions:
REMARK  status: ('A' for Active; 'I' for Inactive)
REMARK    1  A    between atoms: C_1  and  C_2
REMARK    2  A    between atoms: C_2  and  O_3
REMARK    3  A    between atoms: O_3  and  C_4
REMARK    4  A    between atoms: C_4  and  C_6
REMARK    5  A    between atoms: C_10  and  C_12
REMARK                            x       y       z     vdW  Elec       q    Type
REMARK                         _______ _______ _______ _____ _____    ______ ____
ROOT
ATOM      1  C   UNL     1       2.528   2.910  17.400  0.00  0.00    +0.000 C 
ATOM      2  C   UNL     1       3.739   3.663  16.825  0.00  0.00    +0.000 C 
ATOM      3  C   UNL     1       4.269   4.746  17.767  0.00  0.00    +0.000 C 
ATOM      4  N   UNL     1       3.196   5.632  18.228  0.00  0.00    +0.000 N 
ATOM      5  C   UNL     1       3.332   7.017  18.048  0.00  0.00    +0.000 C 
ATOM      6  O   UNL     1       4.273   7.510  17.428  0.00  0.00    +0.000 OA
ATOM      7  C   UNL     1       2.047   4.939  18.815  0.00  0.00    +0.000 C 
ATOM      8  C   UNL     1       1.466   3.919  17.844  0.00  0.00    +0.000 C 
ENDROOT
BRANCH   5   9
ATOM      9  C   UNL     1       2.304   7.959  18.580  0.00  0.00    +0.000 A 
ATOM     10  C   UNL     1       1.630   8.872  17.742  0.00  0.00    +0.000 A 
ATOM     11  C   UNL     1       0.781   9.843  18.278  0.00  0.00    +0.000 A 
ATOM     12  C   UNL     1       0.545   9.807  19.631  0.00  0.00    +0.000 A 
ATOM     13  C   UNL     1       1.111   8.848  20.440  0.00  0.00    +0.000 A 
ATOM     14  C   UNL     1       1.996   7.911  19.949  0.00  0.00    +0.000 A 
ATOM     15  O   UNL     1       0.707   8.967  21.735  0.00  0.00    +0.000 OA
ATOM     16  C   UNL     1      -0.151  10.124  21.651  0.00  0.00    +0.000 C 
ATOM     17  O   UNL     1      -0.250  10.668  20.319  0.00  0.00    +0.000 OA
ENDBRANCH   5   9
BRANCH   1  18
ATOM     18  C   UNL     1       2.845   1.972  18.558  0.00  0.00    +0.000 C 
ATOM     19  O   UNL     1       3.876   1.309  18.631  0.00  0.00    +0.000 OA
BRANCH  18  20
ATOM     20  O   UNL     1       1.893   2.008  19.523  0.00  0.00    +0.000 OA
BRANCH  20  22
ATOM     21  C   UNL     1       1.339   2.791  21.753  0.00  0.00    +0.000 C 
ATOM     22  C   UNL     1       2.391   2.150  20.862  0.00  0.00    +0.000 C 
ENDBRANCH  20  22
ENDBRANCH  18  20
ENDBRANCH   1  18
TORSDOF 4
ENDMDL
MODEL 2
REMARK VINA RESULT:      -7.3      3.391      5.294
REMARK  Name = 
REMARK  5 active torsions:
REMARK  status: ('A' for Active; 'I' for Inactive)
REMARK    1  A    between atoms: C_1  and  C_2
REMARK    2  A    between atoms: C_2  and  O_3
REMARK    3  A    between atoms: O_3  and  C_4
REMARK    4  A    between atoms: C_4  and  C_6
REMARK    5  A    between atoms: C_10  and  C_12
REMARK                            x       y       z     vdW  Elec       q    Type
REMARK                         _______ _______ _______ _____ _____    ______ ____
ROOT
ATOM      1  C   UNL     1       1.395   4.266  17.887  0.00  0.00    +0.000 C 
ATOM      2  C   UNL     1       2.026   3.433  16.760  0.00  0.00    +0.000 C 
ATOM      3  C   UNL     1       3.419   2.908  17.117  0.00  0.00    +0.000 C 
ATOM      4  N   UNL     1       4.289   3.981  17.608  0.00  0.00    +0.000 N 
ATOM      5  C   UNL     1       5.533   4.187  16.990  0.00  0.00    +0.000 C 
ATOM      6  O   UNL     1       5.877   3.567  15.985  0.00  0.00    +0.000 OA
ATOM      7  C   UNL     1       3.724   4.764  18.709  0.00  0.00    +0.000 C 
ATOM      8  C   UNL     1       2.374   5.358  18.324  0.00  0.00    +0.000 C 
ENDROOT
BRANCH   5   9
ATOM      9  C   UNL     1       6.484   5.210  17.515  0.00  0.00    +0.000 A 
ATOM     10  C   UNL     1       7.408   4.907  18.537  0.00  0.00    +0.000 A 
ATOM     11  C   UNL     1       8.187   5.911  19.116  0.00  0.00    +0.000 A 
ATOM     12  C   UNL     1       8.098   7.175  18.584  0.00  0.00    +0.000 A 
ATOM     13  C   UNL     1       7.283   7.454  17.512  0.00  0.00    +0.000 A 
ATOM     14  C   UNL     1       6.460   6.496  16.954  0.00  0.00    +0.000 A 
ATOM     15  O   UNL     1       7.383   8.753  17.115  0.00  0.00    +0.000 OA
ATOM     16  C   UNL     1       8.330   9.262  18.077  0.00  0.00    +0.000 C 
ATOM     17  O   UNL     1       8.782   8.266  19.019  0.00  0.00    +0.000 OA
ENDBRANCH   5   9
BRANCH   1  18
ATOM     18  C   UNL     1       0.956   3.467  19.108  0.00  0.00    +0.000 C 
ATOM     19  O   UNL     1       0.342   2.406  19.040  0.00  0.00    +0.000 OA
BRANCH  18  20
ATOM     20  O   UNL     1       1.381   4.028  20.268  0.00  0.00    +0.000 OA
BRANCH  20  22
ATOM     21  C   UNL     1       2.724   2.530  21.626  0.00  0.00    +0.000 C 
ATOM     22  C   UNL     1       1.356   3.156  21.408  0.00  0.00    +0.000 C 
ENDBRANCH  20  22
ENDBRANCH  18  20
ENDBRANCH   1  18
TORSDOF 4
ENDMDL
MODEL 3
REMARK VINA RESULT:      -7.3      2.438      4.449
REMARK  Name = 
REMARK  5 active torsions:
REMARK  status: ('A' for Active; 'I' for Inactive)
REMARK    1  A    between atoms: C_1  and  C_2
REMARK    2  A    between atoms: C_2  and  O_3
REMARK    3  A    between atoms: O_3  and  C_4
REMARK    4  A    between atoms: C_4  and  C_6
REMARK    5  A    between atoms: C_10  and  C_12
REMARK                            x       y       z     vdW  Elec       q    Type
REMARK                         _______ _______ _______ _____ _____    ______ ____
ROOT
ATOM      1  C   UNL     1       6.629   4.819  17.522  0.00  0.00    +0.000 C 
ATOM      2  C   UNL     1       5.451   3.868  17.255  0.00  0.00    +0.000 C 
ATOM      3  C   UNL     1       4.216   4.588  16.710  0.00  0.00    +0.000 C 
ATOM      4  N   UNL     1       3.857   5.744  17.538  0.00  0.00    +0.000 N 
ATOM      5  C   UNL     1       2.553   5.839  18.048  0.00  0.00    +0.000 C 
ATOM      6  O   UNL     1       1.726   4.938  17.909  0.00  0.00    +0.000 OA
ATOM      7  C   UNL     1       4.954   6.685  17.774  0.00  0.00    +0.000 C 
ATOM      8  C   UNL     1       6.155   5.983  18.396  0.00  0.00    +0.000 C 
ENDROOT
BRANCH   5   9
ATOM      9  C   UNL     1       2.122   7.040  18.821  0.00  0.00    +0.000 A 
ATOM     10  C   UNL     1       1.960   7.002  20.222  0.00  0.00    +0.000 A 
ATOM     11  C   UNL     1       1.418   8.090  20.910  0.00  0.00    +0.000 A 
ATOM     12  C   UNL     1       1.149   9.229  20.190  0.00  0.00    +0.000 A 
ATOM     13  C   UNL     1       1.411   9.313  18.842  0.00  0.00    +0.000 A 
ATOM     14  C   UNL     1       1.895   8.238  18.125  0.00  0.00    +0.000 A 
ATOM     15  O   UNL     1       1.116  10.544  18.339  0.00  0.00    +0.000 OA
ATOM     16  C   UNL     1       0.614  11.210  19.516  0.00  0.00    +0.000 C 
ATOM     17  O   UNL     1       0.624  10.377  20.694  0.00  0.00    +0.000 OA
ENDBRANCH   5   9
BRANCH   1  18
ATOM     18  C   UNL     1       7.304   5.371  16.272  0.00  0.00    +0.000 C 
ATOM     19  O   UNL     1       7.723   6.522  16.179  0.00  0.00    +0.000 OA
BRANCH  18  20
ATOM     20  O   UNL     1       7.448   4.428  15.308  0.00  0.00    +0.000 OA
BRANCH  20  22
ATOM     21  C   UNL     1       5.986   3.793  13.476  0.00  0.00    +0.000 C 
ATOM     22  C   UNL     1       6.979   4.815  14.007  0.00  0.00    +0.000 C 
ENDBRANCH  20  22
ENDBRANCH  18  20
ENDBRANCH   1  18
TORSDOF 4
ENDMDL
MODEL 4
REMARK VINA RESULT:      -7.2      2.401      4.185
REMARK  Name = 
REMARK  5 active torsions:
REMARK  status: ('A' for Active; 'I' for Inactive)
REMARK    1  A    between atoms: C_1  and  C_2
REMARK    2  A    between atoms: C_2  and  O_3
REMARK    3  A    between atoms: O_3  and  C_4
REMARK    4  A    between atoms: C_4  and  C_6
REMARK    5  A    between atoms: C_10  and  C_12
REMARK                            x       y       z     vdW  Elec       q    Type
REMARK                         _______ _______ _______ _____ _____    ______ ____
ROOT
ATOM      1  C   UNL     1       6.858   5.208  17.230  0.00  0.00    +0.000 C 
ATOM      2  C   UNL     1       5.997   4.138  17.921  0.00  0.00    +0.000 C 
ATOM      3  C   UNL     1       4.511   4.257  17.577  0.00  0.00    +0.000 C 
ATOM      4  N   UNL     1       4.018   5.622  17.778  0.00  0.00    +0.000 N 
ATOM      5  C   UNL     1       2.900   5.829  18.601  0.00  0.00    +0.000 C 
ATOM      6  O   UNL     1       2.378   4.917  19.241  0.00  0.00    +0.000 OA
ATOM      7  C   UNL     1       4.800   6.656  17.097  0.00  0.00    +0.000 C 
ATOM      8  C   UNL     1       6.267   6.593  17.505  0.00  0.00    +0.000 C 
ENDROOT
BRANCH   5   9
ATOM      9  C   UNL     1       2.314   7.192  18.762  0.00  0.00    +0.000 A 
ATOM     10  C   UNL     1       2.159   8.067  17.666  0.00  0.00    +0.000 A 
ATOM     11  C   UNL     1       1.747   9.388  17.859  0.00  0.00    +0.000 A 
ATOM     12  C   UNL     1       1.399   9.769  19.132  0.00  0.00    +0.000 A 
ATOM     13  C   UNL     1       1.439   8.888  20.189  0.00  0.00    +0.000 A 
ATOM     14  C   UNL     1       1.895   7.593  20.040  0.00  0.00    +0.000 A 
ATOM     15  O   UNL     1       1.009   9.457  21.348  0.00  0.00    +0.000 OA
ATOM     16  C   UNL     1       0.722  10.800  20.905  0.00  0.00    +0.000 C 
ATOM     17  O   UNL     1       0.976  11.007  19.500  0.00  0.00    +0.000 OA
ENDBRANCH   5   9
BRANCH   1  18
ATOM     18  C   UNL     1       7.027   5.024  15.726  0.00  0.00    +0.000 C 
ATOM     19  O   UNL     1       7.729   5.750  15.028  0.00  0.00    +0.000 OA
BRANCH  18  20
ATOM     20  O   UNL     1       6.369   3.930  15.267  0.00  0.00    +0.000 OA
BRANCH  20  22
ATOM     21  C   UNL     1       6.123   3.546  12.882  0.00  0.00    +0.000 C 
ATOM     22  C   UNL     1       5.520   4.166  14.133  0.00  0.00    +0.000 C 
ENDBRANCH  20  22
ENDBRANCH  18  20
ENDBRANCH   1  18
TORSDOF 4
ENDMDL
MODEL 5
REMARK VINA RESULT:      -7.0      4.028      6.567
REMARK  Name = 
REMARK  5 active torsions:
REMARK  status: ('A' for Active; 'I' for Inactive)
REMARK    1  A    between atoms: C_1  and  C_2
REMARK    2  A    between atoms: C_2  and  O_3
REMARK    3  A    between atoms: O_3  and  C_4
REMARK    4  A    between atoms: C_4  and  C_6
REMARK    5  A    between atoms: C_10  and  C_12
REMARK                            x       y       z     vdW  Elec       q    Type
REMARK                         _______ _______ _______ _____ _____    ______ ____
ROOT
ATOM      1  C   UNL     1       7.775   6.217  17.844  0.00  0.00    +0.000 C 
ATOM      2  C   UNL     1       7.523   5.432  16.547  0.00  0.00    +0.000 C 
ATOM      3  C   UNL     1       6.056   5.453  16.113  0.00  0.00    +0.000 C 
ATOM      4  N   UNL     1       5.164   5.068  17.211  0.00  0.00    +0.000 N 
ATOM      5  C   UNL     1       4.252   4.019  17.012  0.00  0.00    +0.000 C 
ATOM      6  O   UNL     1       4.241   3.344  15.983  0.00  0.00    +0.000 OA
ATOM      7  C   UNL     1       5.359   5.829  18.446  0.00  0.00    +0.000 C 
ATOM      8  C   UNL     1       6.803   5.738  18.925  0.00  0.00    +0.000 C 
ENDROOT
BRANCH   5   9
ATOM      9  C   UNL     1       3.269   3.654  18.073  0.00  0.00    +0.000 A 
ATOM     10  C   UNL     1       1.878   3.786  17.873  0.00  0.00    +0.000 A 
ATOM     11  C   UNL     1       0.981   3.580  18.924  0.00  0.00    +0.000 A 
ATOM     12  C   UNL     1       1.493   3.142  20.122  0.00  0.00    +0.000 A 
ATOM     13  C   UNL     1       2.837   2.900  20.291  0.00  0.00    +0.000 A 
ATOM     14  C   UNL     1       3.753   3.148  19.289  0.00  0.00    +0.000 A 
ATOM     15  O   UNL     1       3.119   2.427  21.536  0.00  0.00    +0.000 OA
ATOM     16  C   UNL     1       1.807   2.427  22.135  0.00  0.00    +0.000 C 
ATOM     17  O   UNL     1       0.770   2.889  21.245  0.00  0.00    +0.000 OA
ENDBRANCH   5   9
BRANCH   1  18
ATOM     18  C   UNL     1       7.670   7.732  17.709  0.00  0.00    +0.000 C 
ATOM     19  O   UNL     1       6.902   8.292  16.933  0.00  0.00    +0.000 OA
BRANCH  18  20
ATOM     20  O   UNL     1       8.471   8.382  18.590  0.00  0.00    +0.000 OA
BRANCH  20  22
ATOM     21  C   UNL     1       9.478  10.424  19.433  0.00  0.00    +0.000 C 
ATOM     22  C   UNL     1       8.612   9.791  18.354  0.00  0.00    +0.000 C 
ENDBRANCH  20  22
ENDBRANCH  18  20
ENDBRANCH   1  18
TORSDOF 4
ENDMDL
MODEL 6
REMARK VINA RESULT:      -7.0      2.857      4.837
REMARK  Name = 
REMARK  5 active torsions:
REMARK  status: ('A' for Active; 'I' for Inactive)
REMARK    1  A    between atoms: C_1  and  C_2
REMARK    2  A    between atoms: C_2  and  O_3
REMARK    3  A    between atoms: O_3  and  C_4
REMARK    4  A    between atoms: C_4  and  C_6
REMARK    5  A    between atoms: C_10  and  C_12
REMARK                            x       y       z     vdW  Elec       q    Type
REMARK                         _______ _______ _______ _____ _____    ______ ____
ROOT
ATOM      1  C   UNL     1       6.877   4.851  15.920  0.00  0.00    +0.000 C 
ATOM      2  C   UNL     1       6.137   3.667  16.564  0.00  0.00    +0.000 C 
ATOM      3  C   UNL     1       4.616   3.828  16.532  0.00  0.00    +0.000 C 
ATOM      4  N   UNL     1       4.200   5.131  17.058  0.00  0.00    +0.000 N 
ATOM      5  C   UNL     1       3.261   5.178  18.101  0.00  0.00    +0.000 C 
ATOM      6  O   UNL     1       2.848   4.162  18.658  0.00  0.00    +0.000 OA
ATOM      7  C   UNL     1       4.864   6.277  16.433  0.00  0.00    +0.000 C 
ATOM      8  C   UNL     1       6.379   6.159  16.539  0.00  0.00    +0.000 C 
ENDROOT
BRANCH   5   9
ATOM      9  C   UNL     1       2.748   6.485  18.605  0.00  0.00    +0.000 A 
ATOM     10  C   UNL     1       2.343   6.655  19.947  0.00  0.00    +0.000 A 
ATOM     11  C   UNL     1       1.730   7.838  20.363  0.00  0.00    +0.000 A 
ATOM     12  C   UNL     1       1.632   8.862  19.452  0.00  0.00    +0.000 A 
ATOM     13  C   UNL     1       2.126   8.743  18.173  0.00  0.00    +0.000 A 
ATOM     14  C   UNL     1       2.688   7.569  17.716  0.00  0.00    +0.000 A 
ATOM     15  O   UNL     1       1.968   9.889  17.455  0.00  0.00    +0.000 OA
ATOM     16  C   UNL     1       1.294  10.727  18.417  0.00  0.00    +0.000 C 
ATOM     17  O   UNL     1       1.069  10.077  19.684  0.00  0.00    +0.000 OA
ENDBRANCH   5   9
BRANCH   1  18
ATOM     18  C   UNL     1       6.758   4.935  14.404  0.00  0.00    +0.000 C 
ATOM     19  O   UNL     1       7.489   5.628  13.703  0.00  0.00    +0.000 OA
BRANCH  18  20
ATOM     20  O   UNL     1       5.798   4.108  13.918  0.00  0.00    +0.000 OA
BRANCH  20  22
ATOM     21  C   UNL     1       4.897   3.299  11.814  0.00  0.00    +0.000 C 
ATOM     22  C   UNL     1       6.133   3.448  12.688  0.00  0.00    +0.000 C 
ENDBRANCH  20  22
ENDBRANCH  18  20
ENDBRANCH   1  18
TORSDOF 4
ENDMDL
MODEL 7
REMARK VINA RESULT:      -6.9      0.999      1.032
REMARK  Name = 
REMARK  5 active torsions:
REMARK  status: ('A' for Active; 'I' for Inactive)
REMARK    1  A    between atoms: C_1  and  C_2
REMARK    2  A    between atoms: C_2  and  O_3
REMARK    3  A    between atoms: O_3  and  C_4
REMARK    4  A    between atoms: C_4  and  C_6
REMARK    5  A    between atoms: C_10  and  C_12
REMARK                            x       y       z     vdW  Elec       q    Type
REMARK                         _______ _______ _______ _____ _____    ______ ____
ROOT
ATOM      1  C   UNL     1       2.968   3.619  18.006  0.00  0.00    +0.000 C 
ATOM      2  C   UNL     1       3.799   4.509  17.069  0.00  0.00    +0.000 C 
ATOM      3  C   UNL     1       4.236   5.821  17.726  0.00  0.00    +0.000 C 
ATOM      4  N   UNL     1       3.103   6.518  18.342  0.00  0.00    +0.000 N 
ATOM      5  C   UNL     1       2.849   7.852  17.985  0.00  0.00    +0.000 C 
ATOM      6  O   UNL     1       3.480   8.427  17.099  0.00  0.00    +0.000 OA
ATOM      7  C   UNL     1       2.319   5.701  19.269  0.00  0.00    +0.000 C 
ATOM      8  C   UNL     1       1.811   4.434  18.590  0.00  0.00    +0.000 C 
ENDROOT
BRANCH   5   9
ATOM      9  C   UNL     1       1.761   8.624  18.652  0.00  0.00    +0.000 A 
ATOM     10  C   UNL     1       0.811   9.359  17.910  0.00  0.00    +0.000 A 
ATOM     11  C   UNL     1      -0.108  10.192  18.552  0.00  0.00    +0.000 A 
ATOM     12  C   UNL     1      -0.123  10.187  19.926  0.00  0.00    +0.000 A 
ATOM     13  C   UNL     1       0.725   9.386  20.657  0.00  0.00    +0.000 A 
ATOM     14  C   UNL     1       1.680   8.595  20.052  0.00  0.00    +0.000 A 
ATOM     15  O   UNL     1       0.509   9.500  21.997  0.00  0.00    +0.000 OA
ATOM     16  C   UNL     1      -0.547  10.483  22.023  0.00  0.00    +0.000 C 
ATOM     17  O   UNL     1      -0.947  10.930  20.711  0.00  0.00    +0.000 OA
ENDBRANCH   5   9
BRANCH   1  18
ATOM     18  C   UNL     1       3.752   2.974  19.143  0.00  0.00    +0.000 C 
ATOM     19  O   UNL     1       4.942   3.190  19.354  0.00  0.00    +0.000 OA
BRANCH  18  20
ATOM     20  O   UNL     1       2.969   2.192  19.927  0.00  0.00    +0.000 OA
BRANCH  20  22
ATOM     21  C   UNL     1       1.427   2.670  21.741  0.00  0.00    +0.000 C 
ATOM     22  C   UNL     1       2.881   2.605  21.300  0.00  0.00    +0.000 C 
ENDBRANCH  20  22
ENDBRANCH  18  20
ENDBRANCH   1  18
TORSDOF 4
ENDMDL
MODEL 8
REMARK VINA RESULT:      -6.9      0.756      1.548
REMARK  Name = 
REMARK  5 active torsions:
REMARK  status: ('A' for Active; 'I' for Inactive)
REMARK    1  A    between atoms: C_1  and  C_2
REMARK    2  A    between atoms: C_2  and  O_3
REMARK    3  A    between atoms: O_3  and  C_4
REMARK    4  A    between atoms: C_4  and  C_6
REMARK    5  A    between atoms: C_10  and  C_12
REMARK                            x       y       z     vdW  Elec       q    Type
REMARK                         _______ _______ _______ _____ _____    ______ ____
ROOT
ATOM      1  C   UNL     1       2.474   3.091  17.331  0.00  0.00    +0.000 C 
ATOM      2  C   UNL     1       3.648   3.899  16.754  0.00  0.00    +0.000 C 
ATOM      3  C   UNL     1       4.194   4.939  17.736  0.00  0.00    +0.000 C 
ATOM      4  N   UNL     1       3.123   5.776  18.285  0.00  0.00    +0.000 N 
ATOM      5  C   UNL     1       3.226   7.172  18.179  0.00  0.00    +0.000 C 
ATOM      6  O   UNL     1       4.133   7.717  17.552  0.00  0.00    +0.000 OA
ATOM      7  C   UNL     1       2.011   5.027  18.875  0.00  0.00    +0.000 C 
ATOM      8  C   UNL     1       1.412   4.051  17.870  0.00  0.00    +0.000 C 
ENDROOT
BRANCH   5   9
ATOM      9  C   UNL     1       2.202   8.060  18.801  0.00  0.00    +0.000 A 
ATOM     10  C   UNL     1       1.896   7.991  20.177  0.00  0.00    +0.000 A 
ATOM     11  C   UNL     1       0.835   8.725  20.712  0.00  0.00    +0.000 A 
ATOM     12  C   UNL     1       0.174   9.592  19.876  0.00  0.00    +0.000 A 
ATOM     13  C   UNL     1       0.540   9.749  18.558  0.00  0.00    +0.000 A 
ATOM     14  C   UNL     1       1.547   8.998  17.988  0.00  0.00    +0.000 A 
ATOM     15  O   UNL     1      -0.214  10.691  17.926  0.00  0.00    +0.000 OA
ATOM     16  C   UNL     1      -1.111  11.083  18.986  0.00  0.00    +0.000 C 
ATOM     17  O   UNL     1      -0.876  10.382  20.225  0.00  0.00    +0.000 OA
ENDBRANCH   5   9
BRANCH   1  18
ATOM     18  C   UNL     1       2.854   2.097  18.422  0.00  0.00    +0.000 C 
ATOM     19  O   UNL     1       3.835   1.361  18.359  0.00  0.00    +0.000 OA
BRANCH  18  20
ATOM     20  O   UNL     1       2.023   2.169  19.492  0.00  0.00    +0.000 OA
BRANCH  20  22
ATOM     21  C   UNL     1       1.641   2.585  21.853  0.00  0.00    +0.000 C 
ATOM     22  C   UNL     1       2.672   2.430  20.746  0.00  0.00    +0.000 C 
ENDBRANCH  20  22
ENDBRANCH  18  20
ENDBRANCH   1  18
TORSDOF 4
ENDMDL
MODEL 9
REMARK VINA RESULT:      -6.8      3.180      6.112
REMARK  Name = 
REMARK  5 active torsions:
REMARK  status: ('A' for Active; 'I' for Inactive)
REMARK    1  A    between atoms: C_1  and  C_2
REMARK    2  A    between atoms: C_2  and  O_3
REMARK    3  A    between atoms: O_3  and  C_4
REMARK    4  A    between atoms: C_4  and  C_6
REMARK    5  A    between atoms: C_10  and  C_12
REMARK                            x       y       z     vdW  Elec       q    Type
REMARK                         _______ _______ _______ _____ _____    ______ ____
ROOT
ATOM      1  C   UNL     1       5.887   5.186  14.768  0.00  0.00    +0.000 C 
ATOM      2  C   UNL     1       5.263   6.564  15.047  0.00  0.00    +0.000 C 
ATOM      3  C   UNL     1       5.100   6.851  16.541  0.00  0.00    +0.000 C 
ATOM      4  N   UNL     1       4.419   5.751  17.231  0.00  0.00    +0.000 N 
ATOM      5  C   UNL     1       3.271   6.029  17.990  0.00  0.00    +0.000 C 
ATOM      6  O   UNL     1       2.757   7.146  18.018  0.00  0.00    +0.000 OA
ATOM      7  C   UNL     1       5.019   4.434  17.011  0.00  0.00    +0.000 C 
ATOM      8  C   UNL     1       5.104   4.110  15.524  0.00  0.00    +0.000 C 
ENDROOT
BRANCH   5   9
ATOM      9  C   UNL     1       2.600   4.954  18.777  0.00  0.00    +0.000 A 
ATOM     10  C   UNL     1       1.592   4.142  18.214  0.00  0.00    +0.000 A 
ATOM     11  C   UNL     1       0.874   3.242  19.004  0.00  0.00    +0.000 A 
ATOM     12  C   UNL     1       1.255   3.101  20.317  0.00  0.00    +0.000 A 
ATOM     13  C   UNL     1       2.312   3.807  20.845  0.00  0.00    +0.000 A 
ATOM     14  C   UNL     1       3.004   4.743  20.104  0.00  0.00    +0.000 A 
ATOM     15  O   UNL     1       2.548   3.480  22.145  0.00  0.00    +0.000 OA
ATOM     16  C   UNL     1       1.503   2.513  22.380  0.00  0.00    +0.000 C 
ATOM     17  O   UNL     1       0.673   2.274  21.225  0.00  0.00    +0.000 OA
ENDBRANCH   5   9
BRANCH   1  18
ATOM     18  C   UNL     1       7.366   5.069  15.116  0.00  0.00    +0.000 C 
ATOM     19  O   UNL     1       7.783   4.519  16.132  0.00  0.00    +0.000 OA
BRANCH  18  20
ATOM     20  O   UNL     1       8.164   5.581  14.146  0.00  0.00    +0.000 OA
BRANCH  20  22
ATOM     21  C   UNL     1       8.031   6.188  11.799  0.00  0.00    +0.000 C 
ATOM     22  C   UNL     1       7.914   5.073  12.826  0.00  0.00    +0.000 C 
ENDBRANCH  20  22
ENDBRANCH  18  20
ENDBRANCH   1  18
TORSDOF 4
ENDMDL
