MODEL 1
REMARK VINA RESULT:      -6.8      0.000      0.000
REMARK  Name = 
REMARK  8 active torsions:
REMARK  status: ('A' for Active; 'I' for Inactive)
REMARK    1  A    between atoms: C_1  and  C_2
REMARK    2  A    between atoms: C_2  and  C_3
REMARK    3  A    between atoms: C_6  and  C_7
REMARK    4  A    between atoms: C_8  and  C_9
REMARK    5  A    between atoms: N_11  and  C_12
REMARK    6  A    between atoms: C_12  and  C_13
REMARK    7  A    between atoms: C_13  and  C_14
REMARK    8  A    between atoms: C_14  and  N_15
REMARK                            x       y       z     vdW  Elec       q    Type
REMARK                         _______ _______ _______ _____ _____    ______ ____
ROOT
ATOM      1  C   UNL     1       4.612   4.077  16.718  0.00  0.00    +0.000 C 
ATOM      2  O   UNL     1       3.566   4.697  16.897  0.00  0.00    +0.000 OA
ATOM      3  N   UNL     1       4.722   2.746  17.060  0.00  0.00    +0.000 N 
ATOM      4  H   UNL     1       5.627   2.310  17.085  0.00  0.00    +0.000 HD
ENDROOT
BRANCH   1  10
ATOM      5  C   UNL     1       6.209   4.606  14.775  0.00  0.00    +0.000 A 
ATOM      6  N   UNL     1       7.351   5.269  14.565  0.00  0.00    +0.000 NA
ATOM      7  O   UNL     1       7.686   5.833  15.773  0.00  0.00    +0.000 OA
ATOM      8  C   UNL     1       6.754   5.514  16.710  0.00  0.00    +0.000 A 
ATOM      9  C   UNL     1       7.009   6.099  18.043  0.00  0.00    +0.000 C 
ATOM     10  C   UNL     1       5.786   4.707  16.138  0.00  0.00    +0.000 A 
BRANCH   5  12
ATOM     11  C   UNL     1       6.497   3.627  12.479  0.00  0.00    +0.000 C 
ATOM     12  C   UNL     1       5.547   3.909  13.633  0.00  0.00    +0.000 C 
ENDBRANCH   5  12
ENDBRANCH   1  10
BRANCH   3  13
ATOM     13  C   UNL     1       3.629   2.054  17.710  0.00  0.00    +0.000 C 
BRANCH  13  14
ATOM     14  C   UNL     1       4.001   1.661  19.134  0.00  0.00    +0.000 C 
BRANCH  14  15
ATOM     15  C   UNL     1       3.872   2.875  20.057  0.00  0.00    +0.000 C 
BRANCH  15  16
ATOM     16  N   UNL     1       2.815   2.745  21.073  0.00  0.00    +0.000 NA
ATOM     17  C   UNL     1       1.526   2.253  20.535  0.00  0.00    +0.000 C 
ATOM     18  C   UNL     1       0.815   3.257  19.613  0.00  0.00    +0.000 C 
ATOM     19  O   UNL     1       0.586   4.503  20.283  0.00  0.00    +0.000 OA
ATOM     20  C   UNL     1       1.811   5.055  20.783  0.00  0.00    +0.000 C 
ATOM     21  C   UNL     1       2.546   4.062  21.706  0.00  0.00    +0.000 C 
ENDBRANCH  15  16
ENDBRANCH  14  15
ENDBRANCH  13  14
ENDBRANCH   3  13
TORSDOF 6
ENDMDL
MODEL 2
REMARK VINA RESULT:      -6.7      1.890      2.649
REMARK  Name = 
REMARK  8 active torsions:
REMARK  status: ('A' for Active; 'I' for Inactive)
REMARK    1  A    between atoms: C_1  and  C_2
REMARK    2  A    between atoms: C_2  and  C_3
REMARK    3  A    between atoms: C_6  and  C_7
REMARK    4  A    between atoms: C_8  and  C_9
REMARK    5  A    between atoms: N_11  and  C_12
REMARK    6  A    between atoms: C_12  and  C_13
REMARK    7  A    between atoms: C_13  and  C_14
REMARK    8  A    between atoms: C_14  and  N_15
REMARK                            x       y       z     vdW  Elec       q    Type
REMARK                         _______ _______ _______ _____ _____    ______ ____
ROOT
ATOM      1  C   UNL     1       4.894   6.364  17.072  0.00  0.00    +0.000 C 
ATOM      2  O   UNL     1       4.630   7.304  16.325  0.00  0.00    +0.000 OA
ATOM      3  N   UNL     1       4.063   6.027  18.120  0.00  0.00    +0.000 N 
ATOM      4  H   UNL     1       4.384   5.389  18.825  0.00  0.00    +0.000 HD
ENDROOT
BRANCH   1  10
ATOM      5  C   UNL     1       6.342   4.654  15.814  0.00  0.00    +0.000 A 
ATOM      6  N   UNL     1       7.517   4.032  15.959  0.00  0.00    +0.000 NA
ATOM      7  O   UNL     1       8.064   4.528  17.119  0.00  0.00    +0.000 OA
ATOM      8  C   UNL     1       7.228   5.446  17.673  0.00  0.00    +0.000 A 
ATOM      9  C   UNL     1       7.740   6.062  18.914  0.00  0.00    +0.000 C 
ATOM     10  C   UNL     1       6.090   5.558  16.894  0.00  0.00    +0.000 A 
BRANCH   5  12
ATOM     11  C   UNL     1       6.325   3.894  13.420  0.00  0.00    +0.000 C 
ATOM     12  C   UNL     1       5.507   4.368  14.611  0.00  0.00    +0.000 C 
ENDBRANCH   5  12
ENDBRANCH   1  10
BRANCH   3  13
ATOM     13  C   UNL     1       2.887   6.818  18.418  0.00  0.00    +0.000 C 
BRANCH  13  14
ATOM     14  C   UNL     1       2.266   6.394  19.743  0.00  0.00    +0.000 C 
BRANCH  14  15
ATOM     15  C   UNL     1       2.965   5.136  20.264  0.00  0.00    +0.000 C 
BRANCH  15  16
ATOM     16  N   UNL     1       2.052   4.020  20.556  0.00  0.00    +0.000 NA
ATOM     17  C   UNL     1       2.744   2.757  20.904  0.00  0.00    +0.000 C 
ATOM     18  C   UNL     1       3.496   2.117  19.725  0.00  0.00    +0.000 C 
ATOM     19  O   UNL     1       2.615   1.868  18.623  0.00  0.00    +0.000 OA
ATOM     20  C   UNL     1       1.952   3.070  18.208  0.00  0.00    +0.000 C 
ATOM     21  C   UNL     1       1.196   3.734  19.376  0.00  0.00    +0.000 C 
ENDBRANCH  15  16
ENDBRANCH  14  15
ENDBRANCH  13  14
ENDBRANCH   3  13
TORSDOF 6
ENDMDL
MODEL 3
REMARK VINA RESULT:      -6.7      1.998      2.673
REMARK  Name = 
REMARK  8 active torsions:
REMARK  status: ('A' for Active; 'I' for Inactive)
REMARK    1  A    between atoms: C_1  and  C_2
REMARK    2  A    between atoms: C_2  and  C_3
REMARK    3  A    between atoms: C_6  and  C_7
REMARK    4  A    between atoms: C_8  and  C_9
REMARK    5  A    between atoms: N_11  and  C_12
REMARK    6  A    between atoms: C_12  and  C_13
REMARK    7  A    between atoms: C_13  and  C_14
REMARK    8  A    between atoms: C_14  and  N_15
REMARK                            x       y       z     vdW  Elec       q    Type
REMARK                         _______ _______ _______ _____ _____    ______ ____
ROOT
ATOM      1  C   UNL     1       5.049   6.520  16.601  0.00  0.00    +0.000 C 
ATOM      2  O   UNL     1       4.761   7.248  15.652  0.00  0.00    +0.000 OA
ATOM      3  N   UNL     1       4.283   6.502  17.747  0.00  0.00    +0.000 N 
ATOM      4  H   UNL     1       4.634   6.053  18.574  0.00  0.00    +0.000 HD
ENDROOT
BRANCH   1  10
ATOM      5  C   UNL     1       6.470   4.635  15.585  0.00  0.00    +0.000 A 
ATOM      6  N   UNL     1       7.598   3.969  15.857  0.00  0.00    +0.000 NA
ATOM      7  O   UNL     1       8.104   4.537  17.002  0.00  0.00    +0.000 OA
ATOM      8  C   UNL     1       7.289   5.541  17.423  0.00  0.00    +0.000 A 
ATOM      9  C   UNL     1       7.761   6.237  18.637  0.00  0.00    +0.000 C 
ATOM     10  C   UNL     1       6.206   5.642  16.567  0.00  0.00    +0.000 A 
BRANCH   5  12
ATOM     11  C   UNL     1       6.575   3.864  13.197  0.00  0.00    +0.000 C 
ATOM     12  C   UNL     1       5.691   4.287  14.361  0.00  0.00    +0.000 C 
ENDBRANCH   5  12
ENDBRANCH   1  10
BRANCH   3  13
ATOM     13  C   UNL     1       3.154   7.396  17.899  0.00  0.00    +0.000 C 
BRANCH  13  14
ATOM     14  C   UNL     1       2.239   6.932  19.026  0.00  0.00    +0.000 C 
BRANCH  14  15
ATOM     15  C   UNL     1       2.835   5.695  19.702  0.00  0.00    +0.000 C 
BRANCH  15  16
ATOM     16  N   UNL     1       2.649   4.449  18.941  0.00  0.00    +0.000 NA
ATOM     17  C   UNL     1       1.255   3.947  18.949  0.00  0.00    +0.000 C 
ATOM     18  C   UNL     1       0.789   3.432  20.320  0.00  0.00    +0.000 C 
ATOM     19  O   UNL     1       1.652   2.396  20.805  0.00  0.00    +0.000 OA
ATOM     20  C   UNL     1       3.013   2.843  20.868  0.00  0.00    +0.000 C 
ATOM     21  C   UNL     1       3.502   3.370  19.504  0.00  0.00    +0.000 C 
ENDBRANCH  15  16
ENDBRANCH  14  15
ENDBRANCH  13  14
ENDBRANCH   3  13
TORSDOF 6
ENDMDL
MODEL 4
REMARK VINA RESULT:      -6.7      2.212      3.804
REMARK  Name = 
REMARK  8 active torsions:
REMARK  status: ('A' for Active; 'I' for Inactive)
REMARK    1  A    between atoms: C_1  and  C_2
REMARK    2  A    between atoms: C_2  and  C_3
REMARK    3  A    between atoms: C_6  and  C_7
REMARK    4  A    between atoms: C_8  and  C_9
REMARK    5  A    between atoms: N_11  and  C_12
REMARK    6  A    between atoms: C_12  and  C_13
REMARK    7  A    between atoms: C_13  and  C_14
REMARK    8  A    between atoms: C_14  and  N_15
REMARK                            x       y       z     vdW  Elec       q    Type
REMARK                         _______ _______ _______ _____ _____    ______ ____
ROOT
ATOM      1  C   UNL     1       5.156   6.453  16.430  0.00  0.00    +0.000 C 
ATOM      2  O   UNL     1       4.966   7.202  15.473  0.00  0.00    +0.000 OA
ATOM      3  N   UNL     1       4.357   6.509  17.553  0.00  0.00    +0.000 N 
ATOM      4  H   UNL     1       4.638   6.032  18.390  0.00  0.00    +0.000 HD
ENDROOT
BRANCH   1  10
ATOM      5  C   UNL     1       7.253   5.347  17.423  0.00  0.00    +0.000 A 
ATOM      6  N   UNL     1       8.114   4.370  17.117  0.00  0.00    +0.000 NA
ATOM      7  O   UNL     1       7.659   3.824  15.940  0.00  0.00    +0.000 OA
ATOM      8  C   UNL     1       6.531   4.464  15.533  0.00  0.00    +0.000 A 
ATOM      9  C   UNL     1       5.946   3.930  14.286  0.00  0.00    +0.000 C 
ATOM     10  C   UNL     1       6.227   5.471  16.433  0.00  0.00    +0.000 A 
BRANCH   5  12
ATOM     11  C   UNL     1       8.153   7.445  18.469  0.00  0.00    +0.000 C 
ATOM     12  C   UNL     1       7.441   6.119  18.686  0.00  0.00    +0.000 C 
ENDBRANCH   5  12
ENDBRANCH   1  10
BRANCH   3  13
ATOM     13  C   UNL     1       3.311   7.505  17.670  0.00  0.00    +0.000 C 
BRANCH  13  14
ATOM     14  C   UNL     1       2.414   7.215  18.866  0.00  0.00    +0.000 C 
BRANCH  14  15
ATOM     15  C   UNL     1       2.855   5.916  19.543  0.00  0.00    +0.000 C 
BRANCH  15  16
ATOM     16  N   UNL     1       1.796   4.898  19.635  0.00  0.00    +0.000 NA
ATOM     17  C   UNL     1       2.055   3.856  20.656  0.00  0.00    +0.000 C 
ATOM     18  C   UNL     1       3.222   2.920  20.303  0.00  0.00    +0.000 C 
ATOM     19  O   UNL     1       3.008   2.279  19.039  0.00  0.00    +0.000 OA
ATOM     20  C   UNL     1       2.800   3.243  17.999  0.00  0.00    +0.000 C 
ATOM     21  C   UNL     1       1.638   4.200  18.333  0.00  0.00    +0.000 C 
ENDBRANCH  15  16
ENDBRANCH  14  15
ENDBRANCH  13  14
ENDBRANCH   3  13
TORSDOF 6
ENDMDL
MODEL 5
REMARK VINA RESULT:      -6.7      1.447      1.975
REMARK  Name = 
REMARK  8 active torsions:
REMARK  status: ('A' for Active; 'I' for Inactive)
REMARK    1  A    between atoms: C_1  and  C_2
REMARK    2  A    between atoms: C_2  and  C_3
REMARK    3  A    between atoms: C_6  and  C_7
REMARK    4  A    between atoms: C_8  and  C_9
REMARK    5  A    between atoms: N_11  and  C_12
REMARK    6  A    between atoms: C_12  and  C_13
REMARK    7  A    between atoms: C_13  and  C_14
REMARK    8  A    between atoms: C_14  and  N_15
REMARK                            x       y       z     vdW  Elec       q    Type
REMARK                         _______ _______ _______ _____ _____    ______ ____
ROOT
ATOM      1  C   UNL     1       5.426   3.795  18.000  0.00  0.00    +0.000 C 
ATOM      2  O   UNL     1       5.489   3.691  19.224  0.00  0.00    +0.000 OA
ATOM      3  N   UNL     1       4.560   3.019  17.259  0.00  0.00    +0.000 N 
ATOM      4  H   UNL     1       4.656   2.980  16.260  0.00  0.00    +0.000 HD
ENDROOT
BRANCH   1  10
ATOM      5  C   UNL     1       6.256   4.936  15.851  0.00  0.00    +0.000 A 
ATOM      6  N   UNL     1       7.162   5.848  15.484  0.00  0.00    +0.000 NA
ATOM      7  O   UNL     1       7.754   6.280  16.647  0.00  0.00    +0.000 OA
ATOM      8  C   UNL     1       7.211   5.634  17.714  0.00  0.00    +0.000 A 
ATOM      9  C   UNL     1       7.763   6.050  19.020  0.00  0.00    +0.000 C 
ATOM     10  C   UNL     1       6.255   4.738  17.269  0.00  0.00    +0.000 A 
BRANCH   5  12
ATOM     11  C   UNL     1       6.187   3.823  13.601  0.00  0.00    +0.000 C 
ATOM     12  C   UNL     1       5.397   4.297  14.811  0.00  0.00    +0.000 C 
ENDBRANCH   5  12
ENDBRANCH   1  10
BRANCH   3  13
ATOM     13  C   UNL     1       3.748   2.001  17.894  0.00  0.00    +0.000 C 
BRANCH  13  14
ATOM     14  C   UNL     1       2.267   2.347  17.798  0.00  0.00    +0.000 C 
BRANCH  14  15
ATOM     15  C   UNL     1       2.017   3.728  18.408  0.00  0.00    +0.000 C 
BRANCH  15  16
ATOM     16  N   UNL     1       0.976   3.744  19.448  0.00  0.00    +0.000 NA
ATOM     17  C   UNL     1       1.078   4.894  20.377  0.00  0.00    +0.000 C 
ATOM     18  C   UNL     1       2.304   4.837  21.302  0.00  0.00    +0.000 C 
ATOM     19  O   UNL     1       2.320   3.626  22.068  0.00  0.00    +0.000 OA
ATOM     20  C   UNL     1       2.274   2.474  21.217  0.00  0.00    +0.000 C 
ATOM     21  C   UNL     1       1.054   2.511  20.274  0.00  0.00    +0.000 C 
ENDBRANCH  15  16
ENDBRANCH  14  15
ENDBRANCH  13  14
ENDBRANCH   3  13
TORSDOF 6
ENDMDL
MODEL 6
REMARK VINA RESULT:      -6.6      2.096      2.894
REMARK  Name = 
REMARK  8 active torsions:
REMARK  status: ('A' for Active; 'I' for Inactive)
REMARK    1  A    between atoms: C_1  and  C_2
REMARK    2  A    between atoms: C_2  and  C_3
REMARK    3  A    between atoms: C_6  and  C_7
REMARK    4  A    between atoms: C_8  and  C_9
REMARK    5  A    between atoms: N_11  and  C_12
REMARK    6  A    between atoms: C_12  and  C_13
REMARK    7  A    between atoms: C_13  and  C_14
REMARK    8  A    between atoms: C_14  and  N_15
REMARK                            x       y       z     vdW  Elec       q    Type
REMARK                         _______ _______ _______ _____ _____    ______ ____
ROOT
ATOM      1  C   UNL     1       5.639   6.861  17.317  0.00  0.00    +0.000 C 
ATOM      2  O   UNL     1       5.987   8.040  17.344  0.00  0.00    +0.000 OA
ATOM      3  N   UNL     1       4.315   6.503  17.454  0.00  0.00    +0.000 N 
ATOM      4  H   UNL     1       4.073   5.543  17.619  0.00  0.00    +0.000 HD
ENDROOT
BRANCH   1  10
ATOM      5  C   UNL     1       6.756   4.983  15.965  0.00  0.00    +0.000 A 
ATOM      6  N   UNL     1       7.698   4.047  16.132  0.00  0.00    +0.000 NA
ATOM      7  O   UNL     1       8.188   4.230  17.403  0.00  0.00    +0.000 OA
ATOM      8  C   UNL     1       7.548   5.269  18.004  0.00  0.00    +0.000 A 
ATOM      9  C   UNL     1       8.024   5.565  19.371  0.00  0.00    +0.000 C 
ATOM     10  C   UNL     1       6.598   5.784  17.140  0.00  0.00    +0.000 A 
BRANCH   5  12
ATOM     11  C   UNL     1       6.206   3.837  13.798  0.00  0.00    +0.000 C 
ATOM     12  C   UNL     1       6.051   5.085  14.653  0.00  0.00    +0.000 C 
ENDBRANCH   5  12
ENDBRANCH   1  10
BRANCH   3  13
ATOM     13  C   UNL     1       3.298   7.503  17.707  0.00  0.00    +0.000 C 
BRANCH  13  14
ATOM     14  C   UNL     1       2.486   7.154  18.948  0.00  0.00    +0.000 C 
BRANCH  14  15
ATOM     15  C   UNL     1       2.217   5.648  18.984  0.00  0.00    +0.000 C 
BRANCH  15  16
ATOM     16  N   UNL     1       3.023   4.919  19.977  0.00  0.00    +0.000 NA
ATOM     17  C   UNL     1       3.656   3.689  19.446  0.00  0.00    +0.000 C 
ATOM     18  C   UNL     1       2.654   2.569  19.119  0.00  0.00    +0.000 C 
ATOM     19  O   UNL     1       1.871   2.222  20.267  0.00  0.00    +0.000 OA
ATOM     20  C   UNL     1       1.192   3.369  20.796  0.00  0.00    +0.000 C 
ATOM     21  C   UNL     1       2.176   4.509  21.127  0.00  0.00    +0.000 C 
ENDBRANCH  15  16
ENDBRANCH  14  15
ENDBRANCH  13  14
ENDBRANCH   3  13
TORSDOF 6
ENDMDL
MODEL 7
REMARK VINA RESULT:      -6.6      1.978      2.816
REMARK  Name = 
REMARK  8 active torsions:
REMARK  status: ('A' for Active; 'I' for Inactive)
REMARK    1  A    between atoms: C_1  and  C_2
REMARK    2  A    between atoms: C_2  and  C_3
REMARK    3  A    between atoms: C_6  and  C_7
REMARK    4  A    between atoms: C_8  and  C_9
REMARK    5  A    between atoms: N_11  and  C_12
REMARK    6  A    between atoms: C_12  and  C_13
REMARK    7  A    between atoms: C_13  and  C_14
REMARK    8  A    between atoms: C_14  and  N_15
REMARK                            x       y       z     vdW  Elec       q    Type
REMARK                         _______ _______ _______ _____ _____    ______ ____
ROOT
ATOM      1  C   UNL     1       4.937   6.020  17.981  0.00  0.00    +0.000 C 
ATOM      2  O   UNL     1       5.022   5.526  19.104  0.00  0.00    +0.000 OA
ATOM      3  N   UNL     1       3.751   6.555  17.524  0.00  0.00    +0.000 N 
ATOM      4  H   UNL     1       3.648   6.778  16.550  0.00  0.00    +0.000 HD
ENDROOT
BRANCH   1  10
ATOM      5  C   UNL     1       6.237   5.292  15.887  0.00  0.00    +0.000 A 
ATOM      6  N   UNL     1       7.412   5.538  15.298  0.00  0.00    +0.000 NA
ATOM      7  O   UNL     1       8.029   6.491  16.073  0.00  0.00    +0.000 OA
ATOM      8  C   UNL     1       7.235   6.821  17.126  0.00  0.00    +0.000 A 
ATOM      9  C   UNL     1       7.799   7.862  18.009  0.00  0.00    +0.000 C 
ATOM     10  C   UNL     1       6.074   6.068  17.078  0.00  0.00    +0.000 A 
BRANCH   5  12
ATOM     11  C   UNL     1       5.722   3.894  13.864  0.00  0.00    +0.000 C 
ATOM     12  C   UNL     1       5.293   4.321  15.259  0.00  0.00    +0.000 C 
ENDBRANCH   5  12
ENDBRANCH   1  10
BRANCH   3  13
ATOM     13  C   UNL     1       2.548   6.486  18.326  0.00  0.00    +0.000 C 
BRANCH  13  14
ATOM     14  C   UNL     1       1.827   5.160  18.116  0.00  0.00    +0.000 C 
BRANCH  14  15
ATOM     15  C   UNL     1       1.528   4.513  19.470  0.00  0.00    +0.000 C 
BRANCH  15  16
ATOM     16  N   UNL     1       1.374   3.050  19.413  0.00  0.00    +0.000 NA
ATOM     17  C   UNL     1       1.973   2.341  20.568  0.00  0.00    +0.000 C 
ATOM     18  C   UNL     1       3.509   2.394  20.598  0.00  0.00    +0.000 C 
ATOM     19  O   UNL     1       4.069   1.861  19.392  0.00  0.00    +0.000 OA
ATOM     20  C   UNL     1       3.562   2.545  18.239  0.00  0.00    +0.000 C 
ATOM     21  C   UNL     1       2.021   2.511  18.190  0.00  0.00    +0.000 C 
ENDBRANCH  15  16
ENDBRANCH  14  15
ENDBRANCH  13  14
ENDBRANCH   3  13
TORSDOF 6
ENDMDL
MODEL 8
REMARK VINA RESULT:      -6.6      1.548      2.221
REMARK  Name = 
REMARK  8 active torsions:
REMARK  status: ('A' for Active; 'I' for Inactive)
REMARK    1  A    between atoms: C_1  and  C_2
REMARK    2  A    between atoms: C_2  and  C_3
REMARK    3  A    between atoms: C_6  and  C_7
REMARK    4  A    between atoms: C_8  and  C_9
REMARK    5  A    between atoms: N_11  and  C_12
REMARK    6  A    between atoms: C_12  and  C_13
REMARK    7  A    between atoms: C_13  and  C_14
REMARK    8  A    between atoms: C_14  and  N_15
REMARK                            x       y       z     vdW  Elec       q    Type
REMARK                         _______ _______ _______ _____ _____    ______ ____
ROOT
ATOM      1  C   UNL     1       5.618   4.790  18.690  0.00  0.00    +0.000 C 
ATOM      2  O   UNL     1       5.174   5.459  19.621  0.00  0.00    +0.000 OA
ATOM      3  N   UNL     1       5.405   3.430  18.619  0.00  0.00    +0.000 N 
ATOM      4  H   UNL     1       5.928   2.876  17.965  0.00  0.00    +0.000 HD
ENDROOT
BRANCH   1  10
ATOM      5  C   UNL     1       6.242   5.117  16.218  0.00  0.00    +0.000 A 
ATOM      6  N   UNL     1       7.127   5.804  15.487  0.00  0.00    +0.000 NA
ATOM      7  O   UNL     1       7.851   6.555  16.382  0.00  0.00    +0.000 OA
ATOM      8  C   UNL     1       7.409   6.326  17.648  0.00  0.00    +0.000 A 
ATOM      9  C   UNL     1       8.108   7.111  18.686  0.00  0.00    +0.000 C 
ATOM     10  C   UNL     1       6.388   5.393  17.615  0.00  0.00    +0.000 A 
BRANCH   5  12
ATOM     11  C   UNL     1       5.575   4.023  14.057  0.00  0.00    +0.000 C 
ATOM     12  C   UNL     1       5.260   4.227  15.531  0.00  0.00    +0.000 C 
ENDBRANCH   5  12
ENDBRANCH   1  10
BRANCH   3  13
ATOM     13  C   UNL     1       4.712   2.732  19.682  0.00  0.00    +0.000 C 
BRANCH  13  14
ATOM     14  C   UNL     1       3.527   1.945  19.136  0.00  0.00    +0.000 C 
BRANCH  14  15
ATOM     15  C   UNL     1       3.109   2.514  17.778  0.00  0.00    +0.000 C 
BRANCH  15  16
ATOM     16  N   UNL     1       1.696   2.921  17.709  0.00  0.00    +0.000 NA
ATOM     17  C   UNL     1       1.493   4.387  17.775  0.00  0.00    +0.000 C 
ATOM     18  C   UNL     1       1.825   4.997  19.146  0.00  0.00    +0.000 C 
ATOM     19  O   UNL     1       1.057   4.381  20.187  0.00  0.00    +0.000 OA
ATOM     20  C   UNL     1       1.254   2.961  20.204  0.00  0.00    +0.000 C 
ATOM     21  C   UNL     1       0.933   2.326  18.836  0.00  0.00    +0.000 C 
ENDBRANCH  15  16
ENDBRANCH  14  15
ENDBRANCH  13  14
ENDBRANCH   3  13
TORSDOF 6
ENDMDL
MODEL 9
REMARK VINA RESULT:      -6.6      1.898      2.594
REMARK  Name = 
REMARK  8 active torsions:
REMARK  status: ('A' for Active; 'I' for Inactive)
REMARK    1  A    between atoms: C_1  and  C_2
REMARK    2  A    between atoms: C_2  and  C_3
REMARK    3  A    between atoms: C_6  and  C_7
REMARK    4  A    between atoms: C_8  and  C_9
REMARK    5  A    between atoms: N_11  and  C_12
REMARK    6  A    between atoms: C_12  and  C_13
REMARK    7  A    between atoms: C_13  and  C_14
REMARK    8  A    between atoms: C_14  and  N_15
REMARK                            x       y       z     vdW  Elec       q    Type
REMARK                         _______ _______ _______ _____ _____    ______ ____
ROOT
ATOM      1  C   UNL     1       4.648   6.028  17.182  0.00  0.00    +0.000 C 
ATOM      2  O   UNL     1       4.342   7.118  16.703  0.00  0.00    +0.000 OA
ATOM      3  N   UNL     1       3.736   5.278  17.896  0.00  0.00    +0.000 N 
ATOM      4  H   UNL     1       4.051   4.492  18.435  0.00  0.00    +0.000 HD
ENDROOT
BRANCH   1  10
ATOM      5  C   UNL     1       6.560   5.008  15.800  0.00  0.00    +0.000 A 
ATOM      6  N   UNL     1       7.787   4.513  15.995  0.00  0.00    +0.000 NA
ATOM      7  O   UNL     1       8.043   4.659  17.337  0.00  0.00    +0.000 OA
ATOM      8  C   UNL     1       6.979   5.239  17.954  0.00  0.00    +0.000 A 
ATOM      9  C   UNL     1       7.167   5.467  19.402  0.00  0.00    +0.000 C 
ATOM     10  C   UNL     1       5.980   5.470  17.025  0.00  0.00    +0.000 A 
BRANCH   5  12
ATOM     11  C   UNL     1       6.132   3.710  13.692  0.00  0.00    +0.000 C 
ATOM     12  C   UNL     1       5.994   5.039  14.420  0.00  0.00    +0.000 C 
ENDBRANCH   5  12
ENDBRANCH   1  10
BRANCH   3  13
ATOM     13  C   UNL     1       2.407   5.786  18.165  0.00  0.00    +0.000 C 
BRANCH  13  14
ATOM     14  C   UNL     1       1.366   4.680  18.048  0.00  0.00    +0.000 C 
BRANCH  14  15
ATOM     15  C   UNL     1       2.042   3.376  17.619  0.00  0.00    +0.000 C 
BRANCH  15  16
ATOM     16  N   UNL     1       1.791   2.245  18.528  0.00  0.00    +0.000 NA
ATOM     17  C   UNL     1       1.333   2.652  19.876  0.00  0.00    +0.000 C 
ATOM     18  C   UNL     1       2.412   3.361  20.710  0.00  0.00    +0.000 C 
ATOM     19  O   UNL     1       3.579   2.543  20.851  0.00  0.00    +0.000 OA
ATOM     20  C   UNL     1       4.100   2.158  19.571  0.00  0.00    +0.000 C 
ATOM     21  C   UNL     1       3.033   1.450  18.713  0.00  0.00    +0.000 C 
ENDBRANCH  15  16
ENDBRANCH  14  15
ENDBRANCH  13  14
ENDBRANCH   3  13
TORSDOF 6
ENDMDL
