MODEL 1
REMARK VINA RESULT:      -7.1      0.000      0.000
REMARK  Name = 
REMARK  5 active torsions:
REMARK  status: ('A' for Active; 'I' for Inactive)
REMARK    1  A    between atoms: C_1  and  C_2
REMARK    2  A    between atoms: C_4  and  C_5
REMARK    3  A    between atoms: C_5  and  N_6
REMARK    4  A    between atoms: N_6  and  C_7
REMARK    5  A    between atoms: N_6  and  C_8
REMARK                            x       y       z     vdW  Elec       q    Type
REMARK                         _______ _______ _______ _____ _____    ______ ____
ROOT
ATOM      1  C   UNL     1       2.892   5.248  17.606  0.00  0.00    +0.000 C 
ATOM      2  C   UNL     1       2.489   6.709  17.936  0.00  0.00    +0.000 C 
ATOM      3  C   UNL     1       2.839   7.061  19.379  0.00  0.00    +0.000 C 
ATOM      4  C   UNL     1       1.990   6.226  20.329  0.00  0.00    +0.000 C 
ATOM      5  C   UNL     1       1.909   4.770  19.942  0.00  0.00    +0.000 A 
ATOM      6  C   UNL     1       1.416   3.856  20.888  0.00  0.00    +0.000 A 
ATOM      7  C   UNL     1       1.228   2.515  20.557  0.00  0.00    +0.000 A 
ATOM      8  C   UNL     1       1.464   2.086  19.257  0.00  0.00    +0.000 A 
ATOM      9  C   UNL     1       1.919   2.992  18.299  0.00  0.00    +0.000 A 
ATOM     10  C   UNL     1       2.213   4.328  18.637  0.00  0.00    +0.000 A 
ENDROOT
BRANCH   1  11
ATOM     11  N   UNL     1       4.386   5.061  17.543  0.00  0.00    +0.000 NA
ATOM     12  C   UNL     1       4.772   4.333  16.322  0.00  0.00    +0.000 C 
BRANCH  11  13
ATOM     13  C   UNL     1       4.890   4.331  18.725  0.00  0.00    +0.000 C 
BRANCH  13  17
ATOM     14  C   UNL     1       7.518   7.600  17.508  0.00  0.00    +0.000 C 
ATOM     15  C   UNL     1       7.821   6.441  18.402  0.00  0.00    +0.000 C 
ATOM     16  C   UNL     1       6.905   5.741  18.998  0.00  0.00    +0.000 C 
ATOM     17  C   UNL     1       5.945   5.035  19.526  0.00  0.00    +0.000 C 
ENDBRANCH  13  17
ENDBRANCH  11  13
ENDBRANCH   1  11
TORSDOF 3
ENDMDL
MODEL 2
REMARK VINA RESULT:      -6.8      1.744      3.053
REMARK  Name = 
REMARK  5 active torsions:
REMARK  status: ('A' for Active; 'I' for Inactive)
REMARK    1  A    between atoms: C_1  and  C_2
REMARK    2  A    between atoms: C_4  and  C_5
REMARK    3  A    between atoms: C_5  and  N_6
REMARK    4  A    between atoms: N_6  and  C_7
REMARK    5  A    between atoms: N_6  and  C_8
REMARK                            x       y       z     vdW  Elec       q    Type
REMARK                         _______ _______ _______ _____ _____    ______ ____
ROOT
ATOM      1  C   UNL     1       3.337   5.212  17.371  0.00  0.00    +0.000 C 
ATOM      2  C   UNL     1       3.166   6.707  17.746  0.00  0.00    +0.000 C 
ATOM      3  C   UNL     1       3.384   6.924  19.241  0.00  0.00    +0.000 C 
ATOM      4  C   UNL     1       2.282   6.224  20.026  0.00  0.00    +0.000 C 
ATOM      5  C   UNL     1       1.990   4.827  19.536  0.00  0.00    +0.000 A 
ATOM      6  C   UNL     1       1.221   3.982  20.354  0.00  0.00    +0.000 A 
ATOM      7  C   UNL     1       0.838   2.716  19.914  0.00  0.00    +0.000 A 
ATOM      8  C   UNL     1       1.160   2.307  18.626  0.00  0.00    +0.000 A 
ATOM      9  C   UNL     1       1.891   3.152  17.791  0.00  0.00    +0.000 A 
ATOM     10  C   UNL     1       2.375   4.393  18.250  0.00  0.00    +0.000 A 
ENDROOT
BRANCH   1  11
ATOM     11  N   UNL     1       4.769   4.751  17.474  0.00  0.00    +0.000 NA
ATOM     12  C   UNL     1       5.683   5.901  17.586  0.00  0.00    +0.000 C 
BRANCH  11  13
ATOM     13  C   UNL     1       5.158   3.932  16.307  0.00  0.00    +0.000 C 
BRANCH  13  17
ATOM     14  C   UNL     1       5.065   3.177  12.007  0.00  0.00    +0.000 C 
ATOM     15  C   UNL     1       6.216   3.616  12.853  0.00  0.00    +0.000 C 
ATOM     16  C   UNL     1       6.074   4.166  14.020  0.00  0.00    +0.000 C 
ATOM     17  C   UNL     1       5.879   4.659  15.211  0.00  0.00    +0.000 C 
ENDBRANCH  13  17
ENDBRANCH  11  13
ENDBRANCH   1  11
TORSDOF 3
ENDMDL
MODEL 3
REMARK VINA RESULT:      -6.7      1.880      3.712
REMARK  Name = 
REMARK  5 active torsions:
REMARK  status: ('A' for Active; 'I' for Inactive)
REMARK    1  A    between atoms: C_1  and  C_2
REMARK    2  A    between atoms: C_4  and  C_5
REMARK    3  A    between atoms: C_5  and  N_6
REMARK    4  A    between atoms: N_6  and  C_7
REMARK    5  A    between atoms: N_6  and  C_8
REMARK                            x       y       z     vdW  Elec       q    Type
REMARK                         _______ _______ _______ _____ _____    ______ ____
ROOT
ATOM      1  C   UNL     1       4.190   4.150  17.749  0.00  0.00    +0.000 C 
ATOM      2  C   UNL     1       4.715   3.882  16.315  0.00  0.00    +0.000 C 
ATOM      3  C   UNL     1       5.747   4.929  15.905  0.00  0.00    +0.000 C 
ATOM      4  C   UNL     1       5.079   6.293  15.799  0.00  0.00    +0.000 C 
ATOM      5  C   UNL     1       4.157   6.603  16.953  0.00  0.00    +0.000 A 
ATOM      6  C   UNL     1       3.724   7.929  17.123  0.00  0.00    +0.000 A 
ATOM      7  C   UNL     1       2.799   8.258  18.111  0.00  0.00    +0.000 A 
ATOM      8  C   UNL     1       2.242   7.255  18.896  0.00  0.00    +0.000 A 
ATOM      9  C   UNL     1       2.637   5.930  18.713  0.00  0.00    +0.000 A 
ATOM     10  C   UNL     1       3.645   5.589  17.790  0.00  0.00    +0.000 A 
ENDROOT
BRANCH   1  11
ATOM     11  N   UNL     1       5.233   3.883  18.804  0.00  0.00    +0.000 NA
ATOM     12  C   UNL     1       4.725   2.941  19.816  0.00  0.00    +0.000 C 
BRANCH  11  13
ATOM     13  C   UNL     1       5.657   5.131  19.472  0.00  0.00    +0.000 C 
BRANCH  13  17
ATOM     14  C   UNL     1       7.583   8.676  17.801  0.00  0.00    +0.000 C 
ATOM     15  C   UNL     1       8.043   7.255  17.757  0.00  0.00    +0.000 C 
ATOM     16  C   UNL     1       7.620   6.343  18.577  0.00  0.00    +0.000 C 
ATOM     17  C   UNL     1       7.120   5.452  19.387  0.00  0.00    +0.000 C 
ENDBRANCH  13  17
ENDBRANCH  11  13
ENDBRANCH   1  11
TORSDOF 3
ENDMDL
MODEL 4
REMARK VINA RESULT:      -6.5      2.809      4.726
REMARK  Name = 
REMARK  5 active torsions:
REMARK  status: ('A' for Active; 'I' for Inactive)
REMARK    1  A    between atoms: C_1  and  C_2
REMARK    2  A    between atoms: C_4  and  C_5
REMARK    3  A    between atoms: C_5  and  N_6
REMARK    4  A    between atoms: N_6  and  C_7
REMARK    5  A    between atoms: N_6  and  C_8
REMARK                            x       y       z     vdW  Elec       q    Type
REMARK                         _______ _______ _______ _____ _____    ______ ____
ROOT
ATOM      1  C   UNL     1       4.787   5.021  16.381  0.00  0.00    +0.000 C 
ATOM      2  C   UNL     1       5.460   6.174  17.170  0.00  0.00    +0.000 C 
ATOM      3  C   UNL     1       6.437   5.629  18.208  0.00  0.00    +0.000 C 
ATOM      4  C   UNL     1       5.673   4.856  19.274  0.00  0.00    +0.000 C 
ATOM      5  C   UNL     1       4.629   3.925  18.709  0.00  0.00    +0.000 A 
ATOM      6  C   UNL     1       4.077   2.950  19.558  0.00  0.00    +0.000 A 
ATOM      7  C   UNL     1       3.042   2.125  19.121  0.00  0.00    +0.000 A 
ATOM      8  C   UNL     1       2.499   2.311  17.855  0.00  0.00    +0.000 A 
ATOM      9  C   UNL     1       3.014   3.299  17.017  0.00  0.00    +0.000 A 
ATOM     10  C   UNL     1       4.126   4.075  17.400  0.00  0.00    +0.000 A 
ENDROOT
BRANCH   1  11
ATOM     11  N   UNL     1       5.748   4.316  15.457  0.00  0.00    +0.000 NA
ATOM     12  C   UNL     1       7.142   4.595  15.840  0.00  0.00    +0.000 C 
BRANCH  11  13
ATOM     13  C   UNL     1       5.539   4.719  14.051  0.00  0.00    +0.000 C 
BRANCH  13  17
ATOM     14  C   UNL     1       3.481   3.933  10.280  0.00  0.00    +0.000 C 
ATOM     15  C   UNL     1       4.086   2.956  11.236  0.00  0.00    +0.000 C 
ATOM     16  C   UNL     1       4.982   3.281  12.116  0.00  0.00    +0.000 C 
ATOM     17  C   UNL     1       5.837   3.670  13.021  0.00  0.00    +0.000 C 
ENDBRANCH  13  17
ENDBRANCH  11  13
ENDBRANCH   1  11
TORSDOF 3
ENDMDL
MODEL 5
REMARK VINA RESULT:      -6.5      2.026      4.406
REMARK  Name = 
REMARK  5 active torsions:
REMARK  status: ('A' for Active; 'I' for Inactive)
REMARK    1  A    between atoms: C_1  and  C_2
REMARK    2  A    between atoms: C_4  and  C_5
REMARK    3  A    between atoms: C_5  and  N_6
REMARK    4  A    between atoms: N_6  and  C_7
REMARK    5  A    between atoms: N_6  and  C_8
REMARK                            x       y       z     vdW  Elec       q    Type
REMARK                         _______ _______ _______ _____ _____    ______ ____
ROOT
ATOM      1  C   UNL     1       4.069   5.407  18.700  0.00  0.00    +0.000 C 
ATOM      2  C   UNL     1       5.187   4.549  18.052  0.00  0.00    +0.000 C 
ATOM      3  C   UNL     1       4.629   3.676  16.932  0.00  0.00    +0.000 C 
ATOM      4  C   UNL     1       3.672   2.645  17.516  0.00  0.00    +0.000 C 
ATOM      5  C   UNL     1       2.712   3.220  18.528  0.00  0.00    +0.000 A 
ATOM      6  C   UNL     1       1.601   2.448  18.906  0.00  0.00    +0.000 A 
ATOM      7  C   UNL     1       0.733   2.884  19.905  0.00  0.00    +0.000 A 
ATOM      8  C   UNL     1       1.003   4.065  20.587  0.00  0.00    +0.000 A 
ATOM      9  C   UNL     1       2.123   4.822  20.245  0.00  0.00    +0.000 A 
ATOM     10  C   UNL     1       2.957   4.452  19.171  0.00  0.00    +0.000 A 
ENDROOT
BRANCH   1  11
ATOM     11  N   UNL     1       3.566   6.490  17.780  0.00  0.00    +0.000 NA
ATOM     12  C   UNL     1       4.689   7.201  17.145  0.00  0.00    +0.000 C 
BRANCH  11  13
ATOM     13  C   UNL     1       2.720   7.463  18.502  0.00  0.00    +0.000 C 
BRANCH  13  17
ATOM     14  C   UNL     1      -0.053  10.632  19.657  0.00  0.00    +0.000 C 
ATOM     15  C   UNL     1       0.136   9.999  18.317  0.00  0.00    +0.000 C 
ATOM     16  C   UNL     1       1.208   9.350  17.979  0.00  0.00    +0.000 C 
ATOM     17  C   UNL     1       2.280   8.658  17.711  0.00  0.00    +0.000 C 
ENDBRANCH  13  17
ENDBRANCH  11  13
ENDBRANCH   1  11
TORSDOF 3
ENDMDL
MODEL 6
REMARK VINA RESULT:      -6.5      1.498      5.517
REMARK  Name = 
REMARK  5 active torsions:
REMARK  status: ('A' for Active; 'I' for Inactive)
REMARK    1  A    between atoms: C_1  and  C_2
REMARK    2  A    between atoms: C_4  and  C_5
REMARK    3  A    between atoms: C_5  and  N_6
REMARK    4  A    between atoms: N_6  and  C_7
REMARK    5  A    between atoms: N_6  and  C_8
REMARK                            x       y       z     vdW  Elec       q    Type
REMARK                         _______ _______ _______ _____ _____    ______ ____
ROOT
ATOM      1  C   UNL     1       4.418   4.499  17.952  0.00  0.00    +0.000 C 
ATOM      2  C   UNL     1       5.305   4.270  19.203  0.00  0.00    +0.000 C 
ATOM      3  C   UNL     1       6.419   5.310  19.283  0.00  0.00    +0.000 C 
ATOM      4  C   UNL     1       7.380   5.122  18.117  0.00  0.00    +0.000 C 
ATOM      5  C   UNL     1       6.686   4.909  16.794  0.00  0.00    +0.000 A 
ATOM      6  C   UNL     1       7.445   5.025  15.617  0.00  0.00    +0.000 A 
ATOM      7  C   UNL     1       6.883   4.746  14.373  0.00  0.00    +0.000 A 
ATOM      8  C   UNL     1       5.576   4.282  14.295  0.00  0.00    +0.000 A 
ATOM      9  C   UNL     1       4.823   4.129  15.459  0.00  0.00    +0.000 A 
ATOM     10  C   UNL     1       5.338   4.501  16.717  0.00  0.00    +0.000 A 
ENDROOT
BRANCH   1  11
ATOM     11  N   UNL     1       3.575   5.744  18.062  0.00  0.00    +0.000 NA
ATOM     12  C   UNL     1       4.215   6.874  17.367  0.00  0.00    +0.000 C 
BRANCH  11  13
ATOM     13  C   UNL     1       3.338   6.113  19.473  0.00  0.00    +0.000 C 
BRANCH  13  17
ATOM     14  C   UNL     1       1.826   2.645  21.654  0.00  0.00    +0.000 C 
ATOM     15  C   UNL     1       1.131   3.477  20.625  0.00  0.00    +0.000 C 
ATOM     16  C   UNL     1       1.503   4.680  20.311  0.00  0.00    +0.000 C 
ATOM     17  C   UNL     1       1.953   5.861  19.990  0.00  0.00    +0.000 C 
ENDBRANCH  13  17
ENDBRANCH  11  13
ENDBRANCH   1  11
TORSDOF 3
ENDMDL
MODEL 7
REMARK VINA RESULT:      -6.5      1.873      5.304
REMARK  Name = 
REMARK  5 active torsions:
REMARK  status: ('A' for Active; 'I' for Inactive)
REMARK    1  A    between atoms: C_1  and  C_2
REMARK    2  A    between atoms: C_4  and  C_5
REMARK    3  A    between atoms: C_5  and  N_6
REMARK    4  A    between atoms: N_6  and  C_7
REMARK    5  A    between atoms: N_6  and  C_8
REMARK                            x       y       z     vdW  Elec       q    Type
REMARK                         _______ _______ _______ _____ _____    ______ ____
ROOT
ATOM      1  C   UNL     1       5.079   3.581  18.288  0.00  0.00    +0.000 C 
ATOM      2  C   UNL     1       5.142   4.677  19.384  0.00  0.00    +0.000 C 
ATOM      3  C   UNL     1       4.189   5.826  19.064  0.00  0.00    +0.000 C 
ATOM      4  C   UNL     1       4.655   6.543  17.804  0.00  0.00    +0.000 C 
ATOM      5  C   UNL     1       5.052   5.606  16.691  0.00  0.00    +0.000 A 
ATOM      6  C   UNL     1       5.207   6.135  15.398  0.00  0.00    +0.000 A 
ATOM      7  C   UNL     1       5.665   5.339  14.350  0.00  0.00    +0.000 A 
ATOM      8  C   UNL     1       6.039   4.023  14.595  0.00  0.00    +0.000 A 
ATOM      9  C   UNL     1       5.923   3.497  15.881  0.00  0.00    +0.000 A 
ATOM     10  C   UNL     1       5.368   4.252  16.933  0.00  0.00    +0.000 A 
ENDROOT
BRANCH   1  11
ATOM     11  N   UNL     1       3.776   2.823  18.306  0.00  0.00    +0.000 NA
ATOM     12  C   UNL     1       3.998   1.394  18.023  0.00  0.00    +0.000 C 
BRANCH  11  13
ATOM     13  C   UNL     1       2.819   3.370  17.321  0.00  0.00    +0.000 C 
BRANCH  13  17
ATOM     14  C   UNL     1       1.506   3.489  21.484  0.00  0.00    +0.000 C 
ATOM     15  C   UNL     1       0.703   3.191  20.259  0.00  0.00    +0.000 C 
ATOM     16  C   UNL     1       1.071   3.536  19.064  0.00  0.00    +0.000 C 
ATOM     17  C   UNL     1       1.514   3.853  17.879  0.00  0.00    +0.000 C 
ENDBRANCH  13  17
ENDBRANCH  11  13
ENDBRANCH   1  11
TORSDOF 3
ENDMDL
MODEL 8
REMARK VINA RESULT:      -6.5      1.073      1.472
REMARK  Name = 
REMARK  5 active torsions:
REMARK  status: ('A' for Active; 'I' for Inactive)
REMARK    1  A    between atoms: C_1  and  C_2
REMARK    2  A    between atoms: C_4  and  C_5
REMARK    3  A    between atoms: C_5  and  N_6
REMARK    4  A    between atoms: N_6  and  C_7
REMARK    5  A    between atoms: N_6  and  C_8
REMARK                            x       y       z     vdW  Elec       q    Type
REMARK                         _______ _______ _______ _____ _____    ______ ____
ROOT
ATOM      1  C   UNL     1       2.518   5.775  17.757  0.00  0.00    +0.000 C 
ATOM      2  C   UNL     1       2.010   7.120  18.337  0.00  0.00    +0.000 C 
ATOM      3  C   UNL     1       2.404   7.268  19.804  0.00  0.00    +0.000 C 
ATOM      4  C   UNL     1       1.683   6.217  20.637  0.00  0.00    +0.000 C 
ATOM      5  C   UNL     1       1.707   4.840  20.019  0.00  0.00    +0.000 A 
ATOM      6  C   UNL     1       1.346   3.744  20.821  0.00  0.00    +0.000 A 
ATOM      7  C   UNL     1       1.256   2.462  20.282  0.00  0.00    +0.000 A 
ATOM      8  C   UNL     1       1.459   2.271  18.921  0.00  0.00    +0.000 A 
ATOM      9  C   UNL     1       1.782   3.357  18.107  0.00  0.00    +0.000 A 
ATOM     10  C   UNL     1       1.977   4.643  18.649  0.00  0.00    +0.000 A 
ENDROOT
BRANCH   1  11
ATOM     11  N   UNL     1       4.018   5.742  17.606  0.00  0.00    +0.000 NA
ATOM     12  C   UNL     1       4.535   7.067  17.224  0.00  0.00    +0.000 C 
BRANCH  11  13
ATOM     13  C   UNL     1       4.437   4.747  16.597  0.00  0.00    +0.000 C 
BRANCH  13  17
ATOM     14  C   UNL     1       7.663   5.764  19.359  0.00  0.00    +0.000 C 
ATOM     15  C   UNL     1       7.747   5.060  18.044  0.00  0.00    +0.000 C 
ATOM     16  C   UNL     1       6.733   4.478  17.480  0.00  0.00    +0.000 C 
ATOM     17  C   UNL     1       5.671   3.961  16.929  0.00  0.00    +0.000 C 
ENDBRANCH  13  17
ENDBRANCH  11  13
ENDBRANCH   1  11
TORSDOF 3
ENDMDL
MODEL 9
REMARK VINA RESULT:      -6.4      1.740      2.969
REMARK  Name = 
REMARK  5 active torsions:
REMARK  status: ('A' for Active; 'I' for Inactive)
REMARK    1  A    between atoms: C_1  and  C_2
REMARK    2  A    between atoms: C_4  and  C_5
REMARK    3  A    between atoms: C_5  and  N_6
REMARK    4  A    between atoms: N_6  and  C_7
REMARK    5  A    between atoms: N_6  and  C_8
REMARK                            x       y       z     vdW  Elec       q    Type
REMARK                         _______ _______ _______ _____ _____    ______ ____
ROOT
ATOM      1  C   UNL     1       4.666   3.240  18.790  0.00  0.00    +0.000 C 
ATOM      2  C   UNL     1       4.277   3.200  17.289  0.00  0.00    +0.000 C 
ATOM      3  C   UNL     1       3.253   4.283  16.961  0.00  0.00    +0.000 C 
ATOM      4  C   UNL     1       1.945   3.987  17.684  0.00  0.00    +0.000 C 
ATOM      5  C   UNL     1       2.133   3.587  19.126  0.00  0.00    +0.000 A 
ATOM      6  C   UNL     1       1.009   3.583  19.969  0.00  0.00    +0.000 A 
ATOM      7  C   UNL     1       1.101   3.132  21.284  0.00  0.00    +0.000 A 
ATOM      8  C   UNL     1       2.303   2.613  21.752  0.00  0.00    +0.000 A 
ATOM      9  C   UNL     1       3.417   2.578  20.914  0.00  0.00    +0.000 A 
ATOM     10  C   UNL     1       3.372   3.123  19.615  0.00  0.00    +0.000 A 
ENDROOT
BRANCH   1  11
ATOM     11  N   UNL     1       5.483   4.457  19.142  0.00  0.00    +0.000 NA
ATOM     12  C   UNL     1       4.697   5.688  18.955  0.00  0.00    +0.000 C 
BRANCH  11  13
ATOM     13  C   UNL     1       6.713   4.536  18.327  0.00  0.00    +0.000 C 
BRANCH  13  17
ATOM     14  C   UNL     1       6.045   4.009  14.044  0.00  0.00    +0.000 C 
ATOM     15  C   UNL     1       6.983   4.945  14.734  0.00  0.00    +0.000 C 
ATOM     16  C   UNL     1       6.853   5.297  15.976  0.00  0.00    +0.000 C 
ATOM     17  C   UNL     1       6.711   5.573  17.243  0.00  0.00    +0.000 C 
ENDBRANCH  13  17
ENDBRANCH  11  13
ENDBRANCH   1  11
TORSDOF 3
ENDMDL
