MODEL 1
REMARK VINA RESULT:      -8.4      0.000      0.000
REMARK  Name = 
REMARK  4 active torsions:
REMARK  status: ('A' for Active; 'I' for Inactive)
REMARK    1  A    between atoms: C_2  and  O_3
REMARK    2  A    between atoms: C_2  and  C_4
REMARK    3  A    between atoms: C_8  and  C_9
REMARK    4  A    between atoms: C_20  and  C_21
REMARK                            x       y       z     vdW  Elec       q    Type
REMARK                         _______ _______ _______ _____ _____    ______ ____
ROOT
ATOM      1  C   UNL     1      -3.083  10.862  17.007  0.00  0.00    +0.000 A 
ATOM      2  C   UNL     1      -4.231  10.454  17.604  0.00  0.00    +0.000 A 
ATOM      3  C   UNL     1      -4.885  11.527  18.146  0.00  0.00    +0.000 A 
ATOM      4  C   UNL     1      -4.170  12.187  19.152  0.00  0.00    +0.000 A 
ATOM      5  C   UNL     1      -4.544  13.068  20.202  0.00  0.00    +0.000 A 
ATOM      6  C   UNL     1      -3.359  13.364  20.890  0.00  0.00    +0.000 A 
ATOM      7  N   UNL     1      -2.308  12.733  20.211  0.00  0.00    +0.000 N 
ATOM      8  C   UNL     1      -2.777  12.172  19.025  0.00  0.00    +0.000 A 
ATOM      9  C   UNL     1      -2.215  11.681  17.792  0.00  0.00    +0.000 A 
ATOM     10  C   UNL     1      -0.983  12.490  20.814  0.00  0.00    +0.000 C 
ATOM     11  C   UNL     1      -1.072  11.751  22.126  0.00  0.00    +0.000 C 
ATOM     12  C   UNL     1      -1.782  12.179  23.194  0.00  0.00    +0.000 C 
ATOM     13  C   UNL     1      -2.560  13.424  23.288  0.00  0.00    +0.000 A 
ATOM     14  C   UNL     1      -2.669  13.991  24.579  0.00  0.00    +0.000 A 
ATOM     15  C   UNL     1      -3.419  15.144  24.806  0.00  0.00    +0.000 A 
ATOM     16  C   UNL     1      -4.034  15.774  23.735  0.00  0.00    +0.000 A 
ATOM     17  C   UNL     1      -3.916  15.233  22.448  0.00  0.00    +0.000 A 
ATOM     18  C   UNL     1      -3.229  14.030  22.211  0.00  0.00    +0.000 A 
ENDROOT
BRANCH  11  19
ATOM     19  C   UNL     1      -0.179  10.602  22.501  0.00  0.00    +0.000 C 
ATOM     20  O   UNL     1      -0.202  10.218  23.674  0.00  0.00    +0.000 OA
ATOM     21  N   UNL     1       0.595   9.950  21.566  0.00  0.00    +0.000 N 
ATOM     22  C   UNL     1       0.872  10.371  20.195  0.00  0.00    +0.000 C 
ATOM     23  C   UNL     1       0.994   9.187  19.233  0.00  0.00    +0.000 C 
ATOM     24  O   UNL     1       1.911   8.200  19.718  0.00  0.00    +0.000 OA
ATOM     25  C   UNL     1       1.472   7.700  20.989  0.00  0.00    +0.000 C 
ATOM     26  C   UNL     1       1.435   8.829  22.024  0.00  0.00    +0.000 C 
ENDBRANCH  11  19
BRANCH   5  27
ATOM     27  C   UNL     1      -5.977  13.430  20.594  0.00  0.00    +0.000 C 
ATOM     28  C   UNL     1      -6.456  14.773  20.031  0.00  0.00    +0.000 C 
ATOM     29  C   UNL     1      -6.730  14.726  18.539  0.00  0.00    +0.000 C 
ATOM     30  C   UNL     1      -7.738  13.648  18.155  0.00  0.00    +0.000 C 
ATOM     31  C   UNL     1      -7.687  12.328  18.932  0.00  0.00    +0.000 C 
ATOM     32  C   UNL     1      -7.024  12.336  20.313  0.00  0.00    +0.000 C 
ENDBRANCH   5  27
BRANCH   1  34
ATOM     33  O   UNL     1      -2.681   9.348  15.204  0.00  0.00    +0.000 OA
ATOM     34  C   UNL     1      -3.035  10.467  15.574  0.00  0.00    +0.000 C 
BRANCH  34  35
ATOM     35  O   UNL     1      -3.439  11.406  14.690  0.00  0.00    +0.000 OA
ATOM     36  H   UNL     1      -4.372  11.380  14.480  0.00  0.00    +0.000 HD
ENDBRANCH  34  35
ENDBRANCH   1  34
TORSDOF 4
ENDMDL
MODEL 2
REMARK VINA RESULT:      -8.2      1.140      1.343
REMARK  Name = 
REMARK  4 active torsions:
REMARK  status: ('A' for Active; 'I' for Inactive)
REMARK    1  A    between atoms: C_2  and  O_3
REMARK    2  A    between atoms: C_2  and  C_4
REMARK    3  A    between atoms: C_8  and  C_9
REMARK    4  A    between atoms: C_20  and  C_21
REMARK                            x       y       z     vdW  Elec       q    Type
REMARK                         _______ _______ _______ _____ _____    ______ ____
ROOT
ATOM      1  C   UNL     1      -3.240  10.414  16.096  0.00  0.00    +0.000 A 
ATOM      2  C   UNL     1      -4.331  10.042  16.812  0.00  0.00    +0.000 A 
ATOM      3  C   UNL     1      -4.840  11.120  17.485  0.00  0.00    +0.000 A 
ATOM      4  C   UNL     1      -3.965  11.676  18.425  0.00  0.00    +0.000 A 
ATOM      5  C   UNL     1      -4.148  12.515  19.556  0.00  0.00    +0.000 A 
ATOM      6  C   UNL     1      -2.870  12.699  20.104  0.00  0.00    +0.000 A 
ATOM      7  N   UNL     1      -1.955  12.046  19.267  0.00  0.00    +0.000 N 
ATOM      8  C   UNL     1      -2.602  11.584  18.123  0.00  0.00    +0.000 A 
ATOM      9  C   UNL     1      -2.228  11.133  16.807  0.00  0.00    +0.000 A 
ATOM     10  C   UNL     1      -0.585  11.690  19.686  0.00  0.00    +0.000 C 
ATOM     11  C   UNL     1      -0.563  10.882  20.961  0.00  0.00    +0.000 C 
ATOM     12  C   UNL     1      -1.107  11.290  22.129  0.00  0.00    +0.000 C 
ATOM     13  C   UNL     1      -1.782  12.573  22.382  0.00  0.00    +0.000 A 
ATOM     14  C   UNL     1      -1.694  13.069  23.703  0.00  0.00    +0.000 A 
ATOM     15  C   UNL     1      -2.333  14.251  24.080  0.00  0.00    +0.000 A 
ATOM     16  C   UNL     1      -3.030  14.977  23.127  0.00  0.00    +0.000 A 
ATOM     17  C   UNL     1      -3.106  14.506  21.810  0.00  0.00    +0.000 A 
ATOM     18  C   UNL     1      -2.536  13.278  21.429  0.00  0.00    +0.000 A 
ENDROOT
BRANCH  11  19
ATOM     19  C   UNL     1       0.290   9.661  21.162  0.00  0.00    +0.000 C 
ATOM     20  O   UNL     1       0.169   9.048  22.228  0.00  0.00    +0.000 OA
ATOM     21  N   UNL     1       1.134   9.196  20.178  0.00  0.00    +0.000 N 
ATOM     22  C   UNL     1       1.525   9.879  18.948  0.00  0.00    +0.000 C 
ATOM     23  C   UNL     1       1.718   8.913  17.777  0.00  0.00    +0.000 C 
ATOM     24  O   UNL     1       2.586   7.827  18.122  0.00  0.00    +0.000 OA
ATOM     25  C   UNL     1       2.042   7.090  19.227  0.00  0.00    +0.000 C 
ATOM     26  C   UNL     1       1.927   7.986  20.463  0.00  0.00    +0.000 C 
ENDBRANCH  11  19
BRANCH   5  27
ATOM     27  C   UNL     1      -5.495  12.941  20.142  0.00  0.00    +0.000 C 
ATOM     28  C   UNL     1      -6.014  14.279  19.605  0.00  0.00    +0.000 C 
ATOM     29  C   UNL     1      -6.510  14.190  18.174  0.00  0.00    +0.000 C 
ATOM     30  C   UNL     1      -7.595  13.135  17.986  0.00  0.00    +0.000 C 
ATOM     31  C   UNL     1      -7.465  11.842  18.797  0.00  0.00    +0.000 C 
ATOM     32  C   UNL     1      -6.603  11.874  20.063  0.00  0.00    +0.000 C 
ENDBRANCH   5  27
BRANCH   1  34
ATOM     33  O   UNL     1      -2.432   9.935  13.900  0.00  0.00    +0.000 OA
ATOM     34  C   UNL     1      -3.393  10.100  14.651  0.00  0.00    +0.000 C 
BRANCH  34  35
ATOM     35  O   UNL     1      -4.664   9.971  14.208  0.00  0.00    +0.000 OA
ATOM     36  H   UNL     1      -5.324  10.372  14.771  0.00  0.00    +0.000 HD
ENDBRANCH  34  35
ENDBRANCH   1  34
TORSDOF 4
ENDMDL
MODEL 3
REMARK VINA RESULT:      -7.9      0.782      1.372
REMARK  Name = 
REMARK  4 active torsions:
REMARK  status: ('A' for Active; 'I' for Inactive)
REMARK    1  A    between atoms: C_2  and  O_3
REMARK    2  A    between atoms: C_2  and  C_4
REMARK    3  A    between atoms: C_8  and  C_9
REMARK    4  A    between atoms: C_20  and  C_21
REMARK                            x       y       z     vdW  Elec       q    Type
REMARK                         _______ _______ _______ _____ _____    ______ ____
ROOT
ATOM      1  C   UNL     1      -3.370  10.762  16.869  0.00  0.00    +0.000 A 
ATOM      2  C   UNL     1      -4.526  10.357  17.452  0.00  0.00    +0.000 A 
ATOM      3  C   UNL     1      -5.201  11.437  17.955  0.00  0.00    +0.000 A 
ATOM      4  C   UNL     1      -4.514  12.127  18.959  0.00  0.00    +0.000 A 
ATOM      5  C   UNL     1      -4.918  13.029  19.979  0.00  0.00    +0.000 A 
ATOM      6  C   UNL     1      -3.750  13.354  20.685  0.00  0.00    +0.000 A 
ATOM      7  N   UNL     1      -2.680  12.716  20.043  0.00  0.00    +0.000 N 
ATOM      8  C   UNL     1      -3.118  12.123  18.862  0.00  0.00    +0.000 A 
ATOM      9  C   UNL     1      -2.526  11.608  17.653  0.00  0.00    +0.000 A 
ATOM     10  C   UNL     1      -1.365  12.502  20.679  0.00  0.00    +0.000 C 
ATOM     11  C   UNL     1      -1.475  11.793  22.007  0.00  0.00    +0.000 C 
ATOM     12  C   UNL     1      -2.212  12.240  23.049  0.00  0.00    +0.000 C 
ATOM     13  C   UNL     1      -3.003  13.480  23.096  0.00  0.00    +0.000 A 
ATOM     14  C   UNL     1      -3.144  14.076  24.370  0.00  0.00    +0.000 A 
ATOM     15  C   UNL     1      -3.910  15.227  24.553  0.00  0.00    +0.000 A 
ATOM     16  C   UNL     1      -4.508  15.824  23.455  0.00  0.00    +0.000 A 
ATOM     17  C   UNL     1      -4.357  15.254  22.184  0.00  0.00    +0.000 A 
ATOM     18  C   UNL     1      -3.655  14.052  21.991  0.00  0.00    +0.000 A 
ENDROOT
BRANCH  11  19
ATOM     19  C   UNL     1      -0.580  10.662  22.427  0.00  0.00    +0.000 C 
ATOM     20  O   UNL     1      -0.698  10.237  23.581  0.00  0.00    +0.000 OA
ATOM     21  N   UNL     1       0.301  10.069  21.550  0.00  0.00    +0.000 N 
ATOM     22  C   UNL     1       0.689  10.546  20.225  0.00  0.00    +0.000 C 
ATOM     23  C   UNL     1       0.943   9.401  19.242  0.00  0.00    +0.000 C 
ATOM     24  O   UNL     1       1.846   8.428  19.781  0.00  0.00    +0.000 OA
ATOM     25  C   UNL     1       1.309   7.871  20.989  0.00  0.00    +0.000 C 
ATOM     26  C   UNL     1       1.135   8.961  22.050  0.00  0.00    +0.000 C 
ENDBRANCH  11  19
BRANCH   5  27
ATOM     27  C   UNL     1      -6.362  13.387  20.332  0.00  0.00    +0.000 C 
ATOM     28  C   UNL     1      -7.410  12.545  19.597  0.00  0.00    +0.000 C 
ATOM     29  C   UNL     1      -7.493  11.120  20.112  0.00  0.00    +0.000 C 
ATOM     30  C   UNL     1      -7.770  11.046  21.610  0.00  0.00    +0.000 C 
ATOM     31  C   UNL     1      -7.118  12.109  22.499  0.00  0.00    +0.000 C 
ATOM     32  C   UNL     1      -6.674  13.419  21.840  0.00  0.00    +0.000 C 
ENDBRANCH   5  27
BRANCH   1  34
ATOM     33  O   UNL     1      -2.217  10.134  14.873  0.00  0.00    +0.000 OA
ATOM     34  C   UNL     1      -3.288  10.333  15.448  0.00  0.00    +0.000 C 
BRANCH  34  35
ATOM     35  O   UNL     1      -4.470  10.138  14.822  0.00  0.00    +0.000 OA
ATOM     36  H   UNL     1      -5.006  10.925  14.730  0.00  0.00    +0.000 HD
ENDBRANCH  34  35
ENDBRANCH   1  34
TORSDOF 4
ENDMDL
MODEL 4
REMARK VINA RESULT:      -7.7      9.267     13.388
REMARK  Name = 
REMARK  4 active torsions:
REMARK  status: ('A' for Active; 'I' for Inactive)
REMARK    1  A    between atoms: C_2  and  O_3
REMARK    2  A    between atoms: C_2  and  C_4
REMARK    3  A    between atoms: C_8  and  C_9
REMARK    4  A    between atoms: C_20  and  C_21
REMARK                            x       y       z     vdW  Elec       q    Type
REMARK                         _______ _______ _______ _____ _____    ______ ____
ROOT
ATOM      1  C   UNL     1       7.665  12.765  24.052  0.00  0.00    +0.000 A 
ATOM      2  C   UNL     1       7.700  11.946  22.971  0.00  0.00    +0.000 A 
ATOM      3  C   UNL     1       8.900  12.073  22.325  0.00  0.00    +0.000 A 
ATOM      4  C   UNL     1       9.146  13.353  21.816  0.00  0.00    +0.000 A 
ATOM      5  C   UNL     1      10.021  13.858  20.817  0.00  0.00    +0.000 A 
ATOM      6  C   UNL     1       9.772  15.237  20.755  0.00  0.00    +0.000 A 
ATOM      7  N   UNL     1       8.830  15.540  21.747  0.00  0.00    +0.000 N 
ATOM      8  C   UNL     1       8.591  14.417  22.536  0.00  0.00    +0.000 A 
ATOM      9  C   UNL     1       8.013  14.133  23.825  0.00  0.00    +0.000 A 
ATOM     10  C   UNL     1       8.039  16.786  21.761  0.00  0.00    +0.000 C 
ATOM     11  C   UNL     1       7.299  17.014  20.466  0.00  0.00    +0.000 C 
ATOM     12  C   UNL     1       7.891  17.081  19.252  0.00  0.00    +0.000 C 
ATOM     13  C   UNL     1       9.331  16.974  18.972  0.00  0.00    +0.000 A 
ATOM     14  C   UNL     1       9.795  17.678  17.838  0.00  0.00    +0.000 A 
ATOM     15  C   UNL     1      11.131  17.618  17.440  0.00  0.00    +0.000 A 
ATOM     16  C   UNL     1      12.030  16.886  18.199  0.00  0.00    +0.000 A 
ATOM     17  C   UNL     1      11.586  16.201  19.337  0.00  0.00    +0.000 A 
ATOM     18  C   UNL     1      10.230  16.186  19.710  0.00  0.00    +0.000 A 
ENDROOT
BRANCH  11  19
ATOM     19  C   UNL     1       5.865  17.459  20.390  0.00  0.00    +0.000 C 
ATOM     20  O   UNL     1       5.646  18.631  20.067  0.00  0.00    +0.000 OA
ATOM     21  N   UNL     1       4.822  16.586  20.609  0.00  0.00    +0.000 N 
ATOM     22  C   UNL     1       4.896  15.236  21.160  0.00  0.00    +0.000 C 
ATOM     23  C   UNL     1       3.863  14.293  20.539  0.00  0.00    +0.000 C 
ATOM     24  O   UNL     1       2.544  14.849  20.580  0.00  0.00    +0.000 OA
ATOM     25  C   UNL     1       2.508  16.089  19.860  0.00  0.00    +0.000 C 
ATOM     26  C   UNL     1       3.448  17.110  20.506  0.00  0.00    +0.000 C 
ENDBRANCH  11  19
BRANCH   5  27
ATOM     27  C   UNL     1      10.889  13.014  19.883  0.00  0.00    +0.000 C 
ATOM     28  C   UNL     1      10.834  11.510  20.170  0.00  0.00    +0.000 C 
ATOM     29  C   UNL     1       9.523  10.874  19.749  0.00  0.00    +0.000 C 
ATOM     30  C   UNL     1       9.199  11.102  18.276  0.00  0.00    +0.000 C 
ATOM     31  C   UNL     1       9.582  12.457  17.674  0.00  0.00    +0.000 C 
ATOM     32  C   UNL     1      10.669  13.273  18.381  0.00  0.00    +0.000 C 
ENDBRANCH   5  27
BRANCH   1  34
ATOM     33  O   UNL     1       6.512  11.158  25.391  0.00  0.00    +0.000 OA
ATOM     34  C   UNL     1       7.392  12.014  25.306  0.00  0.00    +0.000 C 
BRANCH  34  35
ATOM     35  O   UNL     1       8.197  12.302  26.353  0.00  0.00    +0.000 OA
ATOM     36  H   UNL     1       8.721  13.096  26.245  0.00  0.00    +0.000 HD
ENDBRANCH  34  35
ENDBRANCH   1  34
TORSDOF 4
ENDMDL
MODEL 5
REMARK VINA RESULT:      -7.5      3.023      6.401
REMARK  Name = 
REMARK  4 active torsions:
REMARK  status: ('A' for Active; 'I' for Inactive)
REMARK    1  A    between atoms: C_2  and  O_3
REMARK    2  A    between atoms: C_2  and  C_4
REMARK    3  A    between atoms: C_8  and  C_9
REMARK    4  A    between atoms: C_20  and  C_21
REMARK                            x       y       z     vdW  Elec       q    Type
REMARK                         _______ _______ _______ _____ _____    ______ ____
ROOT
ATOM      1  C   UNL     1      -2.359  14.501  23.810  0.00  0.00    +0.000 A 
ATOM      2  C   UNL     1      -3.093  15.355  23.053  0.00  0.00    +0.000 A 
ATOM      3  C   UNL     1      -4.075  14.668  22.389  0.00  0.00    +0.000 A 
ATOM      4  C   UNL     1      -3.597  13.709  21.490  0.00  0.00    +0.000 A 
ATOM      5  C   UNL     1      -4.169  13.043  20.373  0.00  0.00    +0.000 A 
ATOM      6  C   UNL     1      -3.161  12.210  19.869  0.00  0.00    +0.000 A 
ATOM      7  N   UNL     1      -2.052  12.329  20.717  0.00  0.00    +0.000 N 
ATOM      8  C   UNL     1      -2.385  13.098  21.830  0.00  0.00    +0.000 A 
ATOM      9  C   UNL     1      -1.852  13.340  23.147  0.00  0.00    +0.000 A 
ATOM     10  C   UNL     1      -0.688  11.916  20.333  0.00  0.00    +0.000 C 
ATOM     11  C   UNL     1      -0.235  12.552  19.041  0.00  0.00    +0.000 C 
ATOM     12  C   UNL     1      -0.895  12.440  17.866  0.00  0.00    +0.000 C 
ATOM     13  C   UNL     1      -2.130  11.679  17.623  0.00  0.00    +0.000 A 
ATOM     14  C   UNL     1      -2.291  11.162  16.317  0.00  0.00    +0.000 A 
ATOM     15  C   UNL     1      -3.441  10.463  15.948  0.00  0.00    +0.000 A 
ATOM     16  C   UNL     1      -4.426  10.233  16.895  0.00  0.00    +0.000 A 
ATOM     17  C   UNL     1      -4.267  10.722  18.198  0.00  0.00    +0.000 A 
ATOM     18  C   UNL     1      -3.153  11.495  18.568  0.00  0.00    +0.000 A 
ENDROOT
BRANCH  11  19
ATOM     19  C   UNL     1       1.127  13.153  18.838  0.00  0.00    +0.000 C 
ATOM     20  O   UNL     1       2.042  12.396  18.498  0.00  0.00    +0.000 OA
ATOM     21  N   UNL     1       1.347  14.508  18.961  0.00  0.00    +0.000 N 
ATOM     22  C   UNL     1       0.438  15.507  19.514  0.00  0.00    +0.000 C 
ATOM     23  C   UNL     1       0.549  16.857  18.802  0.00  0.00    +0.000 C 
ATOM     24  O   UNL     1       1.907  17.308  18.725  0.00  0.00    +0.000 OA
ATOM     25  C   UNL     1       2.704  16.355  18.007  0.00  0.00    +0.000 C 
ATOM     26  C   UNL     1       2.715  15.009  18.737  0.00  0.00    +0.000 C 
ENDBRANCH  11  19
BRANCH   5  27
ATOM     27  C   UNL     1      -5.534  13.350  19.756  0.00  0.00    +0.000 C 
ATOM     28  C   UNL     1      -6.629  12.347  20.135  0.00  0.00    +0.000 C 
ATOM     29  C   UNL     1      -7.093  12.492  21.572  0.00  0.00    +0.000 C 
ATOM     30  C   UNL     1      -7.586  13.898  21.898  0.00  0.00    +0.000 C 
ATOM     31  C   UNL     1      -6.846  15.070  21.246  0.00  0.00    +0.000 C 
ATOM     32  C   UNL     1      -6.038  14.789  19.975  0.00  0.00    +0.000 C 
ENDBRANCH   5  27
BRANCH   1  34
ATOM     33  O   UNL     1      -1.449  15.576  25.739  0.00  0.00    +0.000 OA
ATOM     34  C   UNL     1      -2.350  14.900  25.242  0.00  0.00    +0.000 C 
BRANCH  34  35
ATOM     35  O   UNL     1      -3.417  14.502  25.971  0.00  0.00    +0.000 OA
ATOM     36  H   UNL     1      -3.231  13.805  26.599  0.00  0.00    +0.000 HD
ENDBRANCH  34  35
ENDBRANCH   1  34
TORSDOF 4
ENDMDL
MODEL 6
REMARK VINA RESULT:      -7.4      2.721      5.856
REMARK  Name = 
REMARK  4 active torsions:
REMARK  status: ('A' for Active; 'I' for Inactive)
REMARK    1  A    between atoms: C_2  and  O_3
REMARK    2  A    between atoms: C_2  and  C_4
REMARK    3  A    between atoms: C_8  and  C_9
REMARK    4  A    between atoms: C_20  and  C_21
REMARK                            x       y       z     vdW  Elec       q    Type
REMARK                         _______ _______ _______ _____ _____    ______ ____
ROOT
ATOM      1  C   UNL     1       0.863  12.986  18.827  0.00  0.00    +0.000 A 
ATOM      2  C   UNL     1       0.561  11.665  18.894  0.00  0.00    +0.000 A 
ATOM      3  C   UNL     1      -0.635  11.426  18.274  0.00  0.00    +0.000 A 
ATOM      4  C   UNL     1      -1.727  12.075  18.861  0.00  0.00    +0.000 A 
ATOM      5  C   UNL     1      -3.131  11.867  18.814  0.00  0.00    +0.000 A 
ATOM      6  C   UNL     1      -3.690  12.847  19.646  0.00  0.00    +0.000 A 
ATOM      7  N   UNL     1      -2.642  13.656  20.106  0.00  0.00    +0.000 N 
ATOM      8  C   UNL     1      -1.455  13.307  19.466  0.00  0.00    +0.000 A 
ATOM      9  C   UNL     1      -0.156  13.894  19.253  0.00  0.00    +0.000 A 
ATOM     10  C   UNL     1      -2.759  14.547  21.277  0.00  0.00    +0.000 C 
ATOM     11  C   UNL     1      -3.233  13.819  22.511  0.00  0.00    +0.000 C 
ATOM     12  C   UNL     1      -4.388  13.119  22.585  0.00  0.00    +0.000 C 
ATOM     13  C   UNL     1      -5.386  12.960  21.517  0.00  0.00    +0.000 A 
ATOM     14  C   UNL     1      -6.723  12.784  21.940  0.00  0.00    +0.000 A 
ATOM     15  C   UNL     1      -7.755  12.574  21.025  0.00  0.00    +0.000 A 
ATOM     16  C   UNL     1      -7.469  12.584  19.669  0.00  0.00    +0.000 A 
ATOM     17  C   UNL     1      -6.151  12.779  19.237  0.00  0.00    +0.000 A 
ATOM     18  C   UNL     1      -5.086  12.914  20.145  0.00  0.00    +0.000 A 
ENDROOT
BRANCH  11  19
ATOM     19  C   UNL     1      -2.627  14.001  23.874  0.00  0.00    +0.000 C 
ATOM     20  O   UNL     1      -2.020  13.043  24.363  0.00  0.00    +0.000 OA
ATOM     21  N   UNL     1      -2.685  15.207  24.538  0.00  0.00    +0.000 N 
ATOM     22  C   UNL     1      -3.495  16.372  24.193  0.00  0.00    +0.000 C 
ATOM     23  C   UNL     1      -2.790  17.691  24.517  0.00  0.00    +0.000 C 
ATOM     24  O   UNL     1      -2.305  17.718  25.864  0.00  0.00    +0.000 OA
ATOM     25  C   UNL     1      -1.373  16.649  26.076  0.00  0.00    +0.000 C 
ATOM     26  C   UNL     1      -2.056  15.294  25.869  0.00  0.00    +0.000 C 
ENDBRANCH  11  19
BRANCH   5  27
ATOM     27  C   UNL     1      -3.835  10.684  18.148  0.00  0.00    +0.000 C 
ATOM     28  C   UNL     1      -4.672  11.066  16.923  0.00  0.00    +0.000 C 
ATOM     29  C   UNL     1      -3.826  11.419  15.714  0.00  0.00    +0.000 C 
ATOM     30  C   UNL     1      -2.862  10.305  15.319  0.00  0.00    +0.000 C 
ATOM     31  C   UNL     1      -2.220   9.496  16.450  0.00  0.00    +0.000 C 
ATOM     32  C   UNL     1      -2.922   9.489  17.812  0.00  0.00    +0.000 C 
ENDBRANCH   5  27
BRANCH   1  34
ATOM     33  O   UNL     1       2.834  14.250  18.350  0.00  0.00    +0.000 OA
ATOM     34  C   UNL     1       2.182  13.220  18.181  0.00  0.00    +0.000 C 
BRANCH  34  35
ATOM     35  O   UNL     1       2.649  12.210  17.413  0.00  0.00    +0.000 OA
ATOM     36  H   UNL     1       2.014  11.515  17.241  0.00  0.00    +0.000 HD
ENDBRANCH  34  35
ENDBRANCH   1  34
TORSDOF 4
ENDMDL
MODEL 7
REMARK VINA RESULT:      -7.4      2.346      6.533
REMARK  Name = 
REMARK  4 active torsions:
REMARK  status: ('A' for Active; 'I' for Inactive)
REMARK    1  A    between atoms: C_2  and  O_3
REMARK    2  A    between atoms: C_2  and  C_4
REMARK    3  A    between atoms: C_8  and  C_9
REMARK    4  A    between atoms: C_20  and  C_21
REMARK                            x       y       z     vdW  Elec       q    Type
REMARK                         _______ _______ _______ _____ _____    ______ ____
ROOT
ATOM      1  C   UNL     1      -3.319  11.240  17.298  0.00  0.00    +0.000 A 
ATOM      2  C   UNL     1      -2.089  11.791  17.460  0.00  0.00    +0.000 A 
ATOM      3  C   UNL     1      -1.668  11.624  18.752  0.00  0.00    +0.000 A 
ATOM      4  C   UNL     1      -2.474  12.256  19.706  0.00  0.00    +0.000 A 
ATOM      5  C   UNL     1      -2.266  12.659  21.051  0.00  0.00    +0.000 A 
ATOM      6  C   UNL     1      -3.462  13.268  21.456  0.00  0.00    +0.000 A 
ATOM      7  N   UNL     1      -4.372  13.154  20.397  0.00  0.00    +0.000 N 
ATOM      8  C   UNL     1      -3.834  12.354  19.391  0.00  0.00    +0.000 A 
ATOM      9  C   UNL     1      -4.318  11.626  18.245  0.00  0.00    +0.000 A 
ATOM     10  C   UNL     1      -5.590  13.979  20.281  0.00  0.00    +0.000 C 
ATOM     11  C   UNL     1      -5.296  15.457  20.358  0.00  0.00    +0.000 C 
ATOM     12  C   UNL     1      -4.660  16.054  21.391  0.00  0.00    +0.000 C 
ATOM     13  C   UNL     1      -4.171  15.400  22.615  0.00  0.00    +0.000 A 
ATOM     14  C   UNL     1      -4.143  16.204  23.777  0.00  0.00    +0.000 A 
ATOM     15  C   UNL     1      -3.656  15.715  24.989  0.00  0.00    +0.000 A 
ATOM     16  C   UNL     1      -3.231  14.397  25.065  0.00  0.00    +0.000 A 
ATOM     17  C   UNL     1      -3.274  13.585  23.925  0.00  0.00    +0.000 A 
ATOM     18  C   UNL     1      -3.688  14.082  22.677  0.00  0.00    +0.000 A 
ENDROOT
BRANCH  11  19
ATOM     19  C   UNL     1      -5.902  16.479  19.437  0.00  0.00    +0.000 C 
ATOM     20  O   UNL     1      -5.728  17.670  19.712  0.00  0.00    +0.000 OA
ATOM     21  N   UNL     1      -6.575  16.115  18.292  0.00  0.00    +0.000 N 
ATOM     22  C   UNL     1      -7.016  14.776  17.910  0.00  0.00    +0.000 C 
ATOM     23  C   UNL     1      -6.942  14.544  16.399  0.00  0.00    +0.000 C 
ATOM     24  O   UNL     1      -7.599  15.586  15.669  0.00  0.00    +0.000 OA
ATOM     25  C   UNL     1      -6.989  16.853  15.958  0.00  0.00    +0.000 C 
ATOM     26  C   UNL     1      -7.130  17.187  17.446  0.00  0.00    +0.000 C 
ENDBRANCH  11  19
BRANCH   5  27
ATOM     27  C   UNL     1      -0.934  12.608  21.802  0.00  0.00    +0.000 C 
ATOM     28  C   UNL     1      -0.778  11.386  22.712  0.00  0.00    +0.000 C 
ATOM     29  C   UNL     1      -0.551  10.098  21.943  0.00  0.00    +0.000 C 
ATOM     30  C   UNL     1       0.654  10.169  21.011  0.00  0.00    +0.000 C 
ATOM     31  C   UNL     1       0.918  11.501  20.303  0.00  0.00    +0.000 C 
ATOM     32  C   UNL     1       0.317  12.769  20.917  0.00  0.00    +0.000 C 
ENDBRANCH   5  27
BRANCH   1  34
ATOM     33  O   UNL     1      -2.523   9.293  16.167  0.00  0.00    +0.000 OA
ATOM     34  C   UNL     1      -3.330  10.221  16.216  0.00  0.00    +0.000 C 
BRANCH  34  35
ATOM     35  O   UNL     1      -4.309  10.352  15.293  0.00  0.00    +0.000 OA
ATOM     36  H   UNL     1      -3.997  10.514  14.403  0.00  0.00    +0.000 HD
ENDBRANCH  34  35
ENDBRANCH   1  34
TORSDOF 4
ENDMDL
MODEL 8
REMARK VINA RESULT:      -7.3      3.285      6.620
REMARK  Name = 
REMARK  4 active torsions:
REMARK  status: ('A' for Active; 'I' for Inactive)
REMARK    1  A    between atoms: C_2  and  O_3
REMARK    2  A    between atoms: C_2  and  C_4
REMARK    3  A    between atoms: C_8  and  C_9
REMARK    4  A    between atoms: C_20  and  C_21
REMARK                            x       y       z     vdW  Elec       q    Type
REMARK                         _______ _______ _______ _____ _____    ______ ____
ROOT
ATOM      1  C   UNL     1      -3.130  15.149  23.537  0.00  0.00    +0.000 A 
ATOM      2  C   UNL     1      -3.983  15.715  22.647  0.00  0.00    +0.000 A 
ATOM      3  C   UNL     1      -4.727  14.746  22.029  0.00  0.00    +0.000 A 
ATOM      4  C   UNL     1      -3.974  13.836  21.277  0.00  0.00    +0.000 A 
ATOM      5  C   UNL     1      -4.292  12.935  20.227  0.00  0.00    +0.000 A 
ATOM      6  C   UNL     1      -3.082  12.318  19.876  0.00  0.00    +0.000 A 
ATOM      7  N   UNL     1      -2.098  12.791  20.754  0.00  0.00    +0.000 N 
ATOM      8  C   UNL     1      -2.682  13.574  21.746  0.00  0.00    +0.000 A 
ATOM      9  C   UNL     1      -2.319  14.079  23.047  0.00  0.00    +0.000 A 
ATOM     10  C   UNL     1      -0.651  12.677  20.486  0.00  0.00    +0.000 C 
ATOM     11  C   UNL     1      -0.263  13.257  19.149  0.00  0.00    +0.000 C 
ATOM     12  C   UNL     1      -0.790  12.864  17.967  0.00  0.00    +0.000 C 
ATOM     13  C   UNL     1      -1.793  11.807  17.763  0.00  0.00    +0.000 A 
ATOM     14  C   UNL     1      -1.732  11.127  16.524  0.00  0.00    +0.000 A 
ATOM     15  C   UNL     1      -2.658  10.138  16.192  0.00  0.00    +0.000 A 
ATOM     16  C   UNL     1      -3.630   9.783  17.114  0.00  0.00    +0.000 A 
ATOM     17  C   UNL     1      -3.687  10.435  18.352  0.00  0.00    +0.000 A 
ATOM     18  C   UNL     1      -2.812  11.488  18.675  0.00  0.00    +0.000 A 
ENDROOT
BRANCH  11  19
ATOM     19  C   UNL     1       0.933  14.142  18.935  0.00  0.00    +0.000 C 
ATOM     20  O   UNL     1       2.035  13.596  18.823  0.00  0.00    +0.000 OA
ATOM     21  N   UNL     1       0.811  15.508  18.806  0.00  0.00    +0.000 N 
ATOM     22  C   UNL     1      -0.369  16.323  19.080  0.00  0.00    +0.000 C 
ATOM     23  C   UNL     1      -0.493  17.514  18.126  0.00  0.00    +0.000 C 
ATOM     24  O   UNL     1       0.719  18.275  18.067  0.00  0.00    +0.000 OA
ATOM     25  C   UNL     1       1.801  17.447  17.614  0.00  0.00    +0.000 C 
ATOM     26  C   UNL     1       2.039  16.295  18.593  0.00  0.00    +0.000 C 
ENDBRANCH  11  19
BRANCH   5  27
ATOM     27  C   UNL     1      -5.641  12.837  19.514  0.00  0.00    +0.000 C 
ATOM     28  C   UNL     1      -6.521  11.682  20.003  0.00  0.00    +0.000 C 
ATOM     29  C   UNL     1      -7.111  11.928  21.379  0.00  0.00    +0.000 C 
ATOM     30  C   UNL     1      -7.916  13.221  21.457  0.00  0.00    +0.000 C 
ATOM     31  C   UNL     1      -7.397  14.421  20.657  0.00  0.00    +0.000 C 
ATOM     32  C   UNL     1      -6.455  14.144  19.481  0.00  0.00    +0.000 C 
ENDBRANCH   5  27
BRANCH   1  34
ATOM     33  O   UNL     1      -3.906  16.752  25.129  0.00  0.00    +0.000 OA
ATOM     34  C   UNL     1      -3.319  15.692  24.907  0.00  0.00    +0.000 C 
BRANCH  34  35
ATOM     35  O   UNL     1      -2.835  14.932  25.915  0.00  0.00    +0.000 OA
ATOM     36  H   UNL     1      -2.158  14.309  25.653  0.00  0.00    +0.000 HD
ENDBRANCH  34  35
ENDBRANCH   1  34
TORSDOF 4
ENDMDL
MODEL 9
REMARK VINA RESULT:      -7.3      2.797      6.198
REMARK  Name = 
REMARK  4 active torsions:
REMARK  status: ('A' for Active; 'I' for Inactive)
REMARK    1  A    between atoms: C_2  and  O_3
REMARK    2  A    between atoms: C_2  and  C_4
REMARK    3  A    between atoms: C_8  and  C_9
REMARK    4  A    between atoms: C_20  and  C_21
REMARK                            x       y       z     vdW  Elec       q    Type
REMARK                         _______ _______ _______ _____ _____    ______ ____
ROOT
ATOM      1  C   UNL     1      -0.002  10.818  19.860  0.00  0.00    +0.000 A 
ATOM      2  C   UNL     1       0.001  11.971  19.146  0.00  0.00    +0.000 A 
ATOM      3  C   UNL     1       0.565  12.978  19.883  0.00  0.00    +0.000 A 
ATOM      4  C   UNL     1      -0.127  13.285  21.060  0.00  0.00    +0.000 A 
ATOM      5  C   UNL     1      -0.148  14.418  21.915  0.00  0.00    +0.000 A 
ATOM      6  C   UNL     1      -1.076  14.117  22.923  0.00  0.00    +0.000 A 
ATOM      7  N   UNL     1      -1.527  12.809  22.703  0.00  0.00    +0.000 N 
ATOM      8  C   UNL     1      -0.795  12.220  21.673  0.00  0.00    +0.000 A 
ATOM      9  C   UNL     1      -0.546  10.889  21.180  0.00  0.00    +0.000 A 
ATOM     10  C   UNL     1      -2.759  12.264  23.305  0.00  0.00    +0.000 C 
ATOM     11  C   UNL     1      -3.967  13.123  23.024  0.00  0.00    +0.000 C 
ATOM     12  C   UNL     1      -4.062  14.432  23.348  0.00  0.00    +0.000 C 
ATOM     13  C   UNL     1      -3.046  15.240  24.040  0.00  0.00    +0.000 A 
ATOM     14  C   UNL     1      -3.535  16.306  24.829  0.00  0.00    +0.000 A 
ATOM     15  C   UNL     1      -2.669  17.174  25.497  0.00  0.00    +0.000 A 
ATOM     16  C   UNL     1      -1.303  16.957  25.420  0.00  0.00    +0.000 A 
ATOM     17  C   UNL     1      -0.808  15.891  24.659  0.00  0.00    +0.000 A 
ATOM     18  C   UNL     1      -1.659  15.053  23.916  0.00  0.00    +0.000 A 
ENDROOT
BRANCH  11  19
ATOM     19  C   UNL     1      -5.302  12.577  22.600  0.00  0.00    +0.000 C 
ATOM     20  O   UNL     1      -6.141  12.368  23.481  0.00  0.00    +0.000 OA
ATOM     21  N   UNL     1      -5.613  12.370  21.273  0.00  0.00    +0.000 N 
ATOM     22  C   UNL     1      -4.700  12.397  20.134  0.00  0.00    +0.000 C 
ATOM     23  C   UNL     1      -5.358  12.956  18.870  0.00  0.00    +0.000 C 
ATOM     24  O   UNL     1      -6.600  12.303  18.585  0.00  0.00    +0.000 OA
ATOM     25  C   UNL     1      -7.512  12.476  19.679  0.00  0.00    +0.000 C 
ATOM     26  C   UNL     1      -6.949  11.837  20.951  0.00  0.00    +0.000 C 
ENDBRANCH  11  19
BRANCH   5  27
ATOM     27  C   UNL     1       0.552  15.751  21.647  0.00  0.00    +0.000 C 
ATOM     28  C   UNL     1       1.939  15.867  22.290  0.00  0.00    +0.000 C 
ATOM     29  C   UNL     1       2.987  15.019  21.594  0.00  0.00    +0.000 C 
ATOM     30  C   UNL     1       3.111  15.332  20.107  0.00  0.00    +0.000 C 
ATOM     31  C   UNL     1       1.823  15.671  19.350  0.00  0.00    +0.000 C 
ATOM     32  C   UNL     1       0.622  16.162  20.164  0.00  0.00    +0.000 C 
ENDBRANCH   5  27
BRANCH   1  34
ATOM     33  O   UNL     1       1.289   8.812  19.730  0.00  0.00    +0.000 OA
ATOM     34  C   UNL     1       0.703   9.723  19.144  0.00  0.00    +0.000 C 
BRANCH  34  35
ATOM     35  O   UNL     1       0.637   9.762  17.794  0.00  0.00    +0.000 OA
ATOM     36  H   UNL     1      -0.070   9.240  17.415  0.00  0.00    +0.000 HD
ENDBRANCH  34  35
ENDBRANCH   1  34
TORSDOF 4
ENDMDL
