MODEL 1
REMARK VINA RESULT:      -6.3      0.000      0.000
REMARK  Name = 
REMARK  6 active torsions:
REMARK  status: ('A' for Active; 'I' for Inactive)
REMARK    1  A    between atoms: C_1  and  C_2
REMARK    2  A    between atoms: C_2  and  C_3
REMARK    3  A    between atoms: C_3  and  C_4
REMARK    4  A    between atoms: C_4  and  N_5
REMARK    5  A    between atoms: N_18  and  C_19
REMARK    6  A    between atoms: C_19  and  C_20
REMARK                            x       y       z     vdW  Elec       q    Type
REMARK                         _______ _______ _______ _____ _____    ______ ____
ROOT
ATOM      1  N   UNL     1       4.387   4.245  17.270  0.00  0.00    +0.000 N 
ATOM      2  C   UNL     1       4.265   5.031  18.401  0.00  0.00    +0.000 C 
ATOM      3  O   UNL     1       4.541   4.631  19.511  0.00  0.00    +0.000 OA
ATOM      4  C   UNL     1       3.893   6.440  18.003  0.00  0.00    +0.000 C 
ATOM      5  C   UNL     1       3.044   7.315  18.633  0.00  0.00    +0.000 C 
ATOM      6  S   UNL     1       2.531   8.855  17.789  0.00  0.00    +0.000 S 
ATOM      7  C   UNL     1       1.428   9.244  19.154  0.00  0.00    +0.000 A 
ATOM      8  C   UNL     1       0.585  10.362  19.274  0.00  0.00    +0.000 A 
ATOM      9  C   UNL     1      -0.193  10.516  20.434  0.00  0.00    +0.000 A 
ATOM     10  C   UNL     1      -0.120   9.546  21.434  0.00  0.00    +0.000 A 
ATOM     11 CL   UNL     1      -1.055   9.718  22.872  0.00  0.00    +0.000 Cl
ATOM     12  C   UNL     1       0.708   8.423  21.294  0.00  0.00    +0.000 A 
ATOM     13  C   UNL     1       1.499   8.257  20.157  0.00  0.00    +0.000 A 
ATOM     14  N   UNL     1       2.382   7.187  19.871  0.00  0.00    +0.000 N 
ATOM     15  S   UNL     1       4.631   6.661  16.431  0.00  0.00    +0.000 S 
ATOM     16  C   UNL     1       4.889   4.929  16.195  0.00  0.00    +0.000 C 
ATOM     17  S   UNL     1       5.625   4.297  14.842  0.00  0.00    +0.000 S 
ENDROOT
BRANCH  14  18
ATOM     18  C   UNL     1       2.537   6.088  20.815  0.00  0.00    +0.000 C 
ATOM     19  C   UNL     1       1.425   5.059  20.681  0.00  0.00    +0.000 C 
ENDBRANCH  14  18
BRANCH   1  20
ATOM     20  C   UNL     1       4.125   2.799  17.344  0.00  0.00    +0.000 C 
BRANCH  20  21
ATOM     21  C   UNL     1       2.610   2.511  17.370  0.00  0.00    +0.000 C 
BRANCH  21  23
ATOM     22  C   UNL     1       0.615   2.144  18.874  0.00  0.00    +0.000 C 
ATOM     23  C   UNL     1       2.125   2.023  18.740  0.00  0.00    +0.000 C 
ENDBRANCH  21  23
ENDBRANCH  20  21
ENDBRANCH   1  20
TORSDOF 4
ENDMDL
MODEL 2
REMARK VINA RESULT:      -5.6      5.395      9.339
REMARK  Name = 
REMARK  6 active torsions:
REMARK  status: ('A' for Active; 'I' for Inactive)
REMARK    1  A    between atoms: C_1  and  C_2
REMARK    2  A    between atoms: C_2  and  C_3
REMARK    3  A    between atoms: C_3  and  C_4
REMARK    4  A    between atoms: C_4  and  N_5
REMARK    5  A    between atoms: N_18  and  C_19
REMARK    6  A    between atoms: C_19  and  C_20
REMARK                            x       y       z     vdW  Elec       q    Type
REMARK                         _______ _______ _______ _____ _____    ______ ____
ROOT
ATOM      1  N   UNL     1      -3.660  13.170  21.442  0.00  0.00    +0.000 N 
ATOM      2  C   UNL     1      -2.363  13.034  20.984  0.00  0.00    +0.000 C 
ATOM      3  O   UNL     1      -1.873  13.785  20.169  0.00  0.00    +0.000 OA
ATOM      4  C   UNL     1      -1.665  11.937  21.752  0.00  0.00    +0.000 C 
ATOM      5  C   UNL     1      -0.765  11.007  21.296  0.00  0.00    +0.000 C 
ATOM      6  S   UNL     1      -0.292   9.596  22.361  0.00  0.00    +0.000 S 
ATOM      7  C   UNL     1       0.692   8.908  21.024  0.00  0.00    +0.000 A 
ATOM      8  C   UNL     1       1.435   7.715  21.042  0.00  0.00    +0.000 A 
ATOM      9  C   UNL     1       2.171   7.345  19.903  0.00  0.00    +0.000 A 
ATOM     10  C   UNL     1       2.136   8.166  18.776  0.00  0.00    +0.000 A 
ATOM     11 CL   UNL     1       3.041   7.742  17.372  0.00  0.00    +0.000 Cl
ATOM     12  C   UNL     1       1.375   9.344  18.762  0.00  0.00    +0.000 A 
ATOM     13  C   UNL     1       0.647   9.736  19.886  0.00  0.00    +0.000 A 
ATOM     14  N   UNL     1      -0.162  10.891  20.027  0.00  0.00    +0.000 N 
ATOM     15  S   UNL     1      -2.408  11.971  23.337  0.00  0.00    +0.000 S 
ATOM     16  C   UNL     1      -3.780  12.938  22.786  0.00  0.00    +0.000 C 
ATOM     17  S   UNL     1      -5.000  13.443  23.800  0.00  0.00    +0.000 S 
ENDROOT
BRANCH  14  18
ATOM     18  C   UNL     1      -0.313  11.825  18.919  0.00  0.00    +0.000 C 
ATOM     19  C   UNL     1      -1.377  11.372  17.931  0.00  0.00    +0.000 C 
ENDBRANCH  14  18
BRANCH   1  20
ATOM     20  C   UNL     1      -4.714  13.665  20.541  0.00  0.00    +0.000 C 
BRANCH  20  21
ATOM     21  C   UNL     1      -5.579  12.503  20.011  0.00  0.00    +0.000 C 
BRANCH  21  23
ATOM     22  C   UNL     1      -6.032  10.927  18.089  0.00  0.00    +0.000 C 
ATOM     23  C   UNL     1      -5.071  11.953  18.672  0.00  0.00    +0.000 C 
ENDBRANCH  21  23
ENDBRANCH  20  21
ENDBRANCH   1  20
TORSDOF 4
ENDMDL
MODEL 3
REMARK VINA RESULT:      -5.5      2.090      2.980
REMARK  Name = 
REMARK  6 active torsions:
REMARK  status: ('A' for Active; 'I' for Inactive)
REMARK    1  A    between atoms: C_1  and  C_2
REMARK    2  A    between atoms: C_2  and  C_3
REMARK    3  A    between atoms: C_3  and  C_4
REMARK    4  A    between atoms: C_4  and  N_5
REMARK    5  A    between atoms: N_18  and  C_19
REMARK    6  A    between atoms: C_19  and  C_20
REMARK                            x       y       z     vdW  Elec       q    Type
REMARK                         _______ _______ _______ _____ _____    ______ ____
ROOT
ATOM      1  N   UNL     1       2.225   5.457  18.898  0.00  0.00    +0.000 N 
ATOM      2  C   UNL     1       2.040   6.508  19.777  0.00  0.00    +0.000 C 
ATOM      3  O   UNL     1       1.842   6.347  20.961  0.00  0.00    +0.000 OA
ATOM      4  C   UNL     1       2.269   7.817  19.058  0.00  0.00    +0.000 C 
ATOM      5  C   UNL     1       1.600   9.007  19.206  0.00  0.00    +0.000 C 
ATOM      6  S   UNL     1       1.871  10.361  18.005  0.00  0.00    +0.000 S 
ATOM      7  C   UNL     1       0.607  11.344  18.819  0.00  0.00    +0.000 A 
ATOM      8  C   UNL     1       0.168  12.631  18.460  0.00  0.00    +0.000 A 
ATOM      9  C   UNL     1      -0.820  13.262  19.235  0.00  0.00    +0.000 A 
ATOM     10  C   UNL     1      -1.352  12.590  20.336  0.00  0.00    +0.000 A 
ATOM     11 CL   UNL     1      -2.555  13.349  21.310  0.00  0.00    +0.000 Cl
ATOM     12  C   UNL     1      -0.922  11.299  20.672  0.00  0.00    +0.000 A 
ATOM     13  C   UNL     1       0.067  10.659  19.925  0.00  0.00    +0.000 A 
ATOM     14  N   UNL     1       0.605   9.366  20.138  0.00  0.00    +0.000 N 
ATOM     15  S   UNL     1       3.458   7.441  17.830  0.00  0.00    +0.000 S 
ATOM     16  C   UNL     1       3.205   5.698  17.973  0.00  0.00    +0.000 C 
ATOM     17  S   UNL     1       4.058   4.581  17.081  0.00  0.00    +0.000 S 
ENDROOT
BRANCH  14  18
ATOM     18  C   UNL     1       0.123   8.538  21.236  0.00  0.00    +0.000 C 
ATOM     19  C   UNL     1       0.560   9.076  22.590  0.00  0.00    +0.000 C 
ENDBRANCH  14  18
BRANCH   1  20
ATOM     20  C   UNL     1       1.505   4.189  19.102  0.00  0.00    +0.000 C 
BRANCH  20  21
ATOM     21  C   UNL     1       2.477   3.061  19.505  0.00  0.00    +0.000 C 
BRANCH  21  23
ATOM     22  C   UNL     1       1.374   2.676  21.744  0.00  0.00    +0.000 C 
ATOM     23  C   UNL     1       2.680   2.972  21.023  0.00  0.00    +0.000 C 
ENDBRANCH  21  23
ENDBRANCH  20  21
ENDBRANCH   1  20
TORSDOF 4
ENDMDL
MODEL 4
REMARK VINA RESULT:      -5.4      2.827      4.149
REMARK  Name = 
REMARK  6 active torsions:
REMARK  status: ('A' for Active; 'I' for Inactive)
REMARK    1  A    between atoms: C_1  and  C_2
REMARK    2  A    between atoms: C_2  and  C_3
REMARK    3  A    between atoms: C_3  and  C_4
REMARK    4  A    between atoms: C_4  and  N_5
REMARK    5  A    between atoms: N_18  and  C_19
REMARK    6  A    between atoms: C_19  and  C_20
REMARK                            x       y       z     vdW  Elec       q    Type
REMARK                         _______ _______ _______ _____ _____    ______ ____
ROOT
ATOM      1  N   UNL     1       4.097   6.642  18.125  0.00  0.00    +0.000 N 
ATOM      2  C   UNL     1       2.934   7.381  18.009  0.00  0.00    +0.000 C 
ATOM      3  O   UNL     1       2.571   7.874  16.963  0.00  0.00    +0.000 OA
ATOM      4  C   UNL     1       2.170   7.334  19.311  0.00  0.00    +0.000 C 
ATOM      5  C   UNL     1       1.449   8.330  19.921  0.00  0.00    +0.000 C 
ATOM      6  S   UNL     1       0.865   8.110  21.641  0.00  0.00    +0.000 S 
ATOM      7  C   UNL     1       0.226   9.790  21.646  0.00  0.00    +0.000 A 
ATOM      8  C   UNL     1      -0.420  10.451  22.704  0.00  0.00    +0.000 A 
ATOM      9  C   UNL     1      -0.880  11.765  22.516  0.00  0.00    +0.000 A 
ATOM     10  C   UNL     1      -0.670  12.389  21.286  0.00  0.00    +0.000 A 
ATOM     11 CL   UNL     1      -1.236  13.996  21.026  0.00  0.00    +0.000 Cl
ATOM     12  C   UNL     1      -0.005  11.727  20.243  0.00  0.00    +0.000 A 
ATOM     13  C   UNL     1       0.447  10.417  20.404  0.00  0.00    +0.000 A 
ATOM     14  N   UNL     1       1.129   9.620  19.452  0.00  0.00    +0.000 N 
ATOM     15  S   UNL     1       2.567   5.772  19.996  0.00  0.00    +0.000 S 
ATOM     16  C   UNL     1       3.954   5.541  18.926  0.00  0.00    +0.000 C 
ATOM     17  S   UNL     1       4.901   4.172  18.951  0.00  0.00    +0.000 S 
ENDROOT
BRANCH  14  18
ATOM     18  C   UNL     1       1.440  10.152  18.132  0.00  0.00    +0.000 C 
ATOM     19  C   UNL     1       2.440  11.297  18.199  0.00  0.00    +0.000 C 
ENDBRANCH  14  18
BRANCH   1  20
ATOM     20  C   UNL     1       5.277   6.990  17.316  0.00  0.00    +0.000 C 
BRANCH  20  21
ATOM     21  C   UNL     1       5.227   6.297  15.939  0.00  0.00    +0.000 C 
BRANCH  21  23
ATOM     22  C   UNL     1       6.118   4.344  14.609  0.00  0.00    +0.000 C 
ATOM     23  C   UNL     1       6.411   5.349  15.712  0.00  0.00    +0.000 C 
ENDBRANCH  21  23
ENDBRANCH  20  21
ENDBRANCH   1  20
TORSDOF 4
ENDMDL
MODEL 5
REMARK VINA RESULT:      -5.3      4.798      8.769
REMARK  Name = 
REMARK  6 active torsions:
REMARK  status: ('A' for Active; 'I' for Inactive)
REMARK    1  A    between atoms: C_1  and  C_2
REMARK    2  A    between atoms: C_2  and  C_3
REMARK    3  A    between atoms: C_3  and  C_4
REMARK    4  A    between atoms: C_4  and  N_5
REMARK    5  A    between atoms: N_18  and  C_19
REMARK    6  A    between atoms: C_19  and  C_20
REMARK                            x       y       z     vdW  Elec       q    Type
REMARK                         _______ _______ _______ _____ _____    ______ ____
ROOT
ATOM      1  N   UNL     1      -2.589  12.696  21.257  0.00  0.00    +0.000 N 
ATOM      2  C   UNL     1      -1.299  12.493  20.801  0.00  0.00    +0.000 C 
ATOM      3  O   UNL     1      -0.738  13.266  20.056  0.00  0.00    +0.000 OA
ATOM      4  C   UNL     1      -0.703  11.284  21.482  0.00  0.00    +0.000 C 
ATOM      5  C   UNL     1       0.128  10.325  20.959  0.00  0.00    +0.000 C 
ATOM      6  S   UNL     1       0.471   8.799  21.908  0.00  0.00    +0.000 S 
ATOM      7  C   UNL     1       1.418   8.146  20.528  0.00  0.00    +0.000 A 
ATOM      8  C   UNL     1       2.063   6.899  20.454  0.00  0.00    +0.000 A 
ATOM      9  C   UNL     1       2.786   6.566  19.296  0.00  0.00    +0.000 A 
ATOM     10  C   UNL     1       2.834   7.477  18.240  0.00  0.00    +0.000 A 
ATOM     11 CL   UNL     1       3.725   7.097  16.814  0.00  0.00    +0.000 Cl
ATOM     12  C   UNL     1       2.169   8.709  18.317  0.00  0.00    +0.000 A 
ATOM     13  C   UNL     1       1.457   9.065  19.462  0.00  0.00    +0.000 A 
ATOM     14  N   UNL     1       0.740  10.265  19.691  0.00  0.00    +0.000 N 
ATOM     15  S   UNL     1      -1.466  11.249  23.058  0.00  0.00    +0.000 S 
ATOM     16  C   UNL     1      -2.748  12.364  22.576  0.00  0.00    +0.000 C 
ATOM     17  S   UNL     1      -3.940  12.881  23.616  0.00  0.00    +0.000 S 
ENDROOT
BRANCH  14  18
ATOM     18  C   UNL     1       0.681  11.296  18.663  0.00  0.00    +0.000 C 
ATOM     19  C   UNL     1       1.954  12.129  18.616  0.00  0.00    +0.000 C 
ENDBRANCH  14  18
BRANCH   1  20
ATOM     20  C   UNL     1      -3.585  13.346  20.390  0.00  0.00    +0.000 C 
BRANCH  20  21
ATOM     21  C   UNL     1      -4.548  12.307  19.779  0.00  0.00    +0.000 C 
BRANCH  21  23
ATOM     22  C   UNL     1      -4.953  11.803  17.337  0.00  0.00    +0.000 C 
ATOM     23  C   UNL     1      -3.988  11.661  18.505  0.00  0.00    +0.000 C 
ENDBRANCH  21  23
ENDBRANCH  20  21
ENDBRANCH   1  20
TORSDOF 4
ENDMDL
MODEL 6
REMARK VINA RESULT:      -5.3      5.413      7.957
REMARK  Name = 
REMARK  6 active torsions:
REMARK  status: ('A' for Active; 'I' for Inactive)
REMARK    1  A    between atoms: C_1  and  C_2
REMARK    2  A    between atoms: C_2  and  C_3
REMARK    3  A    between atoms: C_3  and  C_4
REMARK    4  A    between atoms: C_4  and  N_5
REMARK    5  A    between atoms: N_18  and  C_19
REMARK    6  A    between atoms: C_19  and  C_20
REMARK                            x       y       z     vdW  Elec       q    Type
REMARK                         _______ _______ _______ _____ _____    ______ ____
ROOT
ATOM      1  N   UNL     1       0.406  10.539  19.912  0.00  0.00    +0.000 N 
ATOM      2  C   UNL     1      -0.378  11.653  20.152  0.00  0.00    +0.000 C 
ATOM      3  O   UNL     1      -0.032  12.554  20.885  0.00  0.00    +0.000 OA
ATOM      4  C   UNL     1      -1.603  11.612  19.269  0.00  0.00    +0.000 C 
ATOM      5  C   UNL     1      -2.888  11.994  19.564  0.00  0.00    +0.000 C 
ATOM      6  S   UNL     1      -4.251  11.567  18.421  0.00  0.00    +0.000 S 
ATOM      7  C   UNL     1      -5.443  12.259  19.573  0.00  0.00    +0.000 A 
ATOM      8  C   UNL     1      -6.840  12.312  19.423  0.00  0.00    +0.000 A 
ATOM      9  C   UNL     1      -7.617  12.921  20.423  0.00  0.00    +0.000 A 
ATOM     10  C   UNL     1      -6.984  13.446  21.549  0.00  0.00    +0.000 A 
ATOM     11 CL   UNL     1      -7.914  14.209  22.784  0.00  0.00    +0.000 Cl
ATOM     12  C   UNL     1      -5.592  13.369  21.699  0.00  0.00    +0.000 A 
ATOM     13  C   UNL     1      -4.800  12.781  20.712  0.00  0.00    +0.000 A 
ATOM     14  N   UNL     1      -3.392  12.630  20.717  0.00  0.00    +0.000 N 
ATOM     15  S   UNL     1      -1.075  10.773  17.826  0.00  0.00    +0.000 S 
ATOM     16  C   UNL     1       0.380  10.139  18.603  0.00  0.00    +0.000 C 
ATOM     17  S   UNL     1       1.497   9.198  17.805  0.00  0.00    +0.000 S 
ENDROOT
BRANCH  14  18
ATOM     18  C   UNL     1      -2.602  13.108  21.844  0.00  0.00    +0.000 C 
ATOM     19  C   UNL     1      -2.744  12.209  23.063  0.00  0.00    +0.000 C 
ENDBRANCH  14  18
BRANCH   1  20
ATOM     20  C   UNL     1       1.265   9.997  20.977  0.00  0.00    +0.000 C 
BRANCH  20  21
ATOM     21  C   UNL     1       0.806   8.584  21.392  0.00  0.00    +0.000 C 
BRANCH  21  23
ATOM     22  C   UNL     1      -0.264   9.626  23.429  0.00  0.00    +0.000 C 
ATOM     23  C   UNL     1      -0.423   8.608  22.309  0.00  0.00    +0.000 C 
ENDBRANCH  21  23
ENDBRANCH  20  21
ENDBRANCH   1  20
TORSDOF 4
ENDMDL
MODEL 7
REMARK VINA RESULT:      -5.2      4.300      8.560
REMARK  Name = 
REMARK  6 active torsions:
REMARK  status: ('A' for Active; 'I' for Inactive)
REMARK    1  A    between atoms: C_1  and  C_2
REMARK    2  A    between atoms: C_2  and  C_3
REMARK    3  A    between atoms: C_3  and  C_4
REMARK    4  A    between atoms: C_4  and  N_5
REMARK    5  A    between atoms: N_18  and  C_19
REMARK    6  A    between atoms: C_19  and  C_20
REMARK                            x       y       z     vdW  Elec       q    Type
REMARK                         _______ _______ _______ _____ _____    ______ ____
ROOT
ATOM      1  N   UNL     1      -0.362  13.421  21.101  0.00  0.00    +0.000 N 
ATOM      2  C   UNL     1      -0.639  12.075  20.951  0.00  0.00    +0.000 C 
ATOM      3  O   UNL     1      -1.408  11.479  21.672  0.00  0.00    +0.000 OA
ATOM      4  C   UNL     1       0.037  11.553  19.705  0.00  0.00    +0.000 C 
ATOM      5  C   UNL     1       0.638  10.336  19.499  0.00  0.00    +0.000 C 
ATOM      6  S   UNL     1       1.647  10.059  17.998  0.00  0.00    +0.000 S 
ATOM      7  C   UNL     1       2.101   8.427  18.595  0.00  0.00    +0.000 A 
ATOM      8  C   UNL     1       2.942   7.494  17.965  0.00  0.00    +0.000 A 
ATOM      9  C   UNL     1       3.164   6.247  18.572  0.00  0.00    +0.000 A 
ATOM     10  C   UNL     1       2.553   5.969  19.795  0.00  0.00    +0.000 A 
ATOM     11 CL   UNL     1       2.798   4.440  20.554  0.00  0.00    +0.000 Cl
ATOM     12  C   UNL     1       1.732   6.915  20.426  0.00  0.00    +0.000 A 
ATOM     13  C   UNL     1       1.488   8.154  19.834  0.00  0.00    +0.000 A 
ATOM     14  N   UNL     1       0.687   9.207  20.341  0.00  0.00    +0.000 N 
ATOM     15  S   UNL     1       0.074  12.925  18.619  0.00  0.00    +0.000 S 
ATOM     16  C   UNL     1      -0.269  14.085  19.907  0.00  0.00    +0.000 C 
ATOM     17  S   UNL     1      -0.430  15.719  19.637  0.00  0.00    +0.000 S 
ENDROOT
BRANCH  14  18
ATOM     18  C   UNL     1       0.010   9.066  21.624  0.00  0.00    +0.000 C 
ATOM     19  C   UNL     1       0.944   9.332  22.795  0.00  0.00    +0.000 C 
ENDBRANCH  14  18
BRANCH   1  20
ATOM     20  C   UNL     1      -0.337  14.025  22.443  0.00  0.00    +0.000 C 
BRANCH  20  21
ATOM     21  C   UNL     1      -1.741  14.516  22.855  0.00  0.00    +0.000 C 
BRANCH  21  23
ATOM     22  C   UNL     1      -3.171  14.616  24.934  0.00  0.00    +0.000 C 
ATOM     23  C   UNL     1      -1.812  14.933  24.329  0.00  0.00    +0.000 C 
ENDBRANCH  21  23
ENDBRANCH  20  21
ENDBRANCH   1  20
TORSDOF 4
ENDMDL
MODEL 8
REMARK VINA RESULT:      -5.1      3.854      7.331
REMARK  Name = 
REMARK  6 active torsions:
REMARK  status: ('A' for Active; 'I' for Inactive)
REMARK    1  A    between atoms: C_1  and  C_2
REMARK    2  A    between atoms: C_2  and  C_3
REMARK    3  A    between atoms: C_3  and  C_4
REMARK    4  A    between atoms: C_4  and  N_5
REMARK    5  A    between atoms: N_18  and  C_19
REMARK    6  A    between atoms: C_19  and  C_20
REMARK                            x       y       z     vdW  Elec       q    Type
REMARK                         _______ _______ _______ _____ _____    ______ ____
ROOT
ATOM      1  N   UNL     1      -0.019  11.679  19.293  0.00  0.00    +0.000 N 
ATOM      2  C   UNL     1       1.072  10.852  19.095  0.00  0.00    +0.000 C 
ATOM      3  O   UNL     1       1.909  11.063  18.245  0.00  0.00    +0.000 OA
ATOM      4  C   UNL     1       1.104   9.789  20.167  0.00  0.00    +0.000 C 
ATOM      5  C   UNL     1       1.462   8.468  20.057  0.00  0.00    +0.000 C 
ATOM      6  S   UNL     1       1.131   7.315  21.438  0.00  0.00    +0.000 S 
ATOM      7  C   UNL     1       1.727   5.942  20.445  0.00  0.00    +0.000 A 
ATOM      8  C   UNL     1       1.794   4.588  20.817  0.00  0.00    +0.000 A 
ATOM      9  C   UNL     1       2.318   3.651  19.912  0.00  0.00    +0.000 A 
ATOM     10  C   UNL     1       2.749   4.084  18.659  0.00  0.00    +0.000 A 
ATOM     11 CL   UNL     1       3.409   2.955  17.535  0.00  0.00    +0.000 Cl
ATOM     12  C   UNL     1       2.659   5.434  18.289  0.00  0.00    +0.000 A 
ATOM     13  C   UNL     1       2.153   6.384  19.177  0.00  0.00    +0.000 A 
ATOM     14  N   UNL     1       2.001   7.775  18.955  0.00  0.00    +0.000 N 
ATOM     15  S   UNL     1       0.386  10.556  21.567  0.00  0.00    +0.000 S 
ATOM     16  C   UNL     1      -0.310  11.872  20.617  0.00  0.00    +0.000 C 
ATOM     17  S   UNL     1      -1.184  13.117  21.294  0.00  0.00    +0.000 S 
ENDROOT
BRANCH  14  18
ATOM     18  C   UNL     1       2.385   8.363  17.678  0.00  0.00    +0.000 C 
ATOM     19  C   UNL     1       3.834   8.064  17.324  0.00  0.00    +0.000 C 
ENDBRANCH  14  18
BRANCH   1  20
ATOM     20  C   UNL     1      -0.648  12.359  18.149  0.00  0.00    +0.000 C 
BRANCH  20  21
ATOM     21  C   UNL     1      -2.043  11.772  17.855  0.00  0.00    +0.000 C 
BRANCH  21  23
ATOM     22  C   UNL     1      -3.247   9.577  17.519  0.00  0.00    +0.000 C 
ATOM     23  C   UNL     1      -1.975  10.366  17.245  0.00  0.00    +0.000 C 
ENDBRANCH  21  23
ENDBRANCH  20  21
ENDBRANCH   1  20
TORSDOF 4
ENDMDL
MODEL 9
REMARK VINA RESULT:      -5.1      3.722      7.232
REMARK  Name = 
REMARK  6 active torsions:
REMARK  status: ('A' for Active; 'I' for Inactive)
REMARK    1  A    between atoms: C_1  and  C_2
REMARK    2  A    between atoms: C_2  and  C_3
REMARK    3  A    between atoms: C_3  and  C_4
REMARK    4  A    between atoms: C_4  and  N_5
REMARK    5  A    between atoms: N_18  and  C_19
REMARK    6  A    between atoms: C_19  and  C_20
REMARK                            x       y       z     vdW  Elec       q    Type
REMARK                         _______ _______ _______ _____ _____    ______ ____
ROOT
ATOM      1  N   UNL     1       0.038  10.643  19.138  0.00  0.00    +0.000 N 
ATOM      2  C   UNL     1       1.152   9.857  18.911  0.00  0.00    +0.000 C 
ATOM      3  O   UNL     1       1.916  10.052  17.991  0.00  0.00    +0.000 OA
ATOM      4  C   UNL     1       1.314   8.866  20.039  0.00  0.00    +0.000 C 
ATOM      5  C   UNL     1       1.730   7.559  19.982  0.00  0.00    +0.000 C 
ATOM      6  S   UNL     1       1.555   6.482  21.451  0.00  0.00    +0.000 S 
ATOM      7  C   UNL     1       2.150   5.078  20.501  0.00  0.00    +0.000 A 
ATOM      8  C   UNL     1       2.311   3.755  20.948  0.00  0.00    +0.000 A 
ATOM      9  C   UNL     1       2.818   2.788  20.064  0.00  0.00    +0.000 A 
ATOM     10  C   UNL     1       3.137   3.161  18.759  0.00  0.00    +0.000 A 
ATOM     11 CL   UNL     1       3.773   1.995  17.660  0.00  0.00    +0.000 Cl
ATOM     12  C   UNL     1       2.953   4.479  18.317  0.00  0.00    +0.000 A 
ATOM     13  C   UNL     1       2.463   5.458  19.181  0.00  0.00    +0.000 A 
ATOM     14  N   UNL     1       2.225   6.824  18.887  0.00  0.00    +0.000 N 
ATOM     15  S   UNL     1       0.658   9.686  21.440  0.00  0.00    +0.000 S 
ATOM     16  C   UNL     1      -0.169  10.906  20.466  0.00  0.00    +0.000 C 
ATOM     17  S   UNL     1      -1.055  12.149  21.130  0.00  0.00    +0.000 S 
ENDROOT
BRANCH  14  18
ATOM     18  C   UNL     1       2.488   7.347  17.553  0.00  0.00    +0.000 C 
ATOM     19  C   UNL     1       3.977   7.407  17.246  0.00  0.00    +0.000 C 
ENDBRANCH  14  18
BRANCH   1  20
ATOM     20  C   UNL     1      -0.703  11.220  18.004  0.00  0.00    +0.000 C 
BRANCH  20  21
ATOM     21  C   UNL     1      -1.632  10.170  17.360  0.00  0.00    +0.000 C 
BRANCH  21  23
ATOM     22  C   UNL     1      -2.872  10.251  15.161  0.00  0.00    +0.000 C 
ATOM     23  C   UNL     1      -2.786  10.806  16.575  0.00  0.00    +0.000 C 
ENDBRANCH  21  23
ENDBRANCH  20  21
ENDBRANCH   1  20
TORSDOF 4
ENDMDL
