MODEL 1
REMARK VINA RESULT:      -5.4      0.000      0.000
REMARK  Name = 
REMARK  8 active torsions:
REMARK  status: ('A' for Active; 'I' for Inactive)
REMARK    1  A    between atoms: C_2  and  C_3
REMARK    2  A    between atoms: C_3  and  C_4
REMARK    3  A    between atoms: C_4  and  C_5
REMARK    4  A    between atoms: C_5  and  C_6
REMARK    5  A    between atoms: C_6  and  C_7
REMARK    6  A    between atoms: C_7  and  C_8
REMARK    7  A    between atoms: C_8  and  C_9
REMARK    8  A    between atoms: C_9  and  C_10
REMARK                            x       y       z     vdW  Elec       q    Type
REMARK                         _______ _______ _______ _____ _____    ______ ____
ROOT
ATOM      1  C   UNL     1       3.248   4.142  17.775  0.00  0.00    +0.000 C 
ATOM      2  O   UNL     1       3.942   3.378  18.761  0.00  0.00    +0.000 OA
ATOM      3  C   UNL     1       3.605   2.015  18.503  0.00  0.00    +0.000 C 
ATOM      4  C   UNL     1       2.261   2.091  17.833  0.00  0.00    +0.000 C 
ATOM      5  O   UNL     1       2.284   3.320  17.107  0.00  0.00    +0.000 OA
ENDROOT
BRANCH   1   6
ATOM      6  C   UNL     1       2.562   5.348  18.433  0.00  0.00    +0.000 C 
BRANCH   6   7
ATOM      7  C   UNL     1       2.621   5.297  19.947  0.00  0.00    +0.000 C 
BRANCH   7   8
ATOM      8  C   UNL     1       1.328   4.728  20.490  0.00  0.00    +0.000 C 
BRANCH   8  10
ATOM      9  N   UNL     1       1.979   2.514  22.041  0.00  0.00    +0.000 NA
ATOM     10  C   UNL     1       1.683   3.518  21.338  0.00  0.00    +0.000 C 
ENDBRANCH   8  10
ENDBRANCH   7   8
ENDBRANCH   6   7
ENDBRANCH   1   6
BRANCH   1  11
ATOM     11  C   UNL     1       4.232   4.660  16.728  0.00  0.00    +0.000 C 
BRANCH  11  12
ATOM     12  C   UNL     1       5.666   4.526  17.208  0.00  0.00    +0.000 C 
BRANCH  12  13
ATOM     13  C   UNL     1       6.178   5.842  17.703  0.00  0.00    +0.000 C 
BRANCH  13  14
ATOM     14  C   UNL     1       6.947   5.596  18.992  0.00  0.00    +0.000 C 
ATOM     15  N   UNL     1       7.584   5.393  20.061  0.00  0.00    +0.000 NA
ENDBRANCH  13  14
ENDBRANCH  12  13
ENDBRANCH  11  12
ENDBRANCH   1  11
TORSDOF 8
ENDMDL
MODEL 2
REMARK VINA RESULT:      -5.4      0.897      4.506
REMARK  Name = 
REMARK  8 active torsions:
REMARK  status: ('A' for Active; 'I' for Inactive)
REMARK    1  A    between atoms: C_2  and  C_3
REMARK    2  A    between atoms: C_3  and  C_4
REMARK    3  A    between atoms: C_4  and  C_5
REMARK    4  A    between atoms: C_5  and  C_6
REMARK    5  A    between atoms: C_6  and  C_7
REMARK    6  A    between atoms: C_7  and  C_8
REMARK    7  A    between atoms: C_8  and  C_9
REMARK    8  A    between atoms: C_9  and  C_10
REMARK                            x       y       z     vdW  Elec       q    Type
REMARK                         _______ _______ _______ _____ _____    ______ ____
ROOT
ATOM      1  C   UNL     1       3.531   4.036  17.663  0.00  0.00    +0.000 C 
ATOM      2  O   UNL     1       2.436   3.341  17.065  0.00  0.00    +0.000 OA
ATOM      3  C   UNL     1       2.203   2.201  17.891  0.00  0.00    +0.000 C 
ATOM      4  C   UNL     1       3.540   1.928  18.525  0.00  0.00    +0.000 C 
ATOM      5  O   UNL     1       4.149   3.213  18.659  0.00  0.00    +0.000 OA
ENDROOT
BRANCH   1   6
ATOM      6  C   UNL     1       4.551   4.435  16.586  0.00  0.00    +0.000 C 
BRANCH   6   7
ATOM      7  C   UNL     1       4.828   5.924  16.570  0.00  0.00    +0.000 C 
BRANCH   7   8
ATOM      8  C   UNL     1       6.311   6.165  16.378  0.00  0.00    +0.000 C 
BRANCH   8  10
ATOM      9  N   UNL     1       7.661   4.476  18.126  0.00  0.00    +0.000 NA
ATOM     10  C   UNL     1       7.049   5.242  17.334  0.00  0.00    +0.000 C 
ENDBRANCH   8  10
ENDBRANCH   7   8
ENDBRANCH   6   7
ENDBRANCH   1   6
BRANCH   1  11
ATOM     11  C   UNL     1       3.030   5.307  18.347  0.00  0.00    +0.000 C 
BRANCH  11  12
ATOM     12  C   UNL     1       3.230   5.237  19.851  0.00  0.00    +0.000 C 
BRANCH  12  13
ATOM     13  C   UNL     1       1.914   5.085  20.547  0.00  0.00    +0.000 C 
BRANCH  13  14
ATOM     14  C   UNL     1       1.949   3.795  21.350  0.00  0.00    +0.000 C 
ATOM     15  N   UNL     1       1.977   2.725  22.017  0.00  0.00    +0.000 NA
ENDBRANCH  13  14
ENDBRANCH  12  13
ENDBRANCH  11  12
ENDBRANCH   1  11
TORSDOF 8
ENDMDL
MODEL 3
REMARK VINA RESULT:      -5.2      1.892      2.158
REMARK  Name = 
REMARK  8 active torsions:
REMARK  status: ('A' for Active; 'I' for Inactive)
REMARK    1  A    between atoms: C_2  and  C_3
REMARK    2  A    between atoms: C_3  and  C_4
REMARK    3  A    between atoms: C_4  and  C_5
REMARK    4  A    between atoms: C_5  and  C_6
REMARK    5  A    between atoms: C_6  and  C_7
REMARK    6  A    between atoms: C_7  and  C_8
REMARK    7  A    between atoms: C_8  and  C_9
REMARK    8  A    between atoms: C_9  and  C_10
REMARK                            x       y       z     vdW  Elec       q    Type
REMARK                         _______ _______ _______ _____ _____    ______ ____
ROOT
ATOM      1  C   UNL     1       3.752   4.185  18.291  0.00  0.00    +0.000 C 
ATOM      2  O   UNL     1       4.187   3.593  19.516  0.00  0.00    +0.000 OA
ATOM      3  C   UNL     1       4.278   2.192  19.259  0.00  0.00    +0.000 C 
ATOM      4  C   UNL     1       3.292   1.959  18.146  0.00  0.00    +0.000 C 
ATOM      5  O   UNL     1       3.308   3.168  17.386  0.00  0.00    +0.000 OA
ENDROOT
BRANCH   1   6
ATOM      6  C   UNL     1       2.624   5.190  18.565  0.00  0.00    +0.000 C 
BRANCH   6   7
ATOM      7  C   UNL     1       2.230   5.238  20.028  0.00  0.00    +0.000 C 
BRANCH   7   8
ATOM      8  C   UNL     1       1.015   4.365  20.258  0.00  0.00    +0.000 C 
BRANCH   8  10
ATOM      9  N   UNL     1       1.734   2.408  22.098  0.00  0.00    +0.000 NA
ATOM     10  C   UNL     1       1.408   3.295  21.264  0.00  0.00    +0.000 C 
ENDBRANCH   8  10
ENDBRANCH   7   8
ENDBRANCH   6   7
ENDBRANCH   1   6
BRANCH   1  11
ATOM     11  C   UNL     1       4.912   4.929  17.631  0.00  0.00    +0.000 C 
BRANCH  11  12
ATOM     12  C   UNL     1       5.066   4.527  16.175  0.00  0.00    +0.000 C 
BRANCH  12  13
ATOM     13  C   UNL     1       6.425   3.951  15.932  0.00  0.00    +0.000 C 
BRANCH  13  14
ATOM     14  C   UNL     1       7.106   4.781  14.855  0.00  0.00    +0.000 C 
ATOM     15  N   UNL     1       7.670   5.469  13.962  0.00  0.00    +0.000 NA
ENDBRANCH  13  14
ENDBRANCH  12  13
ENDBRANCH  11  12
ENDBRANCH   1  11
TORSDOF 8
ENDMDL
MODEL 4
REMARK VINA RESULT:      -5.2      1.724      5.094
REMARK  Name = 
REMARK  8 active torsions:
REMARK  status: ('A' for Active; 'I' for Inactive)
REMARK    1  A    between atoms: C_2  and  C_3
REMARK    2  A    between atoms: C_3  and  C_4
REMARK    3  A    between atoms: C_4  and  C_5
REMARK    4  A    between atoms: C_5  and  C_6
REMARK    5  A    between atoms: C_6  and  C_7
REMARK    6  A    between atoms: C_7  and  C_8
REMARK    7  A    between atoms: C_8  and  C_9
REMARK    8  A    between atoms: C_9  and  C_10
REMARK                            x       y       z     vdW  Elec       q    Type
REMARK                         _______ _______ _______ _____ _____    ______ ____
ROOT
ATOM      1  C   UNL     1       3.807   4.300  17.471  0.00  0.00    +0.000 C 
ATOM      2  O   UNL     1       4.313   3.999  18.773  0.00  0.00    +0.000 OA
ATOM      3  C   UNL     1       4.237   5.219  19.510  0.00  0.00    +0.000 C 
ATOM      4  C   UNL     1       4.318   6.290  18.456  0.00  0.00    +0.000 C 
ATOM      5  O   UNL     1       3.691   5.718  17.307  0.00  0.00    +0.000 OA
ENDROOT
BRANCH   1   6
ATOM      6  C   UNL     1       4.734   3.709  16.399  0.00  0.00    +0.000 C 
BRANCH   6   7
ATOM      7  C   UNL     1       5.417   4.776  15.567  0.00  0.00    +0.000 C 
BRANCH   7   8
ATOM      8  C   UNL     1       6.913   4.547  15.572  0.00  0.00    +0.000 C 
BRANCH   8  10
ATOM      9  N   UNL     1       7.752   4.579  18.223  0.00  0.00    +0.000 NA
ATOM     10  C   UNL     1       7.372   4.564  17.021  0.00  0.00    +0.000 C 
ENDBRANCH   8  10
ENDBRANCH   7   8
ENDBRANCH   6   7
ENDBRANCH   1   6
BRANCH   1  11
ATOM     11  C   UNL     1       2.417   3.691  17.298  0.00  0.00    +0.000 C 
BRANCH  11  12
ATOM     12  C   UNL     1       2.327   2.330  17.965  0.00  0.00    +0.000 C 
BRANCH  12  13
ATOM     13  C   UNL     1       1.053   2.211  18.741  0.00  0.00    +0.000 C 
BRANCH  13  14
ATOM     14  C   UNL     1       0.997   3.356  19.740  0.00  0.00    +0.000 C 
ATOM     15  N   UNL     1       0.950   4.305  20.568  0.00  0.00    +0.000 NA
ENDBRANCH  13  14
ENDBRANCH  12  13
ENDBRANCH  11  12
ENDBRANCH   1  11
TORSDOF 8
ENDMDL
MODEL 5
REMARK VINA RESULT:      -5.2      1.528      2.185
REMARK  Name = 
REMARK  8 active torsions:
REMARK  status: ('A' for Active; 'I' for Inactive)
REMARK    1  A    between atoms: C_2  and  C_3
REMARK    2  A    between atoms: C_3  and  C_4
REMARK    3  A    between atoms: C_4  and  C_5
REMARK    4  A    between atoms: C_5  and  C_6
REMARK    5  A    between atoms: C_6  and  C_7
REMARK    6  A    between atoms: C_7  and  C_8
REMARK    7  A    between atoms: C_8  and  C_9
REMARK    8  A    between atoms: C_9  and  C_10
REMARK                            x       y       z     vdW  Elec       q    Type
REMARK                         _______ _______ _______ _____ _____    ______ ____
ROOT
ATOM      1  C   UNL     1       3.636   4.092  17.620  0.00  0.00    +0.000 C 
ATOM      2  O   UNL     1       3.397   5.281  18.375  0.00  0.00    +0.000 OA
ATOM      3  C   UNL     1       4.367   5.276  19.422  0.00  0.00    +0.000 C 
ATOM      4  C   UNL     1       4.680   3.819  19.626  0.00  0.00    +0.000 C 
ATOM      5  O   UNL     1       4.529   3.230  18.334  0.00  0.00    +0.000 OA
ENDROOT
BRANCH   1   6
ATOM      6  C   UNL     1       2.308   3.375  17.337  0.00  0.00    +0.000 C 
BRANCH   6   7
ATOM      7  C   UNL     1       1.948   2.369  18.413  0.00  0.00    +0.000 C 
BRANCH   7   8
ATOM      8  C   UNL     1       0.888   2.953  19.322  0.00  0.00    +0.000 C 
BRANCH   8  10
ATOM      9  N   UNL     1       1.776   2.648  21.939  0.00  0.00    +0.000 NA
ATOM     10  C   UNL     1       1.373   2.786  20.753  0.00  0.00    +0.000 C 
ENDBRANCH   8  10
ENDBRANCH   7   8
ENDBRANCH   6   7
ENDBRANCH   1   6
BRANCH   1  11
ATOM     11  C   UNL     1       4.289   4.444  16.285  0.00  0.00    +0.000 C 
BRANCH  11  12
ATOM     12  C   UNL     1       5.572   3.660  16.076  0.00  0.00    +0.000 C 
BRANCH  12  13
ATOM     13  C   UNL     1       6.741   4.587  15.972  0.00  0.00    +0.000 C 
BRANCH  13  14
ATOM     14  C   UNL     1       7.434   4.630  17.325  0.00  0.00    +0.000 C 
ATOM     15  N   UNL     1       8.007   4.667  18.447  0.00  0.00    +0.000 NA
ENDBRANCH  13  14
ENDBRANCH  12  13
ENDBRANCH  11  12
ENDBRANCH   1  11
TORSDOF 8
ENDMDL
MODEL 6
REMARK VINA RESULT:      -5.1      1.176      1.219
REMARK  Name = 
REMARK  8 active torsions:
REMARK  status: ('A' for Active; 'I' for Inactive)
REMARK    1  A    between atoms: C_2  and  C_3
REMARK    2  A    between atoms: C_3  and  C_4
REMARK    3  A    between atoms: C_4  and  C_5
REMARK    4  A    between atoms: C_5  and  C_6
REMARK    5  A    between atoms: C_6  and  C_7
REMARK    6  A    between atoms: C_7  and  C_8
REMARK    7  A    between atoms: C_8  and  C_9
REMARK    8  A    between atoms: C_9  and  C_10
REMARK                            x       y       z     vdW  Elec       q    Type
REMARK                         _______ _______ _______ _____ _____    ______ ____
ROOT
ATOM      1  C   UNL     1       3.457   3.467  17.887  0.00  0.00    +0.000 C 
ATOM      2  O   UNL     1       4.144   3.600  19.132  0.00  0.00    +0.000 OA
ATOM      3  C   UNL     1       4.542   2.279  19.499  0.00  0.00    +0.000 C 
ATOM      4  C   UNL     1       3.533   1.392  18.822  0.00  0.00    +0.000 C 
ATOM      5  O   UNL     1       3.181   2.086  17.625  0.00  0.00    +0.000 OA
ENDROOT
BRANCH   1   6
ATOM      6  C   UNL     1       2.155   4.280  17.916  0.00  0.00    +0.000 C 
BRANCH   6   7
ATOM      7  C   UNL     1       1.764   4.704  19.317  0.00  0.00    +0.000 C 
BRANCH   7   8
ATOM      8  C   UNL     1       0.764   3.720  19.887  0.00  0.00    +0.000 C 
BRANCH   8  10
ATOM      9  N   UNL     1       1.878   2.646  22.197  0.00  0.00    +0.000 NA
ATOM     10  C   UNL     1       1.373   3.133  21.150  0.00  0.00    +0.000 C 
ENDBRANCH   8  10
ENDBRANCH   7   8
ENDBRANCH   6   7
ENDBRANCH   1   6
BRANCH   1  11
ATOM     11  C   UNL     1       4.332   3.996  16.751  0.00  0.00    +0.000 C 
BRANCH  11  12
ATOM     12  C   UNL     1       5.138   5.204  17.194  0.00  0.00    +0.000 C 
BRANCH  12  13
ATOM     13  C   UNL     1       6.603   4.933  17.059  0.00  0.00    +0.000 C 
BRANCH  13  14
ATOM     14  C   UNL     1       7.355   5.985  17.861  0.00  0.00    +0.000 C 
ATOM     15  N   UNL     1       7.979   6.856  18.525  0.00  0.00    +0.000 NA
ENDBRANCH  13  14
ENDBRANCH  12  13
ENDBRANCH  11  12
ENDBRANCH   1  11
TORSDOF 8
ENDMDL
MODEL 7
REMARK VINA RESULT:      -5.1      1.863      5.021
REMARK  Name = 
REMARK  8 active torsions:
REMARK  status: ('A' for Active; 'I' for Inactive)
REMARK    1  A    between atoms: C_2  and  C_3
REMARK    2  A    between atoms: C_3  and  C_4
REMARK    3  A    between atoms: C_4  and  C_5
REMARK    4  A    between atoms: C_5  and  C_6
REMARK    5  A    between atoms: C_6  and  C_7
REMARK    6  A    between atoms: C_7  and  C_8
REMARK    7  A    between atoms: C_8  and  C_9
REMARK    8  A    between atoms: C_9  and  C_10
REMARK                            x       y       z     vdW  Elec       q    Type
REMARK                         _______ _______ _______ _____ _____    ______ ____
ROOT
ATOM      1  C   UNL     1       3.507   3.522  17.941  0.00  0.00    +0.000 C 
ATOM      2  O   UNL     1       3.311   2.152  17.588  0.00  0.00    +0.000 OA
ATOM      3  C   UNL     1       3.554   1.406  18.781  0.00  0.00    +0.000 C 
ATOM      4  C   UNL     1       4.494   2.275  19.571  0.00  0.00    +0.000 C 
ATOM      5  O   UNL     1       4.131   3.612  19.226  0.00  0.00    +0.000 OA
ENDROOT
BRANCH   1   6
ATOM      6  C   UNL     1       4.365   4.220  16.876  0.00  0.00    +0.000 C 
BRANCH   6   7
ATOM      7  C   UNL     1       4.586   5.689  17.178  0.00  0.00    +0.000 C 
BRANCH   7   8
ATOM      8  C   UNL     1       5.111   6.390  15.943  0.00  0.00    +0.000 C 
BRANCH   8  10
ATOM      9  N   UNL     1       7.471   5.118  15.204  0.00  0.00    +0.000 NA
ATOM     10  C   UNL     1       6.401   5.695  15.539  0.00  0.00    +0.000 C 
ENDBRANCH   8  10
ENDBRANCH   7   8
ENDBRANCH   6   7
ENDBRANCH   1   6
BRANCH   1  11
ATOM     11  C   UNL     1       2.159   4.237  18.020  0.00  0.00    +0.000 C 
BRANCH  11  12
ATOM     12  C   UNL     1       1.141   3.409  18.783  0.00  0.00    +0.000 C 
BRANCH  12  13
ATOM     13  C   UNL     1       0.807   4.060  20.088  0.00  0.00    +0.000 C 
BRANCH  13  14
ATOM     14  C   UNL     1       1.331   3.174  21.207  0.00  0.00    +0.000 C 
ATOM     15  N   UNL     1       1.764   2.439  22.136  0.00  0.00    +0.000 NA
ENDBRANCH  13  14
ENDBRANCH  12  13
ENDBRANCH  11  12
ENDBRANCH   1  11
TORSDOF 8
ENDMDL
MODEL 8
REMARK VINA RESULT:      -5.1      2.275      4.785
REMARK  Name = 
REMARK  8 active torsions:
REMARK  status: ('A' for Active; 'I' for Inactive)
REMARK    1  A    between atoms: C_2  and  C_3
REMARK    2  A    between atoms: C_3  and  C_4
REMARK    3  A    between atoms: C_4  and  C_5
REMARK    4  A    between atoms: C_5  and  C_6
REMARK    5  A    between atoms: C_6  and  C_7
REMARK    6  A    between atoms: C_7  and  C_8
REMARK    7  A    between atoms: C_8  and  C_9
REMARK    8  A    between atoms: C_9  and  C_10
REMARK                            x       y       z     vdW  Elec       q    Type
REMARK                         _______ _______ _______ _____ _____    ______ ____
ROOT
ATOM      1  C   UNL     1       3.029   5.689  18.352  0.00  0.00    +0.000 C 
ATOM      2  O   UNL     1       2.939   5.558  19.772  0.00  0.00    +0.000 OA
ATOM      3  C   UNL     1       2.074   6.607  20.204  0.00  0.00    +0.000 C 
ATOM      4  C   UNL     1       2.226   7.667  19.146  0.00  0.00    +0.000 C 
ATOM      5  O   UNL     1       2.476   6.944  17.940  0.00  0.00    +0.000 OA
ENDROOT
BRANCH   1   6
ATOM      6  C   UNL     1       4.494   5.574  17.906  0.00  0.00    +0.000 C 
BRANCH   6   7
ATOM      7  C   UNL     1       4.839   6.536  16.787  0.00  0.00    +0.000 C 
BRANCH   7   8
ATOM      8  C   UNL     1       5.471   5.778  15.639  0.00  0.00    +0.000 C 
BRANCH   8  10
ATOM      9  N   UNL     1       7.735   4.503  16.630  0.00  0.00    +0.000 NA
ATOM     10  C   UNL     1       6.709   5.082  16.181  0.00  0.00    +0.000 C 
ENDBRANCH   8  10
ENDBRANCH   7   8
ENDBRANCH   6   7
ENDBRANCH   1   6
BRANCH   1  11
ATOM     11  C   UNL     1       2.229   4.577  17.675  0.00  0.00    +0.000 C 
BRANCH  11  12
ATOM     12  C   UNL     1       3.109   3.380  17.361  0.00  0.00    +0.000 C 
BRANCH  12  13
ATOM     13  C   UNL     1       2.784   2.238  18.272  0.00  0.00    +0.000 C 
BRANCH  13  14
ATOM     14  C   UNL     1       3.876   2.146  19.325  0.00  0.00    +0.000 C 
ATOM     15  N   UNL     1       4.783   2.071  20.199  0.00  0.00    +0.000 NA
ENDBRANCH  13  14
ENDBRANCH  12  13
ENDBRANCH  11  12
ENDBRANCH   1  11
TORSDOF 8
ENDMDL
MODEL 9
REMARK VINA RESULT:      -5.0      2.043      5.130
REMARK  Name = 
REMARK  8 active torsions:
REMARK  status: ('A' for Active; 'I' for Inactive)
REMARK    1  A    between atoms: C_2  and  C_3
REMARK    2  A    between atoms: C_3  and  C_4
REMARK    3  A    between atoms: C_4  and  C_5
REMARK    4  A    between atoms: C_5  and  C_6
REMARK    5  A    between atoms: C_6  and  C_7
REMARK    6  A    between atoms: C_7  and  C_8
REMARK    7  A    between atoms: C_8  and  C_9
REMARK    8  A    between atoms: C_9  and  C_10
REMARK                            x       y       z     vdW  Elec       q    Type
REMARK                         _______ _______ _______ _____ _____    ______ ____
ROOT
ATOM      1  C   UNL     1       3.448   5.376  18.402  0.00  0.00    +0.000 C 
ATOM      2  O   UNL     1       3.507   4.427  17.336  0.00  0.00    +0.000 OA
ATOM      3  C   UNL     1       4.231   3.309  17.850  0.00  0.00    +0.000 C 
ATOM      4  C   UNL     1       5.104   3.901  18.923  0.00  0.00    +0.000 C 
ATOM      5  O   UNL     1       4.347   4.992  19.449  0.00  0.00    +0.000 OA
ENDROOT
BRANCH   1   6
ATOM      6  C   UNL     1       3.798   6.776  17.879  0.00  0.00    +0.000 C 
BRANCH   6   7
ATOM      7  C   UNL     1       4.704   6.734  16.664  0.00  0.00    +0.000 C 
BRANCH   7   8
ATOM      8  C   UNL     1       6.142   6.936  17.092  0.00  0.00    +0.000 C 
BRANCH   8  10
ATOM      9  N   UNL     1       7.600   4.761  16.157  0.00  0.00    +0.000 NA
ATOM     10  C   UNL     1       6.939   5.747  16.581  0.00  0.00    +0.000 C 
ENDBRANCH   8  10
ENDBRANCH   7   8
ENDBRANCH   6   7
ENDBRANCH   1   6
BRANCH   1  11
ATOM     11  C   UNL     1       2.037   5.417  18.985  0.00  0.00    +0.000 C 
BRANCH  11  12
ATOM     12  C   UNL     1       2.029   4.977  20.438  0.00  0.00    +0.000 C 
BRANCH  12  13
ATOM     13  C   UNL     1       0.969   3.947  20.668  0.00  0.00    +0.000 C 
BRANCH  13  14
ATOM     14  C   UNL     1       0.900   3.056  19.438  0.00  0.00    +0.000 C 
ATOM     15  N   UNL     1       0.842   2.318  18.417  0.00  0.00    +0.000 NA
ENDBRANCH  13  14
ENDBRANCH  12  13
ENDBRANCH  11  12
ENDBRANCH   1  11
TORSDOF 8
ENDMDL
