MODEL 1
REMARK VINA RESULT:      -7.7      0.000      0.000
REMARK  Name = 
REMARK  9 active torsions:
REMARK  status: ('A' for Active; 'I' for Inactive)
REMARK    1  A    between atoms: C_1  and  C_2
REMARK    2  A    between atoms: C_2  and  C_17
REMARK    3  A    between atoms: N_3  and  N_4
REMARK    4  A    between atoms: C_5  and  C_7
REMARK    5  A    between atoms: C_7  and  O_8
REMARK    6  A    between atoms: O_8  and  N_9
REMARK    7  A    between atoms: C_10  and  C_11
REMARK    8  A    between atoms: C_10  and  C_12
REMARK    9  A    between atoms: C_20  and  N_21
REMARK                            x       y       z     vdW  Elec       q    Type
REMARK                         _______ _______ _______ _____ _____    ______ ____
ROOT
ATOM      1  N   UNL     1       8.572   8.465  18.761  0.00  0.00    +0.000 N 
ATOM      2  C   UNL     1       7.950   7.443  18.041  0.00  0.00    +0.000 C 
ATOM      3  O   UNL     1       7.711   7.490  16.834  0.00  0.00    +0.000 OA
ATOM      4  H   UNL     1       8.270   8.568  19.727  0.00  0.00    +0.000 HD
ENDROOT
BRANCH   1   7
ATOM      5  C   UNL     1       9.393  10.619  20.438  0.00  0.00    +0.000 C 
ATOM      6  C   UNL     1       9.329  10.647  18.917  0.00  0.00    +0.000 C 
ATOM      7  N   UNL     1       8.889   9.666  18.173  0.00  0.00    +0.000 NA
BRANCH   6   8
ATOM      8  C   UNL     1       9.761  11.927  18.252  0.00  0.00    +0.000 A 
ATOM      9  C   UNL     1      10.927  11.984  17.476  0.00  0.00    +0.000 A 
ATOM     10  C   UNL     1      11.354  13.192  16.916  0.00  0.00    +0.000 A 
ATOM     11  C   UNL     1      10.602  14.356  17.064  0.00  0.00    +0.000 A 
ATOM     12  C   UNL     1       9.454  14.308  17.861  0.00  0.00    +0.000 A 
ATOM     13  C   UNL     1       9.022  13.103  18.432  0.00  0.00    +0.000 A 
BRANCH  11  14
ATOM     14  N   UNL     1      11.117  15.579  16.626  0.00  0.00    +0.000 N 
ATOM     15  H   UNL     1      10.955  15.762  15.640  0.00  0.00    +0.000 HD
ATOM     16  H   UNL     1      10.862  16.368  17.210  0.00  0.00    +0.000 HD
ENDBRANCH  11  14
ENDBRANCH   6   8
ENDBRANCH   1   7
BRANCH   2  17
ATOM     17  C   UNL     1       7.650   6.221  18.899  0.00  0.00    +0.000 C 
BRANCH  17  18
ATOM     18  O   UNL     1       7.266   5.193  18.000  0.00  0.00    +0.000 OA
BRANCH  18  19
ATOM     19  N   UNL     1       6.244   4.412  18.540  0.00  0.00    +0.000 NA
ATOM     20  C   UNL     1       5.229   4.357  17.720  0.00  0.00    +0.000 C 
ATOM     21  C   UNL     1       5.199   5.060  16.368  0.00  0.00    +0.000 C 
BRANCH  20  22
ATOM     22  C   UNL     1       4.069   3.574  18.137  0.00  0.00    +0.000 A 
ATOM     23  C   UNL     1       2.988   3.193  17.356  0.00  0.00    +0.000 A 
ATOM     24  C   UNL     1       2.030   2.431  18.079  0.00  0.00    +0.000 A 
ATOM     25  C   UNL     1       2.398   2.250  19.395  0.00  0.00    +0.000 A 
ATOM     26  S   UNL     1       3.892   2.995  19.742  0.00  0.00    +0.000 S 
ENDBRANCH  20  22
ENDBRANCH  18  19
ENDBRANCH  17  18
ENDBRANCH   2  17
TORSDOF 7
ENDMDL
MODEL 2
REMARK VINA RESULT:      -7.7      1.055      1.589
REMARK  Name = 
REMARK  9 active torsions:
REMARK  status: ('A' for Active; 'I' for Inactive)
REMARK    1  A    between atoms: C_1  and  C_2
REMARK    2  A    between atoms: C_2  and  C_17
REMARK    3  A    between atoms: N_3  and  N_4
REMARK    4  A    between atoms: C_5  and  C_7
REMARK    5  A    between atoms: C_7  and  O_8
REMARK    6  A    between atoms: O_8  and  N_9
REMARK    7  A    between atoms: C_10  and  C_11
REMARK    8  A    between atoms: C_10  and  C_12
REMARK    9  A    between atoms: C_20  and  N_21
REMARK                            x       y       z     vdW  Elec       q    Type
REMARK                         _______ _______ _______ _____ _____    ______ ____
ROOT
ATOM      1  N   UNL     1       8.660   8.488  18.835  0.00  0.00    +0.000 N 
ATOM      2  C   UNL     1       8.030   7.480  18.103  0.00  0.00    +0.000 C 
ATOM      3  O   UNL     1       7.789   7.544  16.897  0.00  0.00    +0.000 OA
ATOM      4  H   UNL     1       8.361   8.581  19.803  0.00  0.00    +0.000 HD
ENDROOT
BRANCH   1   7
ATOM      5  C   UNL     1       9.475  10.623  20.540  0.00  0.00    +0.000 C 
ATOM      6  C   UNL     1       9.419  10.667  19.019  0.00  0.00    +0.000 C 
ATOM      7  N   UNL     1       8.981   9.695  18.261  0.00  0.00    +0.000 NA
BRANCH   6   8
ATOM      8  C   UNL     1       9.856  11.954  18.371  0.00  0.00    +0.000 A 
ATOM      9  C   UNL     1       9.114  13.133  18.523  0.00  0.00    +0.000 A 
ATOM     10  C   UNL     1       9.493  14.306  17.865  0.00  0.00    +0.000 A 
ATOM     11  C   UNL     1      10.649  14.351  17.089  0.00  0.00    +0.000 A 
ATOM     12  C   UNL     1      11.377  13.170  16.912  0.00  0.00    +0.000 A 
ATOM     13  C   UNL     1      11.000  11.987  17.563  0.00  0.00    +0.000 A 
BRANCH  11  14
ATOM     14  N   UNL     1      10.931  15.486  16.322  0.00  0.00    +0.000 N 
ATOM     15  H   UNL     1      10.636  15.409  15.354  0.00  0.00    +0.000 HD
ATOM     16  H   UNL     1      10.631  16.356  16.748  0.00  0.00    +0.000 HD
ENDBRANCH  11  14
ENDBRANCH   6   8
ENDBRANCH   1   7
BRANCH   2  17
ATOM     17  C   UNL     1       7.727   6.247  18.946  0.00  0.00    +0.000 C 
BRANCH  17  18
ATOM     18  O   UNL     1       6.680   5.562  18.277  0.00  0.00    +0.000 OA
BRANCH  18  19
ATOM     19  N   UNL     1       5.849   4.908  19.187  0.00  0.00    +0.000 NA
ATOM     20  C   UNL     1       4.612   4.923  18.769  0.00  0.00    +0.000 C 
ATOM     21  C   UNL     1       4.173   5.573  17.462  0.00  0.00    +0.000 C 
BRANCH  20  22
ATOM     22  C   UNL     1       3.609   4.276  19.611  0.00  0.00    +0.000 A 
ATOM     23  C   UNL     1       2.633   4.893  20.379  0.00  0.00    +0.000 A 
ATOM     24  C   UNL     1       1.816   3.965  21.078  0.00  0.00    +0.000 A 
ATOM     25  C   UNL     1       2.186   2.660  20.830  0.00  0.00    +0.000 A 
ATOM     26  S   UNL     1       3.508   2.571  19.758  0.00  0.00    +0.000 S 
ENDBRANCH  20  22
ENDBRANCH  18  19
ENDBRANCH  17  18
ENDBRANCH   2  17
TORSDOF 7
ENDMDL
MODEL 3
REMARK VINA RESULT:      -7.5      0.514      1.123
REMARK  Name = 
REMARK  9 active torsions:
REMARK  status: ('A' for Active; 'I' for Inactive)
REMARK    1  A    between atoms: C_1  and  C_2
REMARK    2  A    between atoms: C_2  and  C_17
REMARK    3  A    between atoms: N_3  and  N_4
REMARK    4  A    between atoms: C_5  and  C_7
REMARK    5  A    between atoms: C_7  and  O_8
REMARK    6  A    between atoms: O_8  and  N_9
REMARK    7  A    between atoms: C_10  and  C_11
REMARK    8  A    between atoms: C_10  and  C_12
REMARK    9  A    between atoms: C_20  and  N_21
REMARK                            x       y       z     vdW  Elec       q    Type
REMARK                         _______ _______ _______ _____ _____    ______ ____
ROOT
ATOM      1  N   UNL     1       8.733   8.569  18.814  0.00  0.00    +0.000 N 
ATOM      2  C   UNL     1       8.047   7.587  18.095  0.00  0.00    +0.000 C 
ATOM      3  O   UNL     1       7.763   7.674  16.900  0.00  0.00    +0.000 OA
ATOM      4  H   UNL     1       8.473   8.657  19.794  0.00  0.00    +0.000 HD
ENDROOT
BRANCH   1   7
ATOM      5  C   UNL     1       9.522  10.706  20.527  0.00  0.00    +0.000 C 
ATOM      6  C   UNL     1       9.493  10.746  19.006  0.00  0.00    +0.000 C 
ATOM      7  N   UNL     1       9.066   9.773  18.243  0.00  0.00    +0.000 NA
BRANCH   6   8
ATOM      8  C   UNL     1       9.944  12.031  18.361  0.00  0.00    +0.000 A 
ATOM      9  C   UNL     1       9.139  13.178  18.387  0.00  0.00    +0.000 A 
ATOM     10  C   UNL     1       9.538  14.346  17.731  0.00  0.00    +0.000 A 
ATOM     11  C   UNL     1      10.771  14.419  17.086  0.00  0.00    +0.000 A 
ATOM     12  C   UNL     1      11.563  13.268  17.033  0.00  0.00    +0.000 A 
ATOM     13  C   UNL     1      11.168  12.091  17.683  0.00  0.00    +0.000 A 
BRANCH  11  14
ATOM     14  N   UNL     1      11.087  15.540  16.312  0.00  0.00    +0.000 N 
ATOM     15  H   UNL     1      10.416  15.732  15.575  0.00  0.00    +0.000 HD
ATOM     16  H   UNL     1      11.308  16.367  16.856  0.00  0.00    +0.000 HD
ENDBRANCH  11  14
ENDBRANCH   6   8
ENDBRANCH   1   7
BRANCH   2  17
ATOM     17  C   UNL     1       7.741   6.353  18.934  0.00  0.00    +0.000 C 
BRANCH  17  18
ATOM     18  O   UNL     1       7.053   5.456  18.077  0.00  0.00    +0.000 OA
BRANCH  18  19
ATOM     19  N   UNL     1       5.840   5.058  18.640  0.00  0.00    +0.000 NA
ATOM     20  C   UNL     1       5.080   4.497  17.738  0.00  0.00    +0.000 C 
ATOM     21  C   UNL     1       5.493   4.318  16.282  0.00  0.00    +0.000 C 
BRANCH  20  22
ATOM     22  C   UNL     1       3.767   4.021  18.166  0.00  0.00    +0.000 A 
ATOM     23  C   UNL     1       2.569   4.128  17.476  0.00  0.00    +0.000 A 
ATOM     24  C   UNL     1       1.477   3.554  18.180  0.00  0.00    +0.000 A 
ATOM     25  C   UNL     1       1.863   3.023  19.392  0.00  0.00    +0.000 A 
ATOM     26  S   UNL     1       3.535   3.219  19.664  0.00  0.00    +0.000 S 
ENDBRANCH  20  22
ENDBRANCH  18  19
ENDBRANCH  17  18
ENDBRANCH   2  17
TORSDOF 7
ENDMDL
MODEL 4
REMARK VINA RESULT:      -7.3      6.396      7.684
REMARK  Name = 
REMARK  9 active torsions:
REMARK  status: ('A' for Active; 'I' for Inactive)
REMARK    1  A    between atoms: C_1  and  C_2
REMARK    2  A    between atoms: C_2  and  C_17
REMARK    3  A    between atoms: N_3  and  N_4
REMARK    4  A    between atoms: C_5  and  C_7
REMARK    5  A    between atoms: C_7  and  O_8
REMARK    6  A    between atoms: O_8  and  N_9
REMARK    7  A    between atoms: C_10  and  C_11
REMARK    8  A    between atoms: C_10  and  C_12
REMARK    9  A    between atoms: C_20  and  N_21
REMARK                            x       y       z     vdW  Elec       q    Type
REMARK                         _______ _______ _______ _____ _____    ______ ____
ROOT
ATOM      1  N   UNL     1       2.621   5.249  20.858  0.00  0.00    +0.000 N 
ATOM      2  C   UNL     1       1.874   4.074  20.745  0.00  0.00    +0.000 C 
ATOM      3  O   UNL     1       0.670   4.038  20.494  0.00  0.00    +0.000 OA
ATOM      4  H   UNL     1       3.385   5.221  21.528  0.00  0.00    +0.000 HD
ENDROOT
BRANCH   1   7
ATOM      5  C   UNL     1       3.115   6.855  18.555  0.00  0.00    +0.000 C 
ATOM      6  C   UNL     1       2.186   7.210  19.708  0.00  0.00    +0.000 C 
ATOM      7  N   UNL     1       2.025   6.486  20.784  0.00  0.00    +0.000 NA
BRANCH   6   8
ATOM      8  C   UNL     1       1.454   8.521  19.598  0.00  0.00    +0.000 A 
ATOM      9  C   UNL     1       0.728   9.041  20.678  0.00  0.00    +0.000 A 
ATOM     10  C   UNL     1      -0.000  10.226  20.546  0.00  0.00    +0.000 A 
ATOM     11  C   UNL     1       0.023  10.953  19.357  0.00  0.00    +0.000 A 
ATOM     12  C   UNL     1       0.723  10.423  18.268  0.00  0.00    +0.000 A 
ATOM     13  C   UNL     1       1.451   9.232  18.390  0.00  0.00    +0.000 A 
BRANCH  11  14
ATOM     14  N   UNL     1      -0.826  12.052  19.195  0.00  0.00    +0.000 N 
ATOM     15  H   UNL     1      -0.473  12.749  18.546  0.00  0.00    +0.000 HD
ATOM     16  H   UNL     1      -1.791  11.803  19.006  0.00  0.00    +0.000 HD
ENDBRANCH  11  14
ENDBRANCH   6   8
ENDBRANCH   1   7
BRANCH   2  17
ATOM     17  C   UNL     1       2.728   2.822  20.902  0.00  0.00    +0.000 C 
BRANCH  17  18
ATOM     18  O   UNL     1       2.983   2.353  19.587  0.00  0.00    +0.000 OA
BRANCH  18  19
ATOM     19  N   UNL     1       4.139   2.934  19.065  0.00  0.00    +0.000 NA
ATOM     20  C   UNL     1       3.917   3.391  17.862  0.00  0.00    +0.000 C 
ATOM     21  C   UNL     1       2.569   3.287  17.157  0.00  0.00    +0.000 C 
BRANCH  20  22
ATOM     22  C   UNL     1       5.031   4.034  17.170  0.00  0.00    +0.000 A 
ATOM     23  C   UNL     1       5.211   4.156  15.800  0.00  0.00    +0.000 A 
ATOM     24  C   UNL     1       6.407   4.844  15.462  0.00  0.00    +0.000 A 
ATOM     25  C   UNL     1       7.116   5.230  16.581  0.00  0.00    +0.000 A 
ATOM     26  S   UNL     1       6.330   4.763  18.020  0.00  0.00    +0.000 S 
ENDBRANCH  20  22
ENDBRANCH  18  19
ENDBRANCH  17  18
ENDBRANCH   2  17
TORSDOF 7
ENDMDL
MODEL 5
REMARK VINA RESULT:      -7.1      3.366     10.404
REMARK  Name = 
REMARK  9 active torsions:
REMARK  status: ('A' for Active; 'I' for Inactive)
REMARK    1  A    between atoms: C_1  and  C_2
REMARK    2  A    between atoms: C_2  and  C_17
REMARK    3  A    between atoms: N_3  and  N_4
REMARK    4  A    between atoms: C_5  and  C_7
REMARK    5  A    between atoms: C_7  and  O_8
REMARK    6  A    between atoms: O_8  and  N_9
REMARK    7  A    between atoms: C_10  and  C_11
REMARK    8  A    between atoms: C_10  and  C_12
REMARK    9  A    between atoms: C_20  and  N_21
REMARK                            x       y       z     vdW  Elec       q    Type
REMARK                         _______ _______ _______ _____ _____    ______ ____
ROOT
ATOM      1  N   UNL     1       6.437   7.204  17.121  0.00  0.00    +0.000 N 
ATOM      2  C   UNL     1       7.558   7.580  17.865  0.00  0.00    +0.000 C 
ATOM      3  O   UNL     1       8.043   6.909  18.776  0.00  0.00    +0.000 OA
ATOM      4  H   UNL     1       5.844   7.968  16.805  0.00  0.00    +0.000 HD
ENDROOT
BRANCH   1   7
ATOM      5  C   UNL     1       3.652   7.465  17.672  0.00  0.00    +0.000 C 
ATOM      6  C   UNL     1       4.433   6.159  17.618  0.00  0.00    +0.000 C 
ATOM      7  N   UNL     1       5.723   6.070  17.426  0.00  0.00    +0.000 NA
BRANCH   6   8
ATOM      8  C   UNL     1       3.645   4.898  17.859  0.00  0.00    +0.000 A 
ATOM      9  C   UNL     1       2.244   4.897  17.810  0.00  0.00    +0.000 A 
ATOM     10  C   UNL     1       1.520   3.736  18.098  0.00  0.00    +0.000 A 
ATOM     11  C   UNL     1       2.172   2.538  18.384  0.00  0.00    +0.000 A 
ATOM     12  C   UNL     1       3.568   2.542  18.462  0.00  0.00    +0.000 A 
ATOM     13  C   UNL     1       4.302   3.703  18.180  0.00  0.00    +0.000 A 
BRANCH  11  14
ATOM     14  N   UNL     1       1.436   1.429  18.813  0.00  0.00    +0.000 N 
ATOM     15  H   UNL     1       0.645   1.207  18.216  0.00  0.00    +0.000 HD
ATOM     16  H   UNL     1       2.002   0.614  19.022  0.00  0.00    +0.000 HD
ENDBRANCH  11  14
ENDBRANCH   6   8
ENDBRANCH   1   7
BRANCH   2  17
ATOM     17  C   UNL     1       8.167   8.891  17.383  0.00  0.00    +0.000 C 
BRANCH  17  18
ATOM     18  O   UNL     1       8.689   9.529  18.538  0.00  0.00    +0.000 OA
BRANCH  18  19
ATOM     19  N   UNL     1       9.412  10.671  18.194  0.00  0.00    +0.000 NA
ATOM     20  C   UNL     1       9.775  11.323  19.266  0.00  0.00    +0.000 C 
ATOM     21  C   UNL     1       9.439  10.868  20.682  0.00  0.00    +0.000 C 
BRANCH  20  22
ATOM     22  C   UNL     1      10.545  12.550  19.080  0.00  0.00    +0.000 A 
ATOM     23  C   UNL     1      11.653  12.965  19.803  0.00  0.00    +0.000 A 
ATOM     24  C   UNL     1      12.164  14.213  19.358  0.00  0.00    +0.000 A 
ATOM     25  C   UNL     1      11.434  14.726  18.306  0.00  0.00    +0.000 A 
ATOM     26  S   UNL     1      10.148  13.696  17.867  0.00  0.00    +0.000 S 
ENDBRANCH  20  22
ENDBRANCH  18  19
ENDBRANCH  17  18
ENDBRANCH   2  17
TORSDOF 7
ENDMDL
MODEL 6
REMARK VINA RESULT:      -7.1      6.541      7.754
REMARK  Name = 
REMARK  9 active torsions:
REMARK  status: ('A' for Active; 'I' for Inactive)
REMARK    1  A    between atoms: C_1  and  C_2
REMARK    2  A    between atoms: C_2  and  C_17
REMARK    3  A    between atoms: N_3  and  N_4
REMARK    4  A    between atoms: C_5  and  C_7
REMARK    5  A    between atoms: C_7  and  O_8
REMARK    6  A    between atoms: O_8  and  N_9
REMARK    7  A    between atoms: C_10  and  C_11
REMARK    8  A    between atoms: C_10  and  C_12
REMARK    9  A    between atoms: C_20  and  N_21
REMARK                            x       y       z     vdW  Elec       q    Type
REMARK                         _______ _______ _______ _____ _____    ______ ____
ROOT
ATOM      1  N   UNL     1       2.673   5.359  20.522  0.00  0.00    +0.000 N 
ATOM      2  C   UNL     1       1.948   4.179  20.340  0.00  0.00    +0.000 C 
ATOM      3  O   UNL     1       0.727   4.129  20.193  0.00  0.00    +0.000 OA
ATOM      4  H   UNL     1       3.495   5.282  21.115  0.00  0.00    +0.000 HD
ENDROOT
BRANCH   1   7
ATOM      5  C   UNL     1       2.862   7.204  18.358  0.00  0.00    +0.000 C 
ATOM      6  C   UNL     1       2.062   7.408  19.637  0.00  0.00    +0.000 C 
ATOM      7  N   UNL     1       2.042   6.574  20.644  0.00  0.00    +0.000 NA
BRANCH   6   8
ATOM      8  C   UNL     1       1.291   8.697  19.745  0.00  0.00    +0.000 A 
ATOM      9  C   UNL     1       0.734   9.110  20.964  0.00  0.00    +0.000 A 
ATOM     10  C   UNL     1      -0.035  10.275  21.040  0.00  0.00    +0.000 A 
ATOM     11  C   UNL     1      -0.219  11.086  19.922  0.00  0.00    +0.000 A 
ATOM     12  C   UNL     1       0.310  10.663  18.699  0.00  0.00    +0.000 A 
ATOM     13  C   UNL     1       1.078   9.492  18.612  0.00  0.00    +0.000 A 
BRANCH  11  14
ATOM     14  N   UNL     1      -1.109  12.162  19.980  0.00  0.00    +0.000 N 
ATOM     15  H   UNL     1      -1.839  12.053  20.678  0.00  0.00    +0.000 HD
ATOM     16  H   UNL     1      -0.658  13.069  20.035  0.00  0.00    +0.000 HD
ENDBRANCH  11  14
ENDBRANCH   6   8
ENDBRANCH   1   7
BRANCH   2  17
ATOM     17  C   UNL     1       2.843   2.947  20.277  0.00  0.00    +0.000 C 
BRANCH  17  18
ATOM     18  O   UNL     1       4.149   3.424  19.994  0.00  0.00    +0.000 OA
BRANCH  18  19
ATOM     19  N   UNL     1       4.405   3.399  18.624  0.00  0.00    +0.000 NA
ATOM     20  C   UNL     1       5.309   4.287  18.311  0.00  0.00    +0.000 C 
ATOM     21  C   UNL     1       5.973   5.208  19.329  0.00  0.00    +0.000 C 
BRANCH  20  22
ATOM     22  C   UNL     1       5.694   4.391  16.906  0.00  0.00    +0.000 A 
ATOM     23  C   UNL     1       4.891   4.176  15.796  0.00  0.00    +0.000 A 
ATOM     24  C   UNL     1       5.585   4.365  14.571  0.00  0.00    +0.000 A 
ATOM     25  C   UNL     1       6.903   4.718  14.771  0.00  0.00    +0.000 A 
ATOM     26  S   UNL     1       7.285   4.820  16.429  0.00  0.00    +0.000 S 
ENDBRANCH  20  22
ENDBRANCH  18  19
ENDBRANCH  17  18
ENDBRANCH   2  17
TORSDOF 7
ENDMDL
MODEL 7
REMARK VINA RESULT:      -7.1      2.118      3.057
REMARK  Name = 
REMARK  9 active torsions:
REMARK  status: ('A' for Active; 'I' for Inactive)
REMARK    1  A    between atoms: C_1  and  C_2
REMARK    2  A    between atoms: C_2  and  C_17
REMARK    3  A    between atoms: N_3  and  N_4
REMARK    4  A    between atoms: C_5  and  C_7
REMARK    5  A    between atoms: C_7  and  O_8
REMARK    6  A    between atoms: O_8  and  N_9
REMARK    7  A    between atoms: C_10  and  C_11
REMARK    8  A    between atoms: C_10  and  C_12
REMARK    9  A    between atoms: C_20  and  N_21
REMARK                            x       y       z     vdW  Elec       q    Type
REMARK                         _______ _______ _______ _____ _____    ______ ____
ROOT
ATOM      1  N   UNL     1       7.030   6.385  16.516  0.00  0.00    +0.000 N 
ATOM      2  C   UNL     1       5.875   6.093  15.787  0.00  0.00    +0.000 C 
ATOM      3  O   UNL     1       5.123   6.941  15.309  0.00  0.00    +0.000 OA
ATOM      4  H   UNL     1       7.262   5.724  17.254  0.00  0.00    +0.000 HD
ENDROOT
BRANCH   1   7
ATOM      5  C   UNL     1       8.296   6.872  19.023  0.00  0.00    +0.000 C 
ATOM      6  C   UNL     1       8.005   7.915  17.952  0.00  0.00    +0.000 C 
ATOM      7  N   UNL     1       7.366   7.678  16.836  0.00  0.00    +0.000 NA
BRANCH   6   8
ATOM      8  C   UNL     1       8.451   9.322  18.250  0.00  0.00    +0.000 A 
ATOM      9  C   UNL     1       9.234   9.613  19.376  0.00  0.00    +0.000 A 
ATOM     10  C   UNL     1       9.589  10.931  19.679  0.00  0.00    +0.000 A 
ATOM     11  C   UNL     1       9.225  11.982  18.839  0.00  0.00    +0.000 A 
ATOM     12  C   UNL     1       8.421  11.699  17.731  0.00  0.00    +0.000 A 
ATOM     13  C   UNL     1       8.055  10.381  17.423  0.00  0.00    +0.000 A 
BRANCH  11  14
ATOM     14  N   UNL     1       9.460  13.302  19.233  0.00  0.00    +0.000 N 
ATOM     15  H   UNL     1      10.050  13.822  18.591  0.00  0.00    +0.000 HD
ATOM     16  H   UNL     1       8.620  13.813  19.485  0.00  0.00    +0.000 HD
ENDBRANCH  11  14
ENDBRANCH   6   8
ENDBRANCH   1   7
BRANCH   2  17
ATOM     17  C   UNL     1       5.674   4.596  15.586  0.00  0.00    +0.000 C 
BRANCH  17  18
ATOM     18  O   UNL     1       5.732   4.014  16.878  0.00  0.00    +0.000 OA
BRANCH  18  19
ATOM     19  N   UNL     1       4.465   3.615  17.305  0.00  0.00    +0.000 NA
ATOM     20  C   UNL     1       4.207   4.104  18.488  0.00  0.00    +0.000 C 
ATOM     21  C   UNL     1       5.177   4.985  19.266  0.00  0.00    +0.000 C 
BRANCH  20  22
ATOM     22  C   UNL     1       2.913   3.780  19.082  0.00  0.00    +0.000 A 
ATOM     23  C   UNL     1       2.333   4.358  20.201  0.00  0.00    +0.000 A 
ATOM     24  C   UNL     1       1.060   3.807  20.508  0.00  0.00    +0.000 A 
ATOM     25  C   UNL     1       0.696   2.818  19.619  0.00  0.00    +0.000 A 
ATOM     26  S   UNL     1       1.888   2.570  18.426  0.00  0.00    +0.000 S 
ENDBRANCH  20  22
ENDBRANCH  18  19
ENDBRANCH  17  18
ENDBRANCH   2  17
TORSDOF 7
ENDMDL
MODEL 8
REMARK VINA RESULT:      -7.1      7.539      9.934
REMARK  Name = 
REMARK  9 active torsions:
REMARK  status: ('A' for Active; 'I' for Inactive)
REMARK    1  A    between atoms: C_1  and  C_2
REMARK    2  A    between atoms: C_2  and  C_17
REMARK    3  A    between atoms: N_3  and  N_4
REMARK    4  A    between atoms: C_5  and  C_7
REMARK    5  A    between atoms: C_7  and  O_8
REMARK    6  A    between atoms: O_8  and  N_9
REMARK    7  A    between atoms: C_10  and  C_11
REMARK    8  A    between atoms: C_10  and  C_12
REMARK    9  A    between atoms: C_20  and  N_21
REMARK                            x       y       z     vdW  Elec       q    Type
REMARK                         _______ _______ _______ _____ _____    ______ ____
ROOT
ATOM      1  N   UNL     1       1.236   9.012  20.744  0.00  0.00    +0.000 N 
ATOM      2  C   UNL     1       0.019   8.916  21.423  0.00  0.00    +0.000 C 
ATOM      3  O   UNL     1      -0.587   7.862  21.615  0.00  0.00    +0.000 OA
ATOM      4  H   UNL     1       1.375   9.867  20.211  0.00  0.00    +0.000 HD
ENDROOT
BRANCH   1   7
ATOM      5  C   UNL     1       1.815   9.139  17.955  0.00  0.00    +0.000 C 
ATOM      6  C   UNL     1       2.143   7.977  18.883  0.00  0.00    +0.000 C 
ATOM      7  N   UNL     1       1.811   7.915  20.146  0.00  0.00    +0.000 NA
BRANCH   6   8
ATOM      8  C   UNL     1       2.856   6.805  18.261  0.00  0.00    +0.000 A 
ATOM      9  C   UNL     1       2.388   5.495  18.433  0.00  0.00    +0.000 A 
ATOM     10  C   UNL     1       3.092   4.409  17.906  0.00  0.00    +0.000 A 
ATOM     11  C   UNL     1       4.245   4.603  17.148  0.00  0.00    +0.000 A 
ATOM     12  C   UNL     1       4.731   5.906  16.998  0.00  0.00    +0.000 A 
ATOM     13  C   UNL     1       4.034   7.001  17.529  0.00  0.00    +0.000 A 
BRANCH  11  14
ATOM     14  N   UNL     1       5.016   3.504  16.756  0.00  0.00    +0.000 N 
ATOM     15  H   UNL     1       5.030   2.751  17.437  0.00  0.00    +0.000 HD
ATOM     16  H   UNL     1       4.814   3.172  15.820  0.00  0.00    +0.000 HD
ENDBRANCH  11  14
ENDBRANCH   6   8
ENDBRANCH   1   7
BRANCH   2  17
ATOM     17  C   UNL     1      -0.455  10.258  21.966  0.00  0.00    +0.000 C 
BRANCH  17  18
ATOM     18  O   UNL     1      -0.333  11.181  20.896  0.00  0.00    +0.000 OA
BRANCH  18  19
ATOM     19  N   UNL     1      -0.915  10.678  19.733  0.00  0.00    +0.000 NA
ATOM     20  C   UNL     1      -1.776  11.531  19.246  0.00  0.00    +0.000 C 
ATOM     21  C   UNL     1      -2.077  12.881  19.886  0.00  0.00    +0.000 C 
BRANCH  20  22
ATOM     22  C   UNL     1      -2.478  11.155  18.022  0.00  0.00    +0.000 A 
ATOM     23  C   UNL     1      -1.961  10.470  16.933  0.00  0.00    +0.000 A 
ATOM     24  C   UNL     1      -2.921  10.266  15.906  0.00  0.00    +0.000 A 
ATOM     25  C   UNL     1      -4.150  10.801  16.232  0.00  0.00    +0.000 A 
ATOM     26  S   UNL     1      -4.131  11.538  17.769  0.00  0.00    +0.000 S 
ENDBRANCH  20  22
ENDBRANCH  18  19
ENDBRANCH  17  18
ENDBRANCH   2  17
TORSDOF 7
ENDMDL
MODEL 9
REMARK VINA RESULT:      -7.0      5.461      8.103
REMARK  Name = 
REMARK  9 active torsions:
REMARK  status: ('A' for Active; 'I' for Inactive)
REMARK    1  A    between atoms: C_1  and  C_2
REMARK    2  A    between atoms: C_2  and  C_17
REMARK    3  A    between atoms: N_3  and  N_4
REMARK    4  A    between atoms: C_5  and  C_7
REMARK    5  A    between atoms: C_7  and  O_8
REMARK    6  A    between atoms: O_8  and  N_9
REMARK    7  A    between atoms: C_10  and  C_11
REMARK    8  A    between atoms: C_10  and  C_12
REMARK    9  A    between atoms: C_20  and  N_21
REMARK                            x       y       z     vdW  Elec       q    Type
REMARK                         _______ _______ _______ _____ _____    ______ ____
ROOT
ATOM      1  N   UNL     1       1.938   4.756  20.126  0.00  0.00    +0.000 N 
ATOM      2  C   UNL     1       2.357   3.690  20.926  0.00  0.00    +0.000 C 
ATOM      3  O   UNL     1       2.310   3.683  22.156  0.00  0.00    +0.000 OA
ATOM      4  H   UNL     1       2.458   4.887  19.262  0.00  0.00    +0.000 HD
ENDROOT
BRANCH   1   7
ATOM      5  C   UNL     1       2.658   7.185  18.821  0.00  0.00    +0.000 C 
ATOM      6  C   UNL     1       1.783   7.064  20.061  0.00  0.00    +0.000 C 
ATOM      7  N   UNL     1       1.518   5.942  20.679  0.00  0.00    +0.000 NA
BRANCH   6   8
ATOM      8  C   UNL     1       1.239   8.350  20.625  0.00  0.00    +0.000 A 
ATOM      9  C   UNL     1       0.983   8.491  21.995  0.00  0.00    +0.000 A 
ATOM     10  C   UNL     1       0.418   9.666  22.500  0.00  0.00    +0.000 A 
ATOM     11  C   UNL     1       0.150  10.749  21.663  0.00  0.00    +0.000 A 
ATOM     12  C   UNL     1       0.378  10.601  20.292  0.00  0.00    +0.000 A 
ATOM     13  C   UNL     1       0.939   9.424  19.777  0.00  0.00    +0.000 A 
BRANCH  11  14
ATOM     14  N   UNL     1      -0.549  11.855  22.157  0.00  0.00    +0.000 N 
ATOM     15  H   UNL     1       0.052  12.604  22.486  0.00  0.00    +0.000 HD
ATOM     16  H   UNL     1      -1.279  12.190  21.539  0.00  0.00    +0.000 HD
ENDBRANCH  11  14
ENDBRANCH   6   8
ENDBRANCH   1   7
BRANCH   2  17
ATOM     17  C   UNL     1       2.822   2.492  20.106  0.00  0.00    +0.000 C 
BRANCH  17  18
ATOM     18  O   UNL     1       3.353   3.022  18.902  0.00  0.00    +0.000 OA
BRANCH  18  19
ATOM     19  N   UNL     1       4.441   3.856  19.160  0.00  0.00    +0.000 NA
ATOM     20  C   UNL     1       4.849   4.428  18.060  0.00  0.00    +0.000 C 
ATOM     21  C   UNL     1       4.203   4.194  16.699  0.00  0.00    +0.000 C 
BRANCH  20  22
ATOM     22  C   UNL     1       5.988   5.338  18.156  0.00  0.00    +0.000 A 
ATOM     23  C   UNL     1       6.983   5.340  19.122  0.00  0.00    +0.000 A 
ATOM     24  C   UNL     1       7.946   6.364  18.917  0.00  0.00    +0.000 A 
ATOM     25  C   UNL     1       7.665   7.123  17.800  0.00  0.00    +0.000 A 
ATOM     26  S   UNL     1       6.249   6.590  17.014  0.00  0.00    +0.000 S 
ENDBRANCH  20  22
ENDBRANCH  18  19
ENDBRANCH  17  18
ENDBRANCH   2  17
TORSDOF 7
ENDMDL
