MODEL 1
REMARK VINA RESULT:      -7.4      0.000      0.000
REMARK  Name = 
REMARK  7 active torsions:
REMARK  status: ('A' for Active; 'I' for Inactive)
REMARK    1  A    between atoms: C_1  and  O_2
REMARK    2  A    between atoms: O_2  and  C_3
REMARK    3  A    between atoms: C_3  and  C_5
REMARK    4  A    between atoms: C_10  and  C_11
REMARK    5  A    between atoms: C_10  and  C_18
REMARK    6  A    between atoms: C_14  and  O_15
REMARK    7  A    between atoms: C_21  and  O_22
REMARK                            x       y       z     vdW  Elec       q    Type
REMARK                         _______ _______ _______ _____ _____    ______ ____
ROOT
ATOM      1  C   UNL     1       4.040   2.895  20.370  0.00  0.00    +0.000 C 
ATOM      2  C   UNL     1       2.895   2.841  21.389  0.00  0.00    +0.000 C 
ATOM      3  C   UNL     1       2.139   4.167  21.469  0.00  0.00    +0.000 C 
ATOM      4  C   UNL     1       1.677   4.650  20.092  0.00  0.00    +0.000 C 
ATOM      5  C   UNL     1       2.860   4.752  19.139  0.00  0.00    +0.000 C 
ATOM      6  C   UNL     1       3.246   5.892  18.508  0.00  0.00    +0.000 C 
ATOM      7  C   UNL     1       3.557   3.406  19.004  0.00  0.00    +0.000 C 
ENDROOT
BRANCH   6   8
ATOM      8  C   UNL     1       4.447   5.908  17.639  0.00  0.00    +0.000 A 
ATOM      9  C   UNL     1       5.672   6.413  18.103  0.00  0.00    +0.000 A 
ATOM     10  C   UNL     1       6.810   6.366  17.288  0.00  0.00    +0.000 A 
ATOM     11  C   UNL     1       6.717   5.811  16.015  0.00  0.00    +0.000 A 
ATOM     12  C   UNL     1       5.511   5.312  15.542  0.00  0.00    +0.000 A 
ATOM     13  C   UNL     1       4.376   5.363  16.351  0.00  0.00    +0.000 A 
BRANCH  11  14
ATOM     14  O   UNL     1       7.802   5.729  15.192  0.00  0.00    +0.000 OA
ATOM     15  H   UNL     1       7.535   5.997  14.298  0.00  0.00    +0.000 HD
ENDBRANCH  11  14
ENDBRANCH   6   8
BRANCH   6  16
ATOM     16  C   UNL     1       2.491   7.150  18.731  0.00  0.00    +0.000 A 
ATOM     17  C   UNL     1       2.195   7.997  17.653  0.00  0.00    +0.000 A 
ATOM     18  C   UNL     1       1.496   9.190  17.863  0.00  0.00    +0.000 A 
ATOM     19  C   UNL     1       1.089   9.525  19.151  0.00  0.00    +0.000 A 
ATOM     20  C   UNL     1       1.359   8.686  20.226  0.00  0.00    +0.000 A 
ATOM     21  C   UNL     1       2.062   7.497  20.017  0.00  0.00    +0.000 A 
BRANCH  19  22
ATOM     22  O   UNL     1       0.418  10.684  19.403  0.00  0.00    +0.000 OA
ATOM     23  H   UNL     1      -0.077  10.582  20.232  0.00  0.00    +0.000 HD
ENDBRANCH  19  22
ENDBRANCH   6  16
BRANCH   1  24
ATOM     24  C   UNL     1       4.638   1.512  20.211  0.00  0.00    +0.000 C 
ATOM     25  O   UNL     1       4.404   0.755  19.275  0.00  0.00    +0.000 OA
BRANCH  24  27
ATOM     26  C   UNL     1       5.887  -0.148  21.280  0.00  0.00    +0.000 C 
ATOM     27  O   UNL     1       5.444   1.212  21.266  0.00  0.00    +0.000 OA
ENDBRANCH  24  27
ENDBRANCH   1  24
TORSDOF 6
ENDMDL
MODEL 2
REMARK VINA RESULT:      -7.3      3.624      7.094
REMARK  Name = 
REMARK  7 active torsions:
REMARK  status: ('A' for Active; 'I' for Inactive)
REMARK    1  A    between atoms: C_1  and  O_2
REMARK    2  A    between atoms: O_2  and  C_3
REMARK    3  A    between atoms: C_3  and  C_5
REMARK    4  A    between atoms: C_10  and  C_11
REMARK    5  A    between atoms: C_10  and  C_18
REMARK    6  A    between atoms: C_14  and  O_15
REMARK    7  A    between atoms: C_21  and  O_22
REMARK                            x       y       z     vdW  Elec       q    Type
REMARK                         _______ _______ _______ _____ _____    ______ ____
ROOT
ATOM      1  C   UNL     1       5.574   3.986  12.812  0.00  0.00    +0.000 C 
ATOM      2  C   UNL     1       6.896   4.464  12.201  0.00  0.00    +0.000 C 
ATOM      3  C   UNL     1       7.657   5.394  13.146  0.00  0.00    +0.000 C 
ATOM      4  C   UNL     1       7.842   4.778  14.535  0.00  0.00    +0.000 C 
ATOM      5  C   UNL     1       6.495   4.384  15.125  0.00  0.00    +0.000 C 
ATOM      6  C   UNL     1       5.996   4.860  16.296  0.00  0.00    +0.000 C 
ATOM      7  C   UNL     1       5.780   3.395  14.215  0.00  0.00    +0.000 C 
ENDROOT
BRANCH   6   8
ATOM      8  C   UNL     1       4.648   4.460  16.764  0.00  0.00    +0.000 A 
ATOM      9  C   UNL     1       4.254   3.113  16.776  0.00  0.00    +0.000 A 
ATOM     10  C   UNL     1       2.998   2.748  17.277  0.00  0.00    +0.000 A 
ATOM     11  C   UNL     1       2.145   3.732  17.768  0.00  0.00    +0.000 A 
ATOM     12  C   UNL     1       2.520   5.069  17.760  0.00  0.00    +0.000 A 
ATOM     13  C   UNL     1       3.769   5.434  17.256  0.00  0.00    +0.000 A 
BRANCH  11  14
ATOM     14  O   UNL     1       0.920   3.422  18.281  0.00  0.00    +0.000 OA
ATOM     15  H   UNL     1       1.037   2.784  19.003  0.00  0.00    +0.000 HD
ENDBRANCH  11  14
ENDBRANCH   6   8
BRANCH   6  16
ATOM     16  C   UNL     1       6.784   5.834  17.091  0.00  0.00    +0.000 A 
ATOM     17  C   UNL     1       7.450   5.422  18.255  0.00  0.00    +0.000 A 
ATOM     18  C   UNL     1       8.182   6.341  19.013  0.00  0.00    +0.000 A 
ATOM     19  C   UNL     1       8.250   7.668  18.598  0.00  0.00    +0.000 A 
ATOM     20  C   UNL     1       7.611   8.086  17.436  0.00  0.00    +0.000 A 
ATOM     21  C   UNL     1       6.876   7.170  16.682  0.00  0.00    +0.000 A 
BRANCH  19  22
ATOM     22  O   UNL     1       8.940   8.600  19.314  0.00  0.00    +0.000 OA
ATOM     23  H   UNL     1       9.140   9.352  18.733  0.00  0.00    +0.000 HD
ENDBRANCH  19  22
ENDBRANCH   6  16
BRANCH   1  24
ATOM     24  C   UNL     1       4.951   2.941  11.909  0.00  0.00    +0.000 C 
ATOM     25  O   UNL     1       5.535   1.952  11.482  0.00  0.00    +0.000 OA
BRANCH  24  27
ATOM     26  C   UNL     1       3.473   3.645  10.242  0.00  0.00    +0.000 C 
ATOM     27  O   UNL     1       3.664   3.270  11.609  0.00  0.00    +0.000 OA
ENDBRANCH  24  27
ENDBRANCH   1  24
TORSDOF 6
ENDMDL
MODEL 3
REMARK VINA RESULT:      -7.1      4.534     10.460
REMARK  Name = 
REMARK  7 active torsions:
REMARK  status: ('A' for Active; 'I' for Inactive)
REMARK    1  A    between atoms: C_1  and  O_2
REMARK    2  A    between atoms: O_2  and  C_3
REMARK    3  A    between atoms: C_3  and  C_5
REMARK    4  A    between atoms: C_10  and  C_11
REMARK    5  A    between atoms: C_10  and  C_18
REMARK    6  A    between atoms: C_14  and  O_15
REMARK    7  A    between atoms: C_21  and  O_22
REMARK                            x       y       z     vdW  Elec       q    Type
REMARK                         _______ _______ _______ _____ _____    ______ ____
ROOT
ATOM      1  C   UNL     1      -0.017  14.714  19.659  0.00  0.00    +0.000 C 
ATOM      2  C   UNL     1       1.428  14.893  20.139  0.00  0.00    +0.000 C 
ATOM      3  C   UNL     1       2.125  13.552  20.365  0.00  0.00    +0.000 C 
ATOM      4  C   UNL     1       2.023  12.638  19.141  0.00  0.00    +0.000 C 
ATOM      5  C   UNL     1       0.566  12.437  18.748  0.00  0.00    +0.000 C 
ATOM      6  C   UNL     1      -0.058  11.231  18.687  0.00  0.00    +0.000 C 
ATOM      7  C   UNL     1      -0.097  13.773  18.447  0.00  0.00    +0.000 C 
ENDROOT
BRANCH   6   8
ATOM      8  C   UNL     1      -1.497  11.137  18.346  0.00  0.00    +0.000 A 
ATOM      9  C   UNL     1      -2.469  11.801  19.112  0.00  0.00    +0.000 A 
ATOM     10  C   UNL     1      -3.818  11.749  18.741  0.00  0.00    +0.000 A 
ATOM     11  C   UNL     1      -4.188  11.038  17.603  0.00  0.00    +0.000 A 
ATOM     12  C   UNL     1      -3.237  10.374  16.838  0.00  0.00    +0.000 A 
ATOM     13  C   UNL     1      -1.894  10.420  17.210  0.00  0.00    +0.000 A 
BRANCH  11  14
ATOM     14  O   UNL     1      -5.487  10.974  17.193  0.00  0.00    +0.000 OA
ATOM     15  H   UNL     1      -5.861  11.869  17.202  0.00  0.00    +0.000 HD
ENDBRANCH  11  14
ENDBRANCH   6   8
BRANCH   6  16
ATOM     16  C   UNL     1       0.694   9.994  19.017  0.00  0.00    +0.000 A 
ATOM     17  C   UNL     1       1.454   9.345  18.033  0.00  0.00    +0.000 A 
ATOM     18  C   UNL     1       2.152   8.173  18.339  0.00  0.00    +0.000 A 
ATOM     19  C   UNL     1       2.092   7.659  19.631  0.00  0.00    +0.000 A 
ATOM     20  C   UNL     1       1.358   8.303  20.621  0.00  0.00    +0.000 A 
ATOM     21  C   UNL     1       0.657   9.471  20.315  0.00  0.00    +0.000 A 
BRANCH  19  22
ATOM     22  O   UNL     1       2.744   6.512  19.969  0.00  0.00    +0.000 OA
ATOM     23  H   UNL     1       3.548   6.441  19.429  0.00  0.00    +0.000 HD
ENDBRANCH  19  22
ENDBRANCH   6  16
BRANCH   1  24
ATOM     24  C   UNL     1      -0.597  16.064  19.290  0.00  0.00    +0.000 C 
ATOM     25  O   UNL     1      -1.658  16.507  19.717  0.00  0.00    +0.000 OA
BRANCH  24  27
ATOM     26  C   UNL     1      -0.501  17.615  17.545  0.00  0.00    +0.000 C 
ATOM     27  O   UNL     1       0.203  16.703  18.393  0.00  0.00    +0.000 OA
ENDBRANCH  24  27
ENDBRANCH   1  24
TORSDOF 6
ENDMDL
MODEL 4
REMARK VINA RESULT:      -7.0      4.598     10.437
REMARK  Name = 
REMARK  7 active torsions:
REMARK  status: ('A' for Active; 'I' for Inactive)
REMARK    1  A    between atoms: C_1  and  O_2
REMARK    2  A    between atoms: O_2  and  C_3
REMARK    3  A    between atoms: C_3  and  C_5
REMARK    4  A    between atoms: C_10  and  C_11
REMARK    5  A    between atoms: C_10  and  C_18
REMARK    6  A    between atoms: C_14  and  O_15
REMARK    7  A    between atoms: C_21  and  O_22
REMARK                            x       y       z     vdW  Elec       q    Type
REMARK                         _______ _______ _______ _____ _____    ______ ____
ROOT
ATOM      1  C   UNL     1      -0.048  14.772  19.573  0.00  0.00    +0.000 C 
ATOM      2  C   UNL     1       1.388  14.947  20.078  0.00  0.00    +0.000 C 
ATOM      3  C   UNL     1       2.065  13.604  20.352  0.00  0.00    +0.000 C 
ATOM      4  C   UNL     1       1.977  12.660  19.149  0.00  0.00    +0.000 C 
ATOM      5  C   UNL     1       0.527  12.466  18.731  0.00  0.00    +0.000 C 
ATOM      6  C   UNL     1      -0.110  11.266  18.687  0.00  0.00    +0.000 C 
ATOM      7  C   UNL     1      -0.115  13.802  18.383  0.00  0.00    +0.000 C 
ENDROOT
BRANCH   6   8
ATOM      8  C   UNL     1      -1.543  11.180  18.319  0.00  0.00    +0.000 A 
ATOM      9  C   UNL     1      -2.532  11.803  19.098  0.00  0.00    +0.000 A 
ATOM     10  C   UNL     1      -3.874  11.761  18.703  0.00  0.00    +0.000 A 
ATOM     11  C   UNL     1      -4.221  11.101  17.527  0.00  0.00    +0.000 A 
ATOM     12  C   UNL     1      -3.254  10.478  16.749  0.00  0.00    +0.000 A 
ATOM     13  C   UNL     1      -1.917  10.514  17.144  0.00  0.00    +0.000 A 
BRANCH  11  14
ATOM     14  O   UNL     1      -5.513  11.048  17.094  0.00  0.00    +0.000 OA
ATOM     15  H   UNL     1      -6.033  11.704  17.584  0.00  0.00    +0.000 HD
ENDBRANCH  11  14
ENDBRANCH   6   8
BRANCH   6  16
ATOM     16  C   UNL     1       0.620  10.030  19.063  0.00  0.00    +0.000 A 
ATOM     17  C   UNL     1       0.548   9.536  20.373  0.00  0.00    +0.000 A 
ATOM     18  C   UNL     1       1.247   8.380  20.733  0.00  0.00    +0.000 A 
ATOM     19  C   UNL     1       2.008   7.717  19.774  0.00  0.00    +0.000 A 
ATOM     20  C   UNL     1       2.074   8.184  18.466  0.00  0.00    +0.000 A 
ATOM     21  C   UNL     1       1.380   9.342  18.109  0.00  0.00    +0.000 A 
BRANCH  19  22
ATOM     22  O   UNL     1       2.716   6.595  20.084  0.00  0.00    +0.000 OA
ATOM     23  H   UNL     1       3.579   6.860  20.441  0.00  0.00    +0.000 HD
ENDBRANCH  19  22
ENDBRANCH   6  16
BRANCH   1  24
ATOM     24  C   UNL     1      -0.605  16.119  19.159  0.00  0.00    +0.000 C 
ATOM     25  O   UNL     1      -0.362  16.676  18.094  0.00  0.00    +0.000 OA
BRANCH  24  27
ATOM     26  C   UNL     1      -2.251  15.684  20.758  0.00  0.00    +0.000 C 
ATOM     27  O   UNL     1      -1.383  16.642  20.146  0.00  0.00    +0.000 OA
ENDBRANCH  24  27
ENDBRANCH   1  24
TORSDOF 6
ENDMDL
MODEL 5
REMARK VINA RESULT:      -6.9      3.618      6.923
REMARK  Name = 
REMARK  7 active torsions:
REMARK  status: ('A' for Active; 'I' for Inactive)
REMARK    1  A    between atoms: C_1  and  O_2
REMARK    2  A    between atoms: O_2  and  C_3
REMARK    3  A    between atoms: C_3  and  C_5
REMARK    4  A    between atoms: C_10  and  C_11
REMARK    5  A    between atoms: C_10  and  C_18
REMARK    6  A    between atoms: C_14  and  O_15
REMARK    7  A    between atoms: C_21  and  O_22
REMARK                            x       y       z     vdW  Elec       q    Type
REMARK                         _______ _______ _______ _____ _____    ______ ____
ROOT
ATOM      1  C   UNL     1       5.644   4.010  12.831  0.00  0.00    +0.000 C 
ATOM      2  C   UNL     1       6.962   4.508  12.227  0.00  0.00    +0.000 C 
ATOM      3  C   UNL     1       7.701   5.456  13.171  0.00  0.00    +0.000 C 
ATOM      4  C   UNL     1       7.888   4.849  14.564  0.00  0.00    +0.000 C 
ATOM      5  C   UNL     1       6.545   4.435  15.148  0.00  0.00    +0.000 C 
ATOM      6  C   UNL     1       6.030   4.909  16.313  0.00  0.00    +0.000 C 
ATOM      7  C   UNL     1       5.852   3.429  14.239  0.00  0.00    +0.000 C 
ENDROOT
BRANCH   6   8
ATOM      8  C   UNL     1       4.687   4.487  16.776  0.00  0.00    +0.000 A 
ATOM      9  C   UNL     1       4.328   3.131  16.825  0.00  0.00    +0.000 A 
ATOM     10  C   UNL     1       3.076   2.748  17.320  0.00  0.00    +0.000 A 
ATOM     11  C   UNL     1       2.190   3.723  17.769  0.00  0.00    +0.000 A 
ATOM     12  C   UNL     1       2.530   5.069  17.723  0.00  0.00    +0.000 A 
ATOM     13  C   UNL     1       3.775   5.452  17.224  0.00  0.00    +0.000 A 
BRANCH  11  14
ATOM     14  O   UNL     1       0.966   3.397  18.274  0.00  0.00    +0.000 OA
ATOM     15  H   UNL     1       0.630   2.619  17.800  0.00  0.00    +0.000 HD
ENDBRANCH  11  14
ENDBRANCH   6   8
BRANCH   6  16
ATOM     16  C   UNL     1       6.797   5.899  17.109  0.00  0.00    +0.000 A 
ATOM     17  C   UNL     1       6.853   7.241  16.703  0.00  0.00    +0.000 A 
ATOM     18  C   UNL     1       7.586   8.173  17.444  0.00  0.00    +0.000 A 
ATOM     19  C   UNL     1       8.254   7.759  18.593  0.00  0.00    +0.000 A 
ATOM     20  C   UNL     1       8.192   6.436  19.017  0.00  0.00    +0.000 A 
ATOM     21  C   UNL     1       7.463   5.504  18.275  0.00  0.00    +0.000 A 
BRANCH  19  22
ATOM     22  O   UNL     1       8.991   8.630  19.337  0.00  0.00    +0.000 OA
ATOM     23  H   UNL     1       9.932   8.429  19.208  0.00  0.00    +0.000 HD
ENDBRANCH  19  22
ENDBRANCH   6  16
BRANCH   1  24
ATOM     24  C   UNL     1       5.045   2.949  11.930  0.00  0.00    +0.000 C 
ATOM     25  O   UNL     1       4.073   3.121  11.203  0.00  0.00    +0.000 OA
BRANCH  24  27
ATOM     26  C   UNL     1       6.295   1.299  10.848  0.00  0.00    +0.000 C 
ATOM     27  O   UNL     1       5.712   1.770  12.066  0.00  0.00    +0.000 OA
ENDBRANCH  24  27
ENDBRANCH   1  24
TORSDOF 6
ENDMDL
MODEL 6
REMARK VINA RESULT:      -6.9      4.662     10.588
REMARK  Name = 
REMARK  7 active torsions:
REMARK  status: ('A' for Active; 'I' for Inactive)
REMARK    1  A    between atoms: C_1  and  O_2
REMARK    2  A    between atoms: O_2  and  C_3
REMARK    3  A    between atoms: C_3  and  C_5
REMARK    4  A    between atoms: C_10  and  C_11
REMARK    5  A    between atoms: C_10  and  C_18
REMARK    6  A    between atoms: C_14  and  O_15
REMARK    7  A    between atoms: C_21  and  O_22
REMARK                            x       y       z     vdW  Elec       q    Type
REMARK                         _______ _______ _______ _____ _____    ______ ____
ROOT
ATOM      1  C   UNL     1      -0.151  14.857  19.725  0.00  0.00    +0.000 C 
ATOM      2  C   UNL     1       1.267  15.032  20.280  0.00  0.00    +0.000 C 
ATOM      3  C   UNL     1       1.955  13.689  20.524  0.00  0.00    +0.000 C 
ATOM      4  C   UNL     1       1.917  12.791  19.285  0.00  0.00    +0.000 C 
ATOM      5  C   UNL     1       0.483  12.593  18.815  0.00  0.00    +0.000 C 
ATOM      6  C   UNL     1      -0.134  11.387  18.708  0.00  0.00    +0.000 C 
ATOM      7  C   UNL     1      -0.167  13.932  18.498  0.00  0.00    +0.000 C 
ENDROOT
BRANCH   6   8
ATOM      8  C   UNL     1      -1.554  11.296  18.292  0.00  0.00    +0.000 A 
ATOM      9  C   UNL     1      -1.931  10.575  17.148  0.00  0.00    +0.000 A 
ATOM     10  C   UNL     1      -3.282  10.451  16.803  0.00  0.00    +0.000 A 
ATOM     11  C   UNL     1      -4.251  11.045  17.608  0.00  0.00    +0.000 A 
ATOM     12  C   UNL     1      -3.892  11.764  18.741  0.00  0.00    +0.000 A 
ATOM     13  C   UNL     1      -2.546  11.892  19.082  0.00  0.00    +0.000 A 
BRANCH  11  14
ATOM     14  O   UNL     1      -5.580  10.937  17.322  0.00  0.00    +0.000 OA
ATOM     15  H   UNL     1      -5.863  11.739  16.853  0.00  0.00    +0.000 HD
ENDBRANCH  11  14
ENDBRANCH   6   8
BRANCH   6  16
ATOM     16  C   UNL     1       0.602  10.147  19.059  0.00  0.00    +0.000 A 
ATOM     17  C   UNL     1       1.385   9.492  18.098  0.00  0.00    +0.000 A 
ATOM     18  C   UNL     1       2.068   8.317  18.423  0.00  0.00    +0.000 A 
ATOM     19  C   UNL     1       1.971   7.807  19.715  0.00  0.00    +0.000 A 
ATOM     20  C   UNL     1       1.214   8.456  20.684  0.00  0.00    +0.000 A 
ATOM     21  C   UNL     1       0.528   9.627  20.357  0.00  0.00    +0.000 A 
BRANCH  19  22
ATOM     22  O   UNL     1       2.609   6.657  20.072  0.00  0.00    +0.000 OA
ATOM     23  H   UNL     1       2.595   6.582  21.040  0.00  0.00    +0.000 HD
ENDBRANCH  19  22
ENDBRANCH   6  16
BRANCH   1  24
ATOM     24  C   UNL     1      -0.714  16.211  19.344  0.00  0.00    +0.000 C 
ATOM     25  O   UNL     1      -1.330  16.948  20.106  0.00  0.00    +0.000 OA
BRANCH  24  27
ATOM     26  C   UNL     1       0.073  17.783  17.805  0.00  0.00    +0.000 C 
ATOM     27  O   UNL     1      -0.474  16.481  18.031  0.00  0.00    +0.000 OA
ENDBRANCH  24  27
ENDBRANCH   1  24
TORSDOF 6
ENDMDL
MODEL 7
REMARK VINA RESULT:      -6.9      2.086      6.428
REMARK  Name = 
REMARK  7 active torsions:
REMARK  status: ('A' for Active; 'I' for Inactive)
REMARK    1  A    between atoms: C_1  and  O_2
REMARK    2  A    between atoms: O_2  and  C_3
REMARK    3  A    between atoms: C_3  and  C_5
REMARK    4  A    between atoms: C_10  and  C_11
REMARK    5  A    between atoms: C_10  and  C_18
REMARK    6  A    between atoms: C_14  and  O_15
REMARK    7  A    between atoms: C_21  and  O_22
REMARK                            x       y       z     vdW  Elec       q    Type
REMARK                         _______ _______ _______ _____ _____    ______ ____
ROOT
ATOM      1  C   UNL     1       6.852   7.165  18.202  0.00  0.00    +0.000 C 
ATOM      2  C   UNL     1       7.654   5.881  17.965  0.00  0.00    +0.000 C 
ATOM      3  C   UNL     1       6.807   4.628  18.187  0.00  0.00    +0.000 C 
ATOM      4  C   UNL     1       5.506   4.664  17.381  0.00  0.00    +0.000 C 
ATOM      5  C   UNL     1       4.714   5.923  17.704  0.00  0.00    +0.000 C 
ATOM      6  C   UNL     1       3.451   5.934  18.205  0.00  0.00    +0.000 C 
ATOM      7  C   UNL     1       5.539   7.167  17.403  0.00  0.00    +0.000 C 
ENDROOT
BRANCH   6   8
ATOM      8  C   UNL     1       2.779   7.211  18.541  0.00  0.00    +0.000 A 
ATOM      9  C   UNL     1       2.626   8.225  17.581  0.00  0.00    +0.000 A 
ATOM     10  C   UNL     1       1.937   9.401  17.900  0.00  0.00    +0.000 A 
ATOM     11  C   UNL     1       1.399   9.556  19.174  0.00  0.00    +0.000 A 
ATOM     12  C   UNL     1       1.546   8.563  20.134  0.00  0.00    +0.000 A 
ATOM     13  C   UNL     1       2.237   7.393  19.820  0.00  0.00    +0.000 A 
BRANCH  11  14
ATOM     14  O   UNL     1       0.706  10.677  19.525  0.00  0.00    +0.000 OA
ATOM     15  H   UNL     1      -0.185  10.625  19.142  0.00  0.00    +0.000 HD
ENDBRANCH  11  14
ENDBRANCH   6   8
BRANCH   6  16
ATOM     16  C   UNL     1       2.752   4.652  18.470  0.00  0.00    +0.000 A 
ATOM     17  C   UNL     1       3.210   3.792  19.479  0.00  0.00    +0.000 A 
ATOM     18  C   UNL     1       2.561   2.577  19.721  0.00  0.00    +0.000 A 
ATOM     19  C   UNL     1       1.451   2.232  18.956  0.00  0.00    +0.000 A 
ATOM     20  C   UNL     1       0.974   3.083  17.964  0.00  0.00    +0.000 A 
ATOM     21  C   UNL     1       1.625   4.294  17.720  0.00  0.00    +0.000 A 
BRANCH  19  22
ATOM     22  O   UNL     1       0.797   1.052  19.147  0.00  0.00    +0.000 OA
ATOM     23  H   UNL     1       0.987   0.467  18.397  0.00  0.00    +0.000 HD
ENDBRANCH  19  22
ENDBRANCH   6  16
BRANCH   1  24
ATOM     24  C   UNL     1       7.688   8.364  17.802  0.00  0.00    +0.000 C 
ATOM     25  O   UNL     1       7.493   9.047  16.804  0.00  0.00    +0.000 OA
BRANCH  24  27
ATOM     26  C   UNL     1       9.053   9.930  18.870  0.00  0.00    +0.000 C 
ATOM     27  O   UNL     1       8.707   8.555  18.685  0.00  0.00    +0.000 OA
ENDBRANCH  24  27
ENDBRANCH   1  24
TORSDOF 6
ENDMDL
MODEL 8
REMARK VINA RESULT:      -6.9      4.497     10.283
REMARK  Name = 
REMARK  7 active torsions:
REMARK  status: ('A' for Active; 'I' for Inactive)
REMARK    1  A    between atoms: C_1  and  O_2
REMARK    2  A    between atoms: O_2  and  C_3
REMARK    3  A    between atoms: C_3  and  C_5
REMARK    4  A    between atoms: C_10  and  C_11
REMARK    5  A    between atoms: C_10  and  C_18
REMARK    6  A    between atoms: C_14  and  O_15
REMARK    7  A    between atoms: C_21  and  O_22
REMARK                            x       y       z     vdW  Elec       q    Type
REMARK                         _______ _______ _______ _____ _____    ______ ____
ROOT
ATOM      1  C   UNL     1       0.137  14.677  19.458  0.00  0.00    +0.000 C 
ATOM      2  C   UNL     1       1.595  14.847  19.902  0.00  0.00    +0.000 C 
ATOM      3  C   UNL     1       2.266  13.503  20.183  0.00  0.00    +0.000 C 
ATOM      4  C   UNL     1       2.121  12.531  19.010  0.00  0.00    +0.000 C 
ATOM      5  C   UNL     1       0.653  12.344  18.653  0.00  0.00    +0.000 C 
ATOM      6  C   UNL     1       0.002  11.151  18.665  0.00  0.00    +0.000 C 
ATOM      7  C   UNL     1       0.013  13.679  18.297  0.00  0.00    +0.000 C 
ENDROOT
BRANCH   6   8
ATOM      8  C   UNL     1      -1.446  11.074  18.355  0.00  0.00    +0.000 A 
ATOM      9  C   UNL     1      -2.389  11.786  19.112  0.00  0.00    +0.000 A 
ATOM     10  C   UNL     1      -3.746  11.747  18.769  0.00  0.00    +0.000 A 
ATOM     11  C   UNL     1      -4.152  11.000  17.666  0.00  0.00    +0.000 A 
ATOM     12  C   UNL     1      -3.230  10.288  16.910  0.00  0.00    +0.000 A 
ATOM     13  C   UNL     1      -1.878  10.321  17.255  0.00  0.00    +0.000 A 
BRANCH  11  14
ATOM     14  O   UNL     1      -5.459  10.946  17.284  0.00  0.00    +0.000 OA
ATOM     15  H   UNL     1      -5.740  11.833  17.005  0.00  0.00    +0.000 HD
ENDBRANCH  11  14
ENDBRANCH   6   8
BRANCH   6  16
ATOM     16  C   UNL     1       0.732   9.916  19.043  0.00  0.00    +0.000 A 
ATOM     17  C   UNL     1       1.504   9.231  18.093  0.00  0.00    +0.000 A 
ATOM     18  C   UNL     1       2.182   8.060  18.445  0.00  0.00    +0.000 A 
ATOM     19  C   UNL     1       2.090   7.584  19.749  0.00  0.00    +0.000 A 
ATOM     20  C   UNL     1       1.344   8.262  20.707  0.00  0.00    +0.000 A 
ATOM     21  C   UNL     1       0.663   9.429  20.355  0.00  0.00    +0.000 A 
BRANCH  19  22
ATOM     22  O   UNL     1       2.722   6.439  20.132  0.00  0.00    +0.000 OA
ATOM     23  H   UNL     1       2.232   5.680  19.776  0.00  0.00    +0.000 HD
ENDBRANCH  19  22
ENDBRANCH   6  16
BRANCH   1  24
ATOM     24  C   UNL     1      -0.420  16.020  19.032  0.00  0.00    +0.000 C 
ATOM     25  O   UNL     1       0.121  16.777  18.234  0.00  0.00    +0.000 OA
BRANCH  24  27
ATOM     26  C   UNL     1      -1.775  15.498  20.862  0.00  0.00    +0.000 C 
ATOM     27  O   UNL     1      -1.586  16.286  19.683  0.00  0.00    +0.000 OA
ENDBRANCH  24  27
ENDBRANCH   1  24
TORSDOF 6
ENDMDL
MODEL 9
REMARK VINA RESULT:      -6.8      4.652     10.635
REMARK  Name = 
REMARK  7 active torsions:
REMARK  status: ('A' for Active; 'I' for Inactive)
REMARK    1  A    between atoms: C_1  and  O_2
REMARK    2  A    between atoms: O_2  and  C_3
REMARK    3  A    between atoms: C_3  and  C_5
REMARK    4  A    between atoms: C_10  and  C_11
REMARK    5  A    between atoms: C_10  and  C_18
REMARK    6  A    between atoms: C_14  and  O_15
REMARK    7  A    between atoms: C_21  and  O_22
REMARK                            x       y       z     vdW  Elec       q    Type
REMARK                         _______ _______ _______ _____ _____    ______ ____
ROOT
ATOM      1  C   UNL     1      -0.080  14.836  19.556  0.00  0.00    +0.000 C 
ATOM      2  C   UNL     1       1.346  15.008  20.091  0.00  0.00    +0.000 C 
ATOM      3  C   UNL     1       2.013  13.663  20.381  0.00  0.00    +0.000 C 
ATOM      4  C   UNL     1       1.947  12.717  19.179  0.00  0.00    +0.000 C 
ATOM      5  C   UNL     1       0.505  12.526  18.731  0.00  0.00    +0.000 C 
ATOM      6  C   UNL     1      -0.135  11.328  18.677  0.00  0.00    +0.000 C 
ATOM      7  C   UNL     1      -0.126  13.864  18.368  0.00  0.00    +0.000 C 
ENDROOT
BRANCH   6   8
ATOM      8  C   UNL     1      -1.560  11.246  18.280  0.00  0.00    +0.000 A 
ATOM      9  C   UNL     1      -1.958  10.513  17.150  0.00  0.00    +0.000 A 
ATOM     10  C   UNL     1      -3.315  10.399  16.823  0.00  0.00    +0.000 A 
ATOM     11  C   UNL     1      -4.267  11.014  17.630  0.00  0.00    +0.000 A 
ATOM     12  C   UNL     1      -3.888  11.746  18.748  0.00  0.00    +0.000 A 
ATOM     13  C   UNL     1      -2.536  11.865  19.072  0.00  0.00    +0.000 A 
BRANCH  11  14
ATOM     14  O   UNL     1      -5.601  10.917  17.361  0.00  0.00    +0.000 OA
ATOM     15  H   UNL     1      -6.024  10.402  18.067  0.00  0.00    +0.000 HD
ENDBRANCH  11  14
ENDBRANCH   6   8
BRANCH   6  16
ATOM     16  C   UNL     1       0.583  10.091  19.070  0.00  0.00    +0.000 A 
ATOM     17  C   UNL     1       0.475   9.595  20.378  0.00  0.00    +0.000 A 
ATOM     18  C   UNL     1       1.162   8.437  20.754  0.00  0.00    +0.000 A 
ATOM     19  C   UNL     1       1.949   7.775  19.816  0.00  0.00    +0.000 A 
ATOM     20  C   UNL     1       2.052   8.245  18.511  0.00  0.00    +0.000 A 
ATOM     21  C   UNL     1       1.369   9.404  18.137  0.00  0.00    +0.000 A 
BRANCH  19  22
ATOM     22  O   UNL     1       2.648   6.652  20.142  0.00  0.00    +0.000 OA
ATOM     23  H   UNL     1       2.084   5.878  19.981  0.00  0.00    +0.000 HD
ENDBRANCH  19  22
ENDBRANCH   6  16
BRANCH   1  24
ATOM     24  C   UNL     1      -0.624  16.184  19.128  0.00  0.00    +0.000 C 
ATOM     25  O   UNL     1      -0.401  16.713  18.045  0.00  0.00    +0.000 OA
BRANCH  24  27
ATOM     26  C   UNL     1      -2.475  17.510  19.652  0.00  0.00    +0.000 C 
ATOM     27  O   UNL     1      -1.364  16.743  20.125  0.00  0.00    +0.000 OA
ENDBRANCH  24  27
ENDBRANCH   1  24
TORSDOF 6
ENDMDL
