MODEL 1
REMARK VINA RESULT:      -8.3      0.000      0.000
REMARK  Name = 
REMARK  9 active torsions:
REMARK  status: ('A' for Active; 'I' for Inactive)
REMARK    1  A    between atoms: C_2  and  C_4
REMARK    2  A    between atoms: C_8  and  N_9
REMARK    3  A    between atoms: C_10  and  C_12
REMARK    4  A    between atoms: C_12  and  N_13
REMARK    5  A    between atoms: C_16  and  N_17
REMARK    6  A    between atoms: N_17  and  S_18
REMARK    7  A    between atoms: S_18  and  C_21
REMARK    8  A    between atoms: C_21  and  C_22
REMARK    9  A    between atoms: C_30  and  O_31
REMARK                            x       y       z     vdW  Elec       q    Type
REMARK                         _______ _______ _______ _____ _____    ______ ____
ROOT
ATOM      1  C   UNL     1       2.087   6.165  20.872  0.00  0.00    +0.000 C 
ENDROOT
BRANCH   1   2
ATOM      2  N   UNL     1       2.043   7.249  19.906  0.00  0.00    +0.000 N 
ATOM      3  C   UNL     1       2.148   7.033  18.488  0.00  0.00    +0.000 C 
ATOM      4  C   UNL     1       2.137   8.442  17.925  0.00  0.00    +0.000 C 
ATOM      5  C   UNL     1       1.199   9.204  18.877  0.00  0.00    +0.000 C 
ATOM      6  C   UNL     1       1.406   8.452  20.189  0.00  0.00    +0.000 C 
ATOM      7  O   UNL     1       1.032   8.742  21.313  0.00  0.00    +0.000 OA
BRANCH   5   8
ATOM      8  N   UNL     1       1.491  10.670  18.783  0.00  0.00    +0.000 NA
ATOM      9  H   UNL     1       1.746  10.898  17.822  0.00  0.00    +0.000 HD
BRANCH   8  10
ATOM     10  S   UNL     1       0.153  11.629  19.241  0.00  0.00    +0.000 S 
ATOM     11  O   UNL     1       0.473  12.062  20.577  0.00  0.00    +0.000 OA
ATOM     12  O   UNL     1      -0.128  12.535  18.159  0.00  0.00    +0.000 OA
BRANCH  10  13
ATOM     13  C   UNL     1      -1.210  10.425  19.328  0.00  0.00    +0.000 C 
BRANCH  13  14
ATOM     14  C   UNL     1      -2.063  10.677  18.107  0.00  0.00    +0.000 A 
ATOM     15  C   UNL     1      -3.188  11.511  18.191  0.00  0.00    +0.000 A 
ATOM     16  C   UNL     1      -4.104  11.574  17.139  0.00  0.00    +0.000 A 
ATOM     17  C   UNL     1      -3.890  10.828  15.982  0.00  0.00    +0.000 A 
ATOM     18  C   UNL     1      -2.747  10.041  15.864  0.00  0.00    +0.000 A 
ATOM     19  C   UNL     1      -1.837   9.964  16.920  0.00  0.00    +0.000 A 
ENDBRANCH  13  14
ENDBRANCH  10  13
ENDBRANCH   8  10
ENDBRANCH   5   8
ENDBRANCH   1   2
BRANCH   1  21
ATOM     20  N   UNL     1       3.983   5.133  19.653  0.00  0.00    +0.000 N 
ATOM     21  C   UNL     1       2.815   4.920  20.349  0.00  0.00    +0.000 C 
ATOM     22  O   UNL     1       2.448   3.786  20.654  0.00  0.00    +0.000 OA
ATOM     23  H   UNL     1       4.293   6.103  19.530  0.00  0.00    +0.000 HD
BRANCH  20  28
ATOM     24  C   UNL     1       5.774   5.260  17.086  0.00  0.00    +0.000 C 
ATOM     25  C   UNL     1       4.898   4.394  16.168  0.00  0.00    +0.000 C 
ATOM     26  C   UNL     1       3.646   3.857  16.853  0.00  0.00    +0.000 C 
ATOM     27  C   UNL     1       3.964   3.158  18.171  0.00  0.00    +0.000 C 
ATOM     28  C   UNL     1       4.797   4.034  19.112  0.00  0.00    +0.000 C 
ATOM     29  C   UNL     1       6.092   4.508  18.388  0.00  0.00    +0.000 C 
BRANCH  24  31
ATOM     30  N   UNL     1       7.629   4.921  15.506  0.00  0.00    +0.000 NA
ATOM     31  C   UNL     1       7.067   5.689  16.379  0.00  0.00    +0.000 C 
ATOM     32  N   UNL     1       7.613   6.901  16.685  0.00  0.00    +0.000 N 
ATOM     33  H   UNL     1       8.447   5.395  15.114  0.00  0.00    +0.000 HD
ATOM     34  H   UNL     1       8.615   6.976  16.548  0.00  0.00    +0.000 HD
ATOM     35  H   UNL     1       7.355   7.209  17.632  0.00  0.00    +0.000 HD
ENDBRANCH  24  31
BRANCH  29  36
ATOM     36  O   UNL     1       6.926   5.316  19.238  0.00  0.00    +0.000 OA
ATOM     37  H   UNL     1       6.832   6.246  18.949  0.00  0.00    +0.000 HD
ENDBRANCH  29  36
ENDBRANCH  20  28
ENDBRANCH   1  21
TORSDOF 9
ENDMDL
MODEL 2
REMARK VINA RESULT:      -8.3      0.645      1.224
REMARK  Name = 
REMARK  9 active torsions:
REMARK  status: ('A' for Active; 'I' for Inactive)
REMARK    1  A    between atoms: C_2  and  C_4
REMARK    2  A    between atoms: C_8  and  N_9
REMARK    3  A    between atoms: C_10  and  C_12
REMARK    4  A    between atoms: C_12  and  N_13
REMARK    5  A    between atoms: C_16  and  N_17
REMARK    6  A    between atoms: N_17  and  S_18
REMARK    7  A    between atoms: S_18  and  C_21
REMARK    8  A    between atoms: C_21  and  C_22
REMARK    9  A    between atoms: C_30  and  O_31
REMARK                            x       y       z     vdW  Elec       q    Type
REMARK                         _______ _______ _______ _____ _____    ______ ____
ROOT
ATOM      1  C   UNL     1       1.921   6.906  20.811  0.00  0.00    +0.000 C 
ENDROOT
BRANCH   1   2
ATOM      2  N   UNL     1       1.844   7.942  19.795  0.00  0.00    +0.000 N 
ATOM      3  C   UNL     1       2.065   7.683  18.398  0.00  0.00    +0.000 C 
ATOM      4  C   UNL     1       1.963   9.062  17.774  0.00  0.00    +0.000 C 
ATOM      5  C   UNL     1       0.896   9.768  18.628  0.00  0.00    +0.000 C 
ATOM      6  C   UNL     1       1.081   9.089  19.983  0.00  0.00    +0.000 C 
ATOM      7  O   UNL     1       0.606   9.386  21.066  0.00  0.00    +0.000 OA
BRANCH   5   8
ATOM      8  N   UNL     1       1.058  11.250  18.487  0.00  0.00    +0.000 NA
ATOM      9  H   UNL     1       1.360  11.464  17.537  0.00  0.00    +0.000 HD
BRANCH   8  10
ATOM     10  S   UNL     1      -0.392  12.094  18.809  0.00  0.00    +0.000 S 
ATOM     11  O   UNL     1      -0.120  12.804  20.033  0.00  0.00    +0.000 OA
ATOM     12  O   UNL     1      -0.803  12.741  17.591  0.00  0.00    +0.000 OA
BRANCH  10  13
ATOM     13  C   UNL     1      -1.580  10.761  19.160  0.00  0.00    +0.000 C 
BRANCH  13  14
ATOM     14  C   UNL     1      -2.469  10.667  17.941  0.00  0.00    +0.000 A 
ATOM     15  C   UNL     1      -2.069   9.907  16.831  0.00  0.00    +0.000 A 
ATOM     16  C   UNL     1      -2.767   9.992  15.626  0.00  0.00    +0.000 A 
ATOM     17  C   UNL     1      -3.889  10.812  15.525  0.00  0.00    +0.000 A 
ATOM     18  C   UNL     1      -4.329  11.527  16.636  0.00  0.00    +0.000 A 
ATOM     19  C   UNL     1      -3.625  11.456  17.839  0.00  0.00    +0.000 A 
ENDBRANCH  13  14
ENDBRANCH  10  13
ENDBRANCH   8  10
ENDBRANCH   5   8
ENDBRANCH   1   2
BRANCH   1  21
ATOM     20  N   UNL     1       3.794   5.574  19.879  0.00  0.00    +0.000 N 
ATOM     21  C   UNL     1       2.476   5.579  20.276  0.00  0.00    +0.000 C 
ATOM     22  O   UNL     1       1.818   4.540  20.329  0.00  0.00    +0.000 OA
ATOM     23  H   UNL     1       4.320   6.450  19.967  0.00  0.00    +0.000 HD
BRANCH  20  28
ATOM     24  C   UNL     1       5.743   5.454  17.429  0.00  0.00    +0.000 C 
ATOM     25  C   UNL     1       4.806   4.741  16.442  0.00  0.00    +0.000 C 
ATOM     26  C   UNL     1       3.446   4.393  17.039  0.00  0.00    +0.000 C 
ATOM     27  C   UNL     1       3.571   3.640  18.361  0.00  0.00    +0.000 C 
ATOM     28  C   UNL     1       4.465   4.370  19.368  0.00  0.00    +0.000 C 
ATOM     29  C   UNL     1       5.861   4.648  18.734  0.00  0.00    +0.000 C 
BRANCH  24  31
ATOM     30  N   UNL     1       7.730   6.821  16.949  0.00  0.00    +0.000 NA
ATOM     31  C   UNL     1       7.128   5.688  16.811  0.00  0.00    +0.000 C 
ATOM     32  N   UNL     1       7.717   4.673  16.115  0.00  0.00    +0.000 N 
ATOM     33  H   UNL     1       8.654   6.770  16.512  0.00  0.00    +0.000 HD
ATOM     34  H   UNL     1       8.380   4.959  15.403  0.00  0.00    +0.000 HD
ATOM     35  H   UNL     1       7.023   4.024  15.722  0.00  0.00    +0.000 HD
ENDBRANCH  24  31
BRANCH  29  36
ATOM     36  O   UNL     1       6.751   5.312  19.649  0.00  0.00    +0.000 OA
ATOM     37  H   UNL     1       7.665   5.047  19.420  0.00  0.00    +0.000 HD
ENDBRANCH  29  36
ENDBRANCH  20  28
ENDBRANCH   1  21
TORSDOF 9
ENDMDL
MODEL 3
REMARK VINA RESULT:      -8.2      3.489      9.507
REMARK  Name = 
REMARK  9 active torsions:
REMARK  status: ('A' for Active; 'I' for Inactive)
REMARK    1  A    between atoms: C_2  and  C_4
REMARK    2  A    between atoms: C_8  and  N_9
REMARK    3  A    between atoms: C_10  and  C_12
REMARK    4  A    between atoms: C_12  and  N_13
REMARK    5  A    between atoms: C_16  and  N_17
REMARK    6  A    between atoms: N_17  and  S_18
REMARK    7  A    between atoms: S_18  and  C_21
REMARK    8  A    between atoms: C_21  and  C_22
REMARK    9  A    between atoms: C_30  and  O_31
REMARK                            x       y       z     vdW  Elec       q    Type
REMARK                         _______ _______ _______ _____ _____    ______ ____
ROOT
ATOM      1  C   UNL     1       0.556   8.890  21.161  0.00  0.00    +0.000 C 
ENDROOT
BRANCH   1   2
ATOM      2  N   UNL     1       1.197   8.394  19.954  0.00  0.00    +0.000 N 
ATOM      3  C   UNL     1       1.645   9.260  18.898  0.00  0.00    +0.000 C 
ATOM      4  C   UNL     1       2.151   8.287  17.850  0.00  0.00    +0.000 C 
ATOM      5  C   UNL     1       2.740   7.134  18.680  0.00  0.00    +0.000 C 
ATOM      6  C   UNL     1       1.874   7.180  19.937  0.00  0.00    +0.000 C 
ATOM      7  O   UNL     1       1.800   6.380  20.853  0.00  0.00    +0.000 OA
BRANCH   5   8
ATOM      8  N   UNL     1       2.793   5.899  17.835  0.00  0.00    +0.000 NA
ATOM      9  H   UNL     1       2.547   6.141  16.875  0.00  0.00    +0.000 HD
BRANCH   8  10
ATOM     10  S   UNL     1       4.340   5.174  17.842  0.00  0.00    +0.000 S 
ATOM     11  O   UNL     1       4.937   5.608  16.605  0.00  0.00    +0.000 OA
ATOM     12  O   UNL     1       4.929   5.409  19.134  0.00  0.00    +0.000 OA
BRANCH  10  13
ATOM     13  C   UNL     1       3.966   3.397  17.716  0.00  0.00    +0.000 C 
BRANCH  13  14
ATOM     14  C   UNL     1       3.016   3.092  18.852  0.00  0.00    +0.000 A 
ATOM     15  C   UNL     1       1.630   3.176  18.655  0.00  0.00    +0.000 A 
ATOM     16  C   UNL     1       0.755   3.117  19.741  0.00  0.00    +0.000 A 
ATOM     17  C   UNL     1       1.254   2.942  21.030  0.00  0.00    +0.000 A 
ATOM     18  C   UNL     1       2.625   2.799  21.231  0.00  0.00    +0.000 A 
ATOM     19  C   UNL     1       3.503   2.873  20.149  0.00  0.00    +0.000 A 
ENDBRANCH  13  14
ENDBRANCH  10  13
ENDBRANCH   8  10
ENDBRANCH   5   8
ENDBRANCH   1   2
BRANCH   1  21
ATOM     20  N   UNL     1      -0.759  10.967  20.839  0.00  0.00    +0.000 N 
ATOM     21  C   UNL     1       0.451  10.420  21.202  0.00  0.00    +0.000 C 
ATOM     22  O   UNL     1       1.355  11.114  21.666  0.00  0.00    +0.000 OA
ATOM     23  H   UNL     1      -1.510  10.323  20.569  0.00  0.00    +0.000 HD
BRANCH  20  28
ATOM     24  C   UNL     1      -3.015  12.427  22.450  0.00  0.00    +0.000 C 
ATOM     25  C   UNL     1      -3.928  12.785  21.267  0.00  0.00    +0.000 C 
ATOM     26  C   UNL     1      -3.374  12.342  19.917  0.00  0.00    +0.000 C 
ATOM     27  C   UNL     1      -1.939  12.812  19.699  0.00  0.00    +0.000 C 
ATOM     28  C   UNL     1      -1.012  12.416  20.852  0.00  0.00    +0.000 C 
ATOM     29  C   UNL     1      -1.588  12.942  22.201  0.00  0.00    +0.000 C 
BRANCH  24  31
ATOM     30  N   UNL     1      -3.231  14.158  24.183  0.00  0.00    +0.000 NA
ATOM     31  C   UNL     1      -3.569  12.984  23.768  0.00  0.00    +0.000 C 
ATOM     32  N   UNL     1      -4.432  12.216  24.495  0.00  0.00    +0.000 N 
ATOM     33  H   UNL     1      -3.734  14.370  25.049  0.00  0.00    +0.000 HD
ATOM     34  H   UNL     1      -4.446  12.399  25.492  0.00  0.00    +0.000 HD
ATOM     35  H   UNL     1      -4.297  11.213  24.316  0.00  0.00    +0.000 HD
ENDBRANCH  24  31
BRANCH  29  36
ATOM     36  O   UNL     1      -0.741  12.618  23.317  0.00  0.00    +0.000 OA
ATOM     37  H   UNL     1       0.124  12.331  22.962  0.00  0.00    +0.000 HD
ENDBRANCH  29  36
ENDBRANCH  20  28
ENDBRANCH   1  21
TORSDOF 9
ENDMDL
MODEL 4
REMARK VINA RESULT:      -8.1      3.725      9.652
REMARK  Name = 
REMARK  9 active torsions:
REMARK  status: ('A' for Active; 'I' for Inactive)
REMARK    1  A    between atoms: C_2  and  C_4
REMARK    2  A    between atoms: C_8  and  N_9
REMARK    3  A    between atoms: C_10  and  C_12
REMARK    4  A    between atoms: C_12  and  N_13
REMARK    5  A    between atoms: C_16  and  N_17
REMARK    6  A    between atoms: N_17  and  S_18
REMARK    7  A    between atoms: S_18  and  C_21
REMARK    8  A    between atoms: C_21  and  C_22
REMARK    9  A    between atoms: C_30  and  O_31
REMARK                            x       y       z     vdW  Elec       q    Type
REMARK                         _______ _______ _______ _____ _____    ______ ____
ROOT
ATOM      1  C   UNL     1       0.415   9.435  21.315  0.00  0.00    +0.000 C 
ENDROOT
BRANCH   1   2
ATOM      2  N   UNL     1       0.987   8.998  20.052  0.00  0.00    +0.000 N 
ATOM      3  C   UNL     1       1.320   9.910  18.991  0.00  0.00    +0.000 C 
ATOM      4  C   UNL     1       1.789   8.988  17.882  0.00  0.00    +0.000 C 
ATOM      5  C   UNL     1       2.485   7.841  18.635  0.00  0.00    +0.000 C 
ATOM      6  C   UNL     1       1.713   7.817  19.951  0.00  0.00    +0.000 C 
ATOM      7  O   UNL     1       1.739   6.991  20.848  0.00  0.00    +0.000 OA
BRANCH   5   8
ATOM      8  N   UNL     1       2.529   6.631  17.753  0.00  0.00    +0.000 NA
ATOM      9  H   UNL     1       2.229   6.892  16.814  0.00  0.00    +0.000 HD
BRANCH   8  10
ATOM     10  S   UNL     1       4.094   5.951  17.663  0.00  0.00    +0.000 S 
ATOM     11  O   UNL     1       4.595   6.392  16.386  0.00  0.00    +0.000 OA
ATOM     12  O   UNL     1       4.760   6.215  18.912  0.00  0.00    +0.000 OA
BRANCH  10  13
ATOM     13  C   UNL     1       3.765   4.163  17.574  0.00  0.00    +0.000 C 
BRANCH  13  14
ATOM     14  C   UNL     1       2.777   3.868  18.679  0.00  0.00    +0.000 A 
ATOM     15  C   UNL     1       3.185   3.909  20.021  0.00  0.00    +0.000 A 
ATOM     16  C   UNL     1       2.351   3.426  21.030  0.00  0.00    +0.000 A 
ATOM     17  C   UNL     1       1.090   2.925  20.714  0.00  0.00    +0.000 A 
ATOM     18  C   UNL     1       0.652   2.933  19.392  0.00  0.00    +0.000 A 
ATOM     19  C   UNL     1       1.489   3.401  18.378  0.00  0.00    +0.000 A 
ENDBRANCH  13  14
ENDBRANCH  10  13
ENDBRANCH   8  10
ENDBRANCH   5   8
ENDBRANCH   1   2
BRANCH   1  21
ATOM     20  N   UNL     1      -1.162  11.344  21.207  0.00  0.00    +0.000 N 
ATOM     21  C   UNL     1       0.145  10.944  21.364  0.00  0.00    +0.000 C 
ATOM     22  O   UNL     1       1.029  11.745  21.667  0.00  0.00    +0.000 OA
ATOM     23  H   UNL     1      -1.870  10.614  21.070  0.00  0.00    +0.000 HD
BRANCH  20  28
ATOM     24  C   UNL     1      -3.501  12.524  22.926  0.00  0.00    +0.000 C 
ATOM     25  C   UNL     1      -4.493  12.794  21.784  0.00  0.00    +0.000 C 
ATOM     26  C   UNL     1      -3.947  12.432  20.407  0.00  0.00    +0.000 C 
ATOM     27  C   UNL     1      -2.582  13.061  20.144  0.00  0.00    +0.000 C 
ATOM     28  C   UNL     1      -1.573  12.755  21.254  0.00  0.00    +0.000 C 
ATOM     29  C   UNL     1      -2.150  13.197  22.632  0.00  0.00    +0.000 C 
BRANCH  24  31
ATOM     30  N   UNL     1      -3.784  14.176  24.726  0.00  0.00    +0.000 NA
ATOM     31  C   UNL     1      -4.061  12.999  24.274  0.00  0.00    +0.000 C 
ATOM     32  N   UNL     1      -4.862  12.156  24.987  0.00  0.00    +0.000 N 
ATOM     33  H   UNL     1      -4.282  14.326  25.607  0.00  0.00    +0.000 HD
ATOM     34  H   UNL     1      -4.867  12.302  25.990  0.00  0.00    +0.000 HD
ATOM     35  H   UNL     1      -4.672  11.169  24.768  0.00  0.00    +0.000 HD
ENDBRANCH  24  31
BRANCH  29  36
ATOM     36  O   UNL     1      -1.229  12.955  23.711  0.00  0.00    +0.000 OA
ATOM     37  H   UNL     1      -1.299  13.704  24.336  0.00  0.00    +0.000 HD
ENDBRANCH  29  36
ENDBRANCH  20  28
ENDBRANCH   1  21
TORSDOF 9
ENDMDL
MODEL 5
REMARK VINA RESULT:      -8.0      2.226      3.168
REMARK  Name = 
REMARK  9 active torsions:
REMARK  status: ('A' for Active; 'I' for Inactive)
REMARK    1  A    between atoms: C_2  and  C_4
REMARK    2  A    between atoms: C_8  and  N_9
REMARK    3  A    between atoms: C_10  and  C_12
REMARK    4  A    between atoms: C_12  and  N_13
REMARK    5  A    between atoms: C_16  and  N_17
REMARK    6  A    between atoms: N_17  and  S_18
REMARK    7  A    between atoms: S_18  and  C_21
REMARK    8  A    between atoms: C_21  and  C_22
REMARK    9  A    between atoms: C_30  and  O_31
REMARK                            x       y       z     vdW  Elec       q    Type
REMARK                         _______ _______ _______ _____ _____    ______ ____
ROOT
ATOM      1  C   UNL     1       1.949   4.268  18.293  0.00  0.00    +0.000 C 
ENDROOT
BRANCH   1   2
ATOM      2  N   UNL     1       2.010   5.601  18.867  0.00  0.00    +0.000 N 
ATOM      3  C   UNL     1       2.055   6.793  18.065  0.00  0.00    +0.000 C 
ATOM      4  C   UNL     1       2.196   7.895  19.099  0.00  0.00    +0.000 C 
ATOM      5  C   UNL     1       1.377   7.378  20.293  0.00  0.00    +0.000 C 
ATOM      6  C   UNL     1       1.525   5.866  20.143  0.00  0.00    +0.000 C 
ATOM      7  O   UNL     1       1.214   4.979  20.919  0.00  0.00    +0.000 OA
BRANCH   5   8
ATOM      8  N   UNL     1       1.837   8.070  21.539  0.00  0.00    +0.000 NA
ATOM      9  H   UNL     1       2.723   8.540  21.352  0.00  0.00    +0.000 HD
BRANCH   8  10
ATOM     10  S   UNL     1       0.707   9.226  22.094  0.00  0.00    +0.000 S 
ATOM     11  O   UNL     1      -0.573   8.643  21.781  0.00  0.00    +0.000 OA
ATOM     12  O   UNL     1       1.096   9.618  23.423  0.00  0.00    +0.000 OA
BRANCH  10  13
ATOM     13  C   UNL     1       0.987  10.645  20.990  0.00  0.00    +0.000 C 
BRANCH  13  14
ATOM     14  C   UNL     1      -0.329  10.891  20.289  0.00  0.00    +0.000 A 
ATOM     15  C   UNL     1      -0.573  10.328  19.027  0.00  0.00    +0.000 A 
ATOM     16  C   UNL     1      -1.681  10.725  18.277  0.00  0.00    +0.000 A 
ATOM     17  C   UNL     1      -2.573  11.663  18.791  0.00  0.00    +0.000 A 
ATOM     18  C   UNL     1      -2.372  12.185  20.067  0.00  0.00    +0.000 A 
ATOM     19  C   UNL     1      -1.257  11.802  20.814  0.00  0.00    +0.000 A 
ENDBRANCH  13  14
ENDBRANCH  10  13
ENDBRANCH   8  10
ENDBRANCH   5   8
ENDBRANCH   1   2
BRANCH   1  21
ATOM     20  N   UNL     1       4.154   4.396  17.166  0.00  0.00    +0.000 N 
ATOM     21  C   UNL     1       3.333   3.673  18.002  0.00  0.00    +0.000 C 
ATOM     22  O   UNL     1       3.741   2.674  18.593  0.00  0.00    +0.000 OA
ATOM     23  H   UNL     1       3.793   5.282  16.795  0.00  0.00    +0.000 HD
BRANCH  20  28
ATOM     24  C   UNL     1       6.804   5.928  17.834  0.00  0.00    +0.000 C 
ATOM     25  C   UNL     1       7.135   6.415  16.415  0.00  0.00    +0.000 C 
ATOM     26  C   UNL     1       6.131   5.954  15.365  0.00  0.00    +0.000 C 
ATOM     27  C   UNL     1       5.893   4.448  15.415  0.00  0.00    +0.000 C 
ATOM     28  C   UNL     1       5.514   3.961  16.817  0.00  0.00    +0.000 C 
ATOM     29  C   UNL     1       6.600   4.404  17.843  0.00  0.00    +0.000 C 
BRANCH  24  31
ATOM     30  N   UNL     1       8.449   7.499  18.771  0.00  0.00    +0.000 NA
ATOM     31  C   UNL     1       7.898   6.333  18.831  0.00  0.00    +0.000 C 
ATOM     32  N   UNL     1       8.277   5.439  19.790  0.00  0.00    +0.000 N 
ATOM     33  H   UNL     1       9.116   7.599  19.540  0.00  0.00    +0.000 HD
ATOM     34  H   UNL     1       9.224   5.545  20.137  0.00  0.00    +0.000 HD
ATOM     35  H   UNL     1       8.107   4.468  19.498  0.00  0.00    +0.000 HD
ENDBRANCH  24  31
BRANCH  29  36
ATOM     36  O   UNL     1       6.305   3.950  19.177  0.00  0.00    +0.000 OA
ATOM     37  H   UNL     1       6.850   4.476  19.797  0.00  0.00    +0.000 HD
ENDBRANCH  29  36
ENDBRANCH  20  28
ENDBRANCH   1  21
TORSDOF 9
ENDMDL
MODEL 6
REMARK VINA RESULT:      -8.0      1.008      1.499
REMARK  Name = 
REMARK  9 active torsions:
REMARK  status: ('A' for Active; 'I' for Inactive)
REMARK    1  A    between atoms: C_2  and  C_4
REMARK    2  A    between atoms: C_8  and  N_9
REMARK    3  A    between atoms: C_10  and  C_12
REMARK    4  A    between atoms: C_12  and  N_13
REMARK    5  A    between atoms: C_16  and  N_17
REMARK    6  A    between atoms: N_17  and  S_18
REMARK    7  A    between atoms: S_18  and  C_21
REMARK    8  A    between atoms: C_21  and  C_22
REMARK    9  A    between atoms: C_30  and  O_31
REMARK                            x       y       z     vdW  Elec       q    Type
REMARK                         _______ _______ _______ _____ _____    ______ ____
ROOT
ATOM      1  C   UNL     1       1.912   7.027  20.924  0.00  0.00    +0.000 C 
ENDROOT
BRANCH   1   2
ATOM      2  N   UNL     1       1.821   8.029  19.876  0.00  0.00    +0.000 N 
ATOM      3  C   UNL     1       2.195   7.768  18.513  0.00  0.00    +0.000 C 
ATOM      4  C   UNL     1       2.007   9.116  17.842  0.00  0.00    +0.000 C 
ATOM      5  C   UNL     1       0.798   9.721  18.577  0.00  0.00    +0.000 C 
ATOM      6  C   UNL     1       0.928   9.092  19.962  0.00  0.00    +0.000 C 
ATOM      7  O   UNL     1       0.328   9.357  20.990  0.00  0.00    +0.000 OA
BRANCH   5   8
ATOM      8  N   UNL     1       0.816  11.208  18.409  0.00  0.00    +0.000 NA
ATOM      9  H   UNL     1       1.133  11.433  17.466  0.00  0.00    +0.000 HD
BRANCH   8  10
ATOM     10  S   UNL     1      -0.722  11.908  18.656  0.00  0.00    +0.000 S 
ATOM     11  O   UNL     1      -0.730  12.254  20.055  0.00  0.00    +0.000 OA
ATOM     12  O   UNL     1      -0.945  12.862  17.601  0.00  0.00    +0.000 OA
BRANCH  10  13
ATOM     13  C   UNL     1      -1.860  10.512  18.394  0.00  0.00    +0.000 C 
BRANCH  13  14
ATOM     14  C   UNL     1      -3.234  11.122  18.232  0.00  0.00    +0.000 A 
ATOM     15  C   UNL     1      -3.867  11.116  16.980  0.00  0.00    +0.000 A 
ATOM     16  C   UNL     1      -5.025  11.865  16.768  0.00  0.00    +0.000 A 
ATOM     17  C   UNL     1      -5.580  12.603  17.811  0.00  0.00    +0.000 A 
ATOM     18  C   UNL     1      -4.993  12.571  19.074  0.00  0.00    +0.000 A 
ATOM     19  C   UNL     1      -3.826  11.835  19.286  0.00  0.00    +0.000 A 
ENDBRANCH  13  14
ENDBRANCH  10  13
ENDBRANCH   8  10
ENDBRANCH   5   8
ENDBRANCH   1   2
BRANCH   1  21
ATOM     20  N   UNL     1       3.631   5.530  19.949  0.00  0.00    +0.000 N 
ATOM     21  C   UNL     1       2.337   5.648  20.403  0.00  0.00    +0.000 C 
ATOM     22  O   UNL     1       1.604   4.665  20.513  0.00  0.00    +0.000 OA
ATOM     23  H   UNL     1       4.227   6.364  19.990  0.00  0.00    +0.000 HD
BRANCH  20  28
ATOM     24  C   UNL     1       5.671   5.225  17.591  0.00  0.00    +0.000 C 
ATOM     25  C   UNL     1       4.708   4.643  16.546  0.00  0.00    +0.000 C 
ATOM     26  C   UNL     1       3.290   4.446  17.070  0.00  0.00    +0.000 C 
ATOM     27  C   UNL     1       3.261   3.662  18.378  0.00  0.00    +0.000 C 
ATOM     28  C   UNL     1       4.183   4.264  19.443  0.00  0.00    +0.000 C 
ATOM     29  C   UNL     1       5.631   4.389  18.881  0.00  0.00    +0.000 C 
BRANCH  24  31
ATOM     30  N   UNL     1       7.889   4.285  17.095  0.00  0.00    +0.000 NA
ATOM     31  C   UNL     1       7.103   5.307  17.044  0.00  0.00    +0.000 C 
ATOM     32  N   UNL     1       7.531   6.481  16.496  0.00  0.00    +0.000 N 
ATOM     33  H   UNL     1       8.777   4.517  16.643  0.00  0.00    +0.000 HD
ATOM     34  H   UNL     1       8.532   6.642  16.534  0.00  0.00    +0.000 HD
ATOM     35  H   UNL     1       7.022   7.289  16.876  0.00  0.00    +0.000 HD
ENDBRANCH  24  31
BRANCH  29  36
ATOM     36  O   UNL     1       6.546   4.929  19.851  0.00  0.00    +0.000 OA
ATOM     37  H   UNL     1       6.020   5.406  20.524  0.00  0.00    +0.000 HD
ENDBRANCH  29  36
ENDBRANCH  20  28
ENDBRANCH   1  21
TORSDOF 9
ENDMDL
MODEL 7
REMARK VINA RESULT:      -8.0      5.856      9.133
REMARK  Name = 
REMARK  9 active torsions:
REMARK  status: ('A' for Active; 'I' for Inactive)
REMARK    1  A    between atoms: C_2  and  C_4
REMARK    2  A    between atoms: C_8  and  N_9
REMARK    3  A    between atoms: C_10  and  C_12
REMARK    4  A    between atoms: C_12  and  N_13
REMARK    5  A    between atoms: C_16  and  N_17
REMARK    6  A    between atoms: N_17  and  S_18
REMARK    7  A    between atoms: S_18  and  C_21
REMARK    8  A    between atoms: C_21  and  C_22
REMARK    9  A    between atoms: C_30  and  O_31
REMARK                            x       y       z     vdW  Elec       q    Type
REMARK                         _______ _______ _______ _____ _____    ______ ____
ROOT
ATOM      1  C   UNL     1       8.066   8.986  17.458  0.00  0.00    +0.000 C 
ENDROOT
BRANCH   1   2
ATOM      2  N   UNL     1       7.815   7.607  17.842  0.00  0.00    +0.000 N 
ATOM      3  C   UNL     1       8.349   7.024  19.043  0.00  0.00    +0.000 C 
ATOM      4  C   UNL     1       7.891   5.580  18.955  0.00  0.00    +0.000 C 
ATOM      5  C   UNL     1       6.516   5.678  18.271  0.00  0.00    +0.000 C 
ATOM      6  C   UNL     1       6.685   6.924  17.406  0.00  0.00    +0.000 C 
ATOM      7  O   UNL     1       5.958   7.360  16.530  0.00  0.00    +0.000 OA
BRANCH   5   8
ATOM      8  N   UNL     1       6.183   4.356  17.650  0.00  0.00    +0.000 NA
ATOM      9  H   UNL     1       6.373   3.614  18.323  0.00  0.00    +0.000 HD
BRANCH   8  10
ATOM     10  S   UNL     1       4.546   4.260  17.170  0.00  0.00    +0.000 S 
ATOM     11  O   UNL     1       3.887   5.262  17.967  0.00  0.00    +0.000 OA
ATOM     12  O   UNL     1       4.511   4.240  15.731  0.00  0.00    +0.000 OA
BRANCH  10  13
ATOM     13  C   UNL     1       4.036   2.616  17.762  0.00  0.00    +0.000 C 
BRANCH  13  14
ATOM     14  C   UNL     1       3.072   2.866  18.899  0.00  0.00    +0.000 A 
ATOM     15  C   UNL     1       3.516   2.806  20.229  0.00  0.00    +0.000 A 
ATOM     16  C   UNL     1       2.600   2.813  21.282  0.00  0.00    +0.000 A 
ATOM     17  C   UNL     1       1.235   2.911  21.021  0.00  0.00    +0.000 A 
ATOM     18  C   UNL     1       0.787   3.030  19.707  0.00  0.00    +0.000 A 
ATOM     19  C   UNL     1       1.698   3.008  18.650  0.00  0.00    +0.000 A 
ENDBRANCH  13  14
ENDBRANCH  10  13
ENDBRANCH   8  10
ENDBRANCH   5   8
ENDBRANCH   1   2
BRANCH   1  21
ATOM     20  N   UNL     1       9.152  11.079  18.222  0.00  0.00    +0.000 N 
ATOM     21  C   UNL     1       8.778   9.795  18.549  0.00  0.00    +0.000 C 
ATOM     22  O   UNL     1       8.886   9.369  19.699  0.00  0.00    +0.000 OA
ATOM     23  H   UNL     1       8.931  11.413  17.278  0.00  0.00    +0.000 HD
BRANCH  20  28
ATOM     24  C   UNL     1      10.464  13.840  17.534  0.00  0.00    +0.000 C 
ATOM     25  C   UNL     1      11.936  13.419  17.667  0.00  0.00    +0.000 C 
ATOM     26  C   UNL     1      12.115  11.961  18.077  0.00  0.00    +0.000 C 
ATOM     27  C   UNL     1      11.301  11.606  19.318  0.00  0.00    +0.000 C 
ATOM     28  C   UNL     1       9.823  11.978  19.174  0.00  0.00    +0.000 C 
ATOM     29  C   UNL     1       9.688  13.488  18.814  0.00  0.00    +0.000 C 
BRANCH  24  31
ATOM     30  N   UNL     1       9.861  16.158  18.094  0.00  0.00    +0.000 NA
ATOM     31  C   UNL     1      10.340  15.337  17.221  0.00  0.00    +0.000 C 
ATOM     32  N   UNL     1      10.749  15.790  16.000  0.00  0.00    +0.000 N 
ATOM     33  H   UNL     1       9.901  17.110  17.723  0.00  0.00    +0.000 HD
ATOM     34  H   UNL     1      10.295  16.635  15.672  0.00  0.00    +0.000 HD
ATOM     35  H   UNL     1      10.702  15.054  15.283  0.00  0.00    +0.000 HD
ENDBRANCH  24  31
BRANCH  29  36
ATOM     36  O   UNL     1       8.315  13.898  18.692  0.00  0.00    +0.000 OA
ATOM     37  H   UNL     1       8.036  13.733  17.769  0.00  0.00    +0.000 HD
ENDBRANCH  29  36
ENDBRANCH  20  28
ENDBRANCH   1  21
TORSDOF 9
ENDMDL
MODEL 8
REMARK VINA RESULT:      -8.0      3.580      8.502
REMARK  Name = 
REMARK  9 active torsions:
REMARK  status: ('A' for Active; 'I' for Inactive)
REMARK    1  A    between atoms: C_2  and  C_4
REMARK    2  A    between atoms: C_8  and  N_9
REMARK    3  A    between atoms: C_10  and  C_12
REMARK    4  A    between atoms: C_12  and  N_13
REMARK    5  A    between atoms: C_16  and  N_17
REMARK    6  A    between atoms: N_17  and  S_18
REMARK    7  A    between atoms: S_18  and  C_21
REMARK    8  A    between atoms: C_21  and  C_22
REMARK    9  A    between atoms: C_30  and  O_31
REMARK                            x       y       z     vdW  Elec       q    Type
REMARK                         _______ _______ _______ _____ _____    ______ ____
ROOT
ATOM      1  C   UNL     1       1.332   9.021  20.087  0.00  0.00    +0.000 C 
ENDROOT
BRANCH   1   2
ATOM      2  N   UNL     1       1.958   8.156  19.101  0.00  0.00    +0.000 N 
ATOM      3  C   UNL     1       2.751   8.661  18.013  0.00  0.00    +0.000 C 
ATOM      4  C   UNL     1       3.100   7.407  17.233  0.00  0.00    +0.000 C 
ATOM      5  C   UNL     1       3.246   6.332  18.323  0.00  0.00    +0.000 C 
ATOM      6  C   UNL     1       2.278   6.835  19.390  0.00  0.00    +0.000 C 
ATOM      7  O   UNL     1       1.877   6.273  20.395  0.00  0.00    +0.000 OA
BRANCH   5   8
ATOM      8  N   UNL     1       3.066   4.980  17.704  0.00  0.00    +0.000 NA
ATOM      9  H   UNL     1       2.730   5.093  16.748  0.00  0.00    +0.000 HD
BRANCH   8  10
ATOM     10  S   UNL     1       4.519   4.081  17.676  0.00  0.00    +0.000 S 
ATOM     11  O   UNL     1       4.978   4.200  16.315  0.00  0.00    +0.000 OA
ATOM     12  O   UNL     1       5.303   4.477  18.816  0.00  0.00    +0.000 OA
BRANCH  10  13
ATOM     13  C   UNL     1       3.956   2.373  17.953  0.00  0.00    +0.000 C 
BRANCH  13  14
ATOM     14  C   UNL     1       2.967   2.443  19.094  0.00  0.00    +0.000 A 
ATOM     15  C   UNL     1       1.593   2.562  18.831  0.00  0.00    +0.000 A 
ATOM     16  C   UNL     1       0.698   2.851  19.863  0.00  0.00    +0.000 A 
ATOM     17  C   UNL     1       1.160   2.992  21.169  0.00  0.00    +0.000 A 
ATOM     18  C   UNL     1       2.513   2.818  21.450  0.00  0.00    +0.000 A 
ATOM     19  C   UNL     1       3.413   2.544  20.420  0.00  0.00    +0.000 A 
ENDBRANCH  13  14
ENDBRANCH  10  13
ENDBRANCH   8  10
ENDBRANCH   5   8
ENDBRANCH   1   2
BRANCH   1  21
ATOM     20  N   UNL     1       1.301  11.481  19.783  0.00  0.00    +0.000 N 
ATOM     21  C   UNL     1       0.705  10.279  19.473  0.00  0.00    +0.000 C 
ATOM     22  O   UNL     1      -0.196  10.207  18.639  0.00  0.00    +0.000 OA
ATOM     23  H   UNL     1       2.122  11.461  20.397  0.00  0.00    +0.000 HD
BRANCH  20  28
ATOM     24  C   UNL     1       3.076  13.980  19.136  0.00  0.00    +0.000 C 
ATOM     25  C   UNL     1       2.630  14.871  20.305  0.00  0.00    +0.000 C 
ATOM     26  C   UNL     1       1.572  14.223  21.192  0.00  0.00    +0.000 C 
ATOM     27  C   UNL     1       0.389  13.694  20.387  0.00  0.00    +0.000 C 
ATOM     28  C   UNL     1       0.823  12.765  19.249  0.00  0.00    +0.000 C 
ATOM     29  C   UNL     1       1.856  13.492  18.337  0.00  0.00    +0.000 C 
BRANCH  24  31
ATOM     30  N   UNL     1       3.663  15.260  17.118  0.00  0.00    +0.000 NA
ATOM     31  C   UNL     1       4.063  14.717  18.219  0.00  0.00    +0.000 C 
ATOM     32  N   UNL     1       5.373  14.795  18.591  0.00  0.00    +0.000 N 
ATOM     33  H   UNL     1       4.448  15.740  16.672  0.00  0.00    +0.000 HD
ATOM     34  H   UNL     1       6.038  14.895  17.832  0.00  0.00    +0.000 HD
ATOM     35  H   UNL     1       5.644  14.017  19.206  0.00  0.00    +0.000 HD
ENDBRANCH  24  31
BRANCH  29  36
ATOM     36  O   UNL     1       2.280  12.671  17.234  0.00  0.00    +0.000 OA
ATOM     37  H   UNL     1       2.102  11.739  17.471  0.00  0.00    +0.000 HD
ENDBRANCH  29  36
ENDBRANCH  20  28
ENDBRANCH   1  21
TORSDOF 9
ENDMDL
MODEL 9
REMARK VINA RESULT:      -8.0      2.177      2.800
REMARK  Name = 
REMARK  9 active torsions:
REMARK  status: ('A' for Active; 'I' for Inactive)
REMARK    1  A    between atoms: C_2  and  C_4
REMARK    2  A    between atoms: C_8  and  N_9
REMARK    3  A    between atoms: C_10  and  C_12
REMARK    4  A    between atoms: C_12  and  N_13
REMARK    5  A    between atoms: C_16  and  N_17
REMARK    6  A    between atoms: N_17  and  S_18
REMARK    7  A    between atoms: S_18  and  C_21
REMARK    8  A    between atoms: C_21  and  C_22
REMARK    9  A    between atoms: C_30  and  O_31
REMARK                            x       y       z     vdW  Elec       q    Type
REMARK                         _______ _______ _______ _____ _____    ______ ____
ROOT
ATOM      1  C   UNL     1       1.787   6.733  20.852  0.00  0.00    +0.000 C 
ENDROOT
BRANCH   1   2
ATOM      2  N   UNL     1       1.857   7.777  19.843  0.00  0.00    +0.000 N 
ATOM      3  C   UNL     1       2.092   7.501  18.452  0.00  0.00    +0.000 C 
ATOM      4  C   UNL     1       2.163   8.886  17.836  0.00  0.00    +0.000 C 
ATOM      5  C   UNL     1       1.155   9.702  18.663  0.00  0.00    +0.000 C 
ATOM      6  C   UNL     1       1.222   9.001  20.017  0.00  0.00    +0.000 C 
ATOM      7  O   UNL     1       0.749   9.343  21.088  0.00  0.00    +0.000 OA
BRANCH   5   8
ATOM      8  N   UNL     1       1.486  11.158  18.540  0.00  0.00    +0.000 NA
ATOM      9  H   UNL     1       1.707  11.369  17.567  0.00  0.00    +0.000 HD
BRANCH   8  10
ATOM     10  S   UNL     1       0.197  12.160  19.043  0.00  0.00    +0.000 S 
ATOM     11  O   UNL     1       0.291  13.310  18.180  0.00  0.00    +0.000 OA
ATOM     12  O   UNL     1      -0.981  11.341  19.148  0.00  0.00    +0.000 OA
BRANCH  10  13
ATOM     13  C   UNL     1       0.686  12.653  20.725  0.00  0.00    +0.000 C 
BRANCH  13  14
ATOM     14  C   UNL     1      -0.599  12.771  21.512  0.00  0.00    +0.000 A 
ATOM     15  C   UNL     1      -0.883  11.862  22.542  0.00  0.00    +0.000 A 
ATOM     16  C   UNL     1      -2.152  11.822  23.121  0.00  0.00    +0.000 A 
ATOM     17  C   UNL     1      -3.141  12.708  22.700  0.00  0.00    +0.000 A 
ATOM     18  C   UNL     1      -2.853  13.654  21.719  0.00  0.00    +0.000 A 
ATOM     19  C   UNL     1      -1.589  13.687  21.127  0.00  0.00    +0.000 A 
ENDBRANCH  13  14
ENDBRANCH  10  13
ENDBRANCH   8  10
ENDBRANCH   5   8
ENDBRANCH   1   2
BRANCH   1  21
ATOM     20  N   UNL     1       3.588   5.320  19.901  0.00  0.00    +0.000 N 
ATOM     21  C   UNL     1       2.287   5.373  20.347  0.00  0.00    +0.000 C 
ATOM     22  O   UNL     1       1.607   4.354  20.465  0.00  0.00    +0.000 OA
ATOM     23  H   UNL     1       4.139   6.184  19.935  0.00  0.00    +0.000 HD
BRANCH  20  28
ATOM     24  C   UNL     1       5.658   5.100  17.560  0.00  0.00    +0.000 C 
ATOM     25  C   UNL     1       4.734   4.458  16.514  0.00  0.00    +0.000 C 
ATOM     26  C   UNL     1       3.325   4.192  17.031  0.00  0.00    +0.000 C 
ATOM     27  C   UNL     1       3.328   3.419  18.347  0.00  0.00    +0.000 C 
ATOM     28  C   UNL     1       4.210   4.080  19.411  0.00  0.00    +0.000 C 
ATOM     29  C   UNL     1       5.653   4.276  18.858  0.00  0.00    +0.000 C 
BRANCH  24  31
ATOM     30  N   UNL     1       7.951   4.304  17.163  0.00  0.00    +0.000 NA
ATOM     31  C   UNL     1       7.088   5.252  17.021  0.00  0.00    +0.000 C 
ATOM     32  N   UNL     1       7.430   6.408  16.382  0.00  0.00    +0.000 N 
ATOM     33  H   UNL     1       8.825   4.569  16.703  0.00  0.00    +0.000 HD
ATOM     34  H   UNL     1       8.414   6.651  16.416  0.00  0.00    +0.000 HD
ATOM     35  H   UNL     1       6.853   7.201  16.690  0.00  0.00    +0.000 HD
ENDBRANCH  24  31
BRANCH  29  36
ATOM     36  O   UNL     1       6.532   4.872  19.828  0.00  0.00    +0.000 OA
ATOM     37  H   UNL     1       7.292   5.256  19.346  0.00  0.00    +0.000 HD
ENDBRANCH  29  36
ENDBRANCH  20  28
ENDBRANCH   1  21
TORSDOF 9
ENDMDL
