MODEL 1
REMARK VINA RESULT:      -8.4      0.000      0.000
REMARK  Name = 
REMARK  3 active torsions:
REMARK  status: ('A' for Active; 'I' for Inactive)
REMARK    1  A    between atoms: C_1  and  O_2
REMARK    2  A    between atoms: O_2  and  C_3
REMARK    3  A    between atoms: C_14  and  C_15
REMARK                            x       y       z     vdW  Elec       q    Type
REMARK                         _______ _______ _______ _____ _____    ______ ____
ROOT
ATOM      1  C   UNL     1      -2.464  12.439  21.480  0.00  0.00    +0.000 A 
ATOM      2  C   UNL     1      -2.371  11.902  22.768  0.00  0.00    +0.000 A 
ATOM      3  C   UNL     1      -1.289  11.087  23.114  0.00  0.00    +0.000 A 
ATOM      4  C   UNL     1      -0.286  10.793  22.179  0.00  0.00    +0.000 A 
ATOM      5  C   UNL     1      -0.384  11.337  20.899  0.00  0.00    +0.000 A 
ATOM      6  C   UNL     1      -1.462  12.163  20.557  0.00  0.00    +0.000 A 
ATOM      7  C   UNL     1       0.644  11.151  19.860  0.00  0.00    +0.000 C 
ATOM      8  O   UNL     1       0.965  12.145  19.205  0.00  0.00    +0.000 OA
ATOM      9  C   UNL     1       1.218   9.826  19.501  0.00  0.00    +0.000 A 
ATOM     10  C   UNL     1       1.735   9.748  18.196  0.00  0.00    +0.000 A 
ATOM     11  C   UNL     1       2.263   8.560  17.690  0.00  0.00    +0.000 A 
ATOM     12  C   UNL     1       2.303   7.402  18.470  0.00  0.00    +0.000 A 
ATOM     13  C   UNL     1       1.791   7.495  19.777  0.00  0.00    +0.000 A 
ATOM     14  C   UNL     1       1.265   8.691  20.322  0.00  0.00    +0.000 A 
ATOM     15  C   UNL     1       0.803   8.609  21.757  0.00  0.00    +0.000 C 
ATOM     16  C   UNL     1       0.865   9.909  22.549  0.00  0.00    +0.000 C 
ENDROOT
BRANCH  12  17
ATOM     17  C   UNL     1       2.873   6.139  17.953  0.00  0.00    +0.000 A 
ATOM     18  C   UNL     1       4.185   6.081  17.447  0.00  0.00    +0.000 A 
ATOM     19  C   UNL     1       4.728   4.888  16.964  0.00  0.00    +0.000 A 
ATOM     20  C   UNL     1       3.975   3.720  16.987  0.00  0.00    +0.000 A 
ATOM     21  C   UNL     1       2.676   3.745  17.485  0.00  0.00    +0.000 A 
ATOM     22  C   UNL     1       2.131   4.943  17.954  0.00  0.00    +0.000 A 
ENDBRANCH  12  17
BRANCH   1  24
ATOM     23  C   UNL     1      -4.693  12.959  22.068  0.00  0.00    +0.000 C 
ATOM     24  O   UNL     1      -3.564  13.218  21.237  0.00  0.00    +0.000 OA
ENDBRANCH   1  24
TORSDOF 2
ENDMDL
MODEL 2
REMARK VINA RESULT:      -8.3      0.459      1.078
REMARK  Name = 
REMARK  3 active torsions:
REMARK  status: ('A' for Active; 'I' for Inactive)
REMARK    1  A    between atoms: C_1  and  O_2
REMARK    2  A    between atoms: O_2  and  C_3
REMARK    3  A    between atoms: C_14  and  C_15
REMARK                            x       y       z     vdW  Elec       q    Type
REMARK                         _______ _______ _______ _____ _____    ______ ____
ROOT
ATOM      1  C   UNL     1      -2.392  12.389  21.366  0.00  0.00    +0.000 A 
ATOM      2  C   UNL     1      -2.266  11.919  22.677  0.00  0.00    +0.000 A 
ATOM      3  C   UNL     1      -1.170  11.129  23.038  0.00  0.00    +0.000 A 
ATOM      4  C   UNL     1      -0.187  10.793  22.096  0.00  0.00    +0.000 A 
ATOM      5  C   UNL     1      -0.319  11.270  20.792  0.00  0.00    +0.000 A 
ATOM      6  C   UNL     1      -1.411  12.071  20.434  0.00  0.00    +0.000 A 
ATOM      7  C   UNL     1       0.686  11.037  19.739  0.00  0.00    +0.000 C 
ATOM      8  O   UNL     1       0.984  11.997  19.027  0.00  0.00    +0.000 OA
ATOM      9  C   UNL     1       1.260   9.699  19.436  0.00  0.00    +0.000 A 
ATOM     10  C   UNL     1       1.746   9.556  18.124  0.00  0.00    +0.000 A 
ATOM     11  C   UNL     1       2.271   8.347  17.667  0.00  0.00    +0.000 A 
ATOM     12  C   UNL     1       2.337   7.231  18.504  0.00  0.00    +0.000 A 
ATOM     13  C   UNL     1       1.855   7.388  19.817  0.00  0.00    +0.000 A 
ATOM     14  C   UNL     1       1.334   8.608  20.312  0.00  0.00    +0.000 A 
ATOM     15  C   UNL     1       0.906   8.597  21.760  0.00  0.00    +0.000 C 
ATOM     16  C   UNL     1       0.979   9.936  22.483  0.00  0.00    +0.000 C 
ENDROOT
BRANCH  12  17
ATOM     17  C   UNL     1       2.903   5.946  18.039  0.00  0.00    +0.000 A 
ATOM     18  C   UNL     1       2.096   4.803  17.886  0.00  0.00    +0.000 A 
ATOM     19  C   UNL     1       2.628   3.590  17.441  0.00  0.00    +0.000 A 
ATOM     20  C   UNL     1       3.978   3.495  17.126  0.00  0.00    +0.000 A 
ATOM     21  C   UNL     1       4.800   4.609  17.264  0.00  0.00    +0.000 A 
ATOM     22  C   UNL     1       4.268   5.816  17.723  0.00  0.00    +0.000 A 
ENDBRANCH  12  17
BRANCH   1  24
ATOM     23  C   UNL     1      -4.365  12.647  20.090  0.00  0.00    +0.000 C 
ATOM     24  O   UNL     1      -3.504  13.147  21.109  0.00  0.00    +0.000 OA
ENDBRANCH   1  24
TORSDOF 2
ENDMDL
MODEL 3
REMARK VINA RESULT:      -8.2      4.008      9.707
REMARK  Name = 
REMARK  3 active torsions:
REMARK  status: ('A' for Active; 'I' for Inactive)
REMARK    1  A    between atoms: C_1  and  O_2
REMARK    2  A    between atoms: O_2  and  C_3
REMARK    3  A    between atoms: C_14  and  C_15
REMARK                            x       y       z     vdW  Elec       q    Type
REMARK                         _______ _______ _______ _____ _____    ______ ____
ROOT
ATOM      1  C   UNL     1       6.155   3.717  13.149  0.00  0.00    +0.000 A 
ATOM      2  C   UNL     1       7.258   4.575  13.218  0.00  0.00    +0.000 A 
ATOM      3  C   UNL     1       7.499   5.320  14.376  0.00  0.00    +0.000 A 
ATOM      4  C   UNL     1       6.641   5.223  15.482  0.00  0.00    +0.000 A 
ATOM      5  C   UNL     1       5.546   4.363  15.406  0.00  0.00    +0.000 A 
ATOM      6  C   UNL     1       5.313   3.608  14.250  0.00  0.00    +0.000 A 
ATOM      7  C   UNL     1       4.620   4.131  16.528  0.00  0.00    +0.000 C 
ATOM      8  O   UNL     1       4.291   2.965  16.752  0.00  0.00    +0.000 OA
ATOM      9  C   UNL     1       3.994   5.228  17.314  0.00  0.00    +0.000 A 
ATOM     10  C   UNL     1       2.781   4.882  17.937  0.00  0.00    +0.000 A 
ATOM     11  C   UNL     1       2.045   5.812  18.670  0.00  0.00    +0.000 A 
ATOM     12  C   UNL     1       2.491   7.128  18.815  0.00  0.00    +0.000 A 
ATOM     13  C   UNL     1       3.710   7.460  18.195  0.00  0.00    +0.000 A 
ATOM     14  C   UNL     1       4.486   6.532  17.460  0.00  0.00    +0.000 A 
ATOM     15  C   UNL     1       5.787   7.061  16.904  0.00  0.00    +0.000 C 
ATOM     16  C   UNL     1       6.894   6.033  16.716  0.00  0.00    +0.000 C 
ENDROOT
BRANCH  12  17
ATOM     17  C   UNL     1       1.729   8.122  19.601  0.00  0.00    +0.000 A 
ATOM     18  C   UNL     1       1.421   7.903  20.956  0.00  0.00    +0.000 A 
ATOM     19  C   UNL     1       0.706   8.844  21.702  0.00  0.00    +0.000 A 
ATOM     20  C   UNL     1       0.294  10.034  21.113  0.00  0.00    +0.000 A 
ATOM     21  C   UNL     1       0.588  10.280  19.776  0.00  0.00    +0.000 A 
ATOM     22  C   UNL     1       1.290   9.331  19.028  0.00  0.00    +0.000 A 
ENDBRANCH  12  17
BRANCH   1  24
ATOM     23  C   UNL     1       4.665   2.954  11.482  0.00  0.00    +0.000 C 
ATOM     24  O   UNL     1       6.001   3.037  11.970  0.00  0.00    +0.000 OA
ENDBRANCH   1  24
TORSDOF 2
ENDMDL
MODEL 4
REMARK VINA RESULT:      -8.1      1.794      2.807
REMARK  Name = 
REMARK  3 active torsions:
REMARK  status: ('A' for Active; 'I' for Inactive)
REMARK    1  A    between atoms: C_1  and  O_2
REMARK    2  A    between atoms: O_2  and  C_3
REMARK    3  A    between atoms: C_14  and  C_15
REMARK                            x       y       z     vdW  Elec       q    Type
REMARK                         _______ _______ _______ _____ _____    ______ ____
ROOT
ATOM      1  C   UNL     1      -0.529  12.718  22.242  0.00  0.00    +0.000 A 
ATOM      2  C   UNL     1      -0.998  13.337  21.079  0.00  0.00    +0.000 A 
ATOM      3  C   UNL     1      -1.110  12.609  19.890  0.00  0.00    +0.000 A 
ATOM      4  C   UNL     1      -0.751  11.254  19.844  0.00  0.00    +0.000 A 
ATOM      5  C   UNL     1      -0.289  10.643  21.009  0.00  0.00    +0.000 A 
ATOM      6  C   UNL     1      -0.189  11.371  22.202  0.00  0.00    +0.000 A 
ATOM      7  C   UNL     1       0.050   9.212  21.093  0.00  0.00    +0.000 C 
ATOM      8  O   UNL     1      -0.348   8.599  22.086  0.00  0.00    +0.000 OA
ATOM      9  C   UNL     1       0.924   8.517  20.111  0.00  0.00    +0.000 A 
ATOM     10  C   UNL     1       1.566   7.370  20.609  0.00  0.00    +0.000 A 
ATOM     11  C   UNL     1       2.457   6.634  19.827  0.00  0.00    +0.000 A 
ATOM     12  C   UNL     1       2.740   7.011  18.512  0.00  0.00    +0.000 A 
ATOM     13  C   UNL     1       2.084   8.156  18.022  0.00  0.00    +0.000 A 
ATOM     14  C   UNL     1       1.163   8.911  18.787  0.00  0.00    +0.000 A 
ATOM     15  C   UNL     1       0.526  10.082  18.077  0.00  0.00    +0.000 C 
ATOM     16  C   UNL     1      -0.860  10.480  18.566  0.00  0.00    +0.000 C 
ENDROOT
BRANCH  12  17
ATOM     17  C   UNL     1       3.671   6.234  17.666  0.00  0.00    +0.000 A 
ATOM     18  C   UNL     1       3.573   4.833  17.567  0.00  0.00    +0.000 A 
ATOM     19  C   UNL     1       4.448   4.097  16.764  0.00  0.00    +0.000 A 
ATOM     20  C   UNL     1       5.434   4.746  16.029  0.00  0.00    +0.000 A 
ATOM     21  C   UNL     1       5.551   6.131  16.104  0.00  0.00    +0.000 A 
ATOM     22  C   UNL     1       4.685   6.863  16.920  0.00  0.00    +0.000 A 
ENDBRANCH  12  17
BRANCH   1  24
ATOM     23  C   UNL     1      -1.671  14.126  23.758  0.00  0.00    +0.000 C 
ATOM     24  O   UNL     1      -0.448  13.517  23.352  0.00  0.00    +0.000 OA
ENDBRANCH   1  24
TORSDOF 2
ENDMDL
MODEL 5
REMARK VINA RESULT:      -8.0      1.849      3.197
REMARK  Name = 
REMARK  3 active torsions:
REMARK  status: ('A' for Active; 'I' for Inactive)
REMARK    1  A    between atoms: C_1  and  O_2
REMARK    2  A    between atoms: O_2  and  C_3
REMARK    3  A    between atoms: C_14  and  C_15
REMARK                            x       y       z     vdW  Elec       q    Type
REMARK                         _______ _______ _______ _____ _____    ______ ____
ROOT
ATOM      1  C   UNL     1      -0.204  11.709  21.812  0.00  0.00    +0.000 A 
ATOM      2  C   UNL     1      -0.481  12.411  20.634  0.00  0.00    +0.000 A 
ATOM      3  C   UNL     1      -0.348  11.782  19.392  0.00  0.00    +0.000 A 
ATOM      4  C   UNL     1       0.068  10.445  19.307  0.00  0.00    +0.000 A 
ATOM      5  C   UNL     1       0.338   9.751  20.487  0.00  0.00    +0.000 A 
ATOM      6  C   UNL     1       0.192  10.379  21.730  0.00  0.00    +0.000 A 
ATOM      7  C   UNL     1       0.715   8.327  20.520  0.00  0.00    +0.000 C 
ATOM      8  O   UNL     1       0.171   7.624  21.373  0.00  0.00    +0.000 OA
ATOM      9  C   UNL     1       1.778   7.741  19.662  0.00  0.00    +0.000 A 
ATOM     10  C   UNL     1       2.367   6.573  20.179  0.00  0.00    +0.000 A 
ATOM     11  C   UNL     1       3.413   5.929  19.518  0.00  0.00    +0.000 A 
ATOM     12  C   UNL     1       3.912   6.422  18.310  0.00  0.00    +0.000 A 
ATOM     13  C   UNL     1       3.309   7.586  17.798  0.00  0.00    +0.000 A 
ATOM     14  C   UNL     1       2.235   8.249  18.439  0.00  0.00    +0.000 A 
ATOM     15  C   UNL     1       1.689   9.459  17.717  0.00  0.00    +0.000 C 
ATOM     16  C   UNL     1       0.222   9.778  17.975  0.00  0.00    +0.000 C 
ENDROOT
BRANCH  12  17
ATOM     17  C   UNL     1       5.011   5.742  17.590  0.00  0.00    +0.000 A 
ATOM     18  C   UNL     1       6.212   5.404  18.241  0.00  0.00    +0.000 A 
ATOM     19  C   UNL     1       7.250   4.757  17.564  0.00  0.00    +0.000 A 
ATOM     20  C   UNL     1       7.105   4.421  16.223  0.00  0.00    +0.000 A 
ATOM     21  C   UNL     1       5.926   4.739  15.555  0.00  0.00    +0.000 A 
ATOM     22  C   UNL     1       4.897   5.399  16.230  0.00  0.00    +0.000 A 
ENDBRANCH  12  17
BRANCH   1  24
ATOM     23  C   UNL     1      -1.609  13.076  23.131  0.00  0.00    +0.000 C 
ATOM     24  O   UNL     1      -0.357  12.414  22.976  0.00  0.00    +0.000 OA
ENDBRANCH   1  24
TORSDOF 2
ENDMDL
MODEL 6
REMARK VINA RESULT:      -8.0      1.809      2.632
REMARK  Name = 
REMARK  3 active torsions:
REMARK  status: ('A' for Active; 'I' for Inactive)
REMARK    1  A    between atoms: C_1  and  O_2
REMARK    2  A    between atoms: O_2  and  C_3
REMARK    3  A    between atoms: C_14  and  C_15
REMARK                            x       y       z     vdW  Elec       q    Type
REMARK                         _______ _______ _______ _____ _____    ______ ____
ROOT
ATOM      1  C   UNL     1      -0.573  13.089  22.099  0.00  0.00    +0.000 A 
ATOM      2  C   UNL     1      -1.073  13.646  20.918  0.00  0.00    +0.000 A 
ATOM      3  C   UNL     1      -1.214  12.857  19.772  0.00  0.00    +0.000 A 
ATOM      4  C   UNL     1      -0.854  11.502  19.787  0.00  0.00    +0.000 A 
ATOM      5  C   UNL     1      -0.360  10.953  20.970  0.00  0.00    +0.000 A 
ATOM      6  C   UNL     1      -0.231  11.742  22.121  0.00  0.00    +0.000 A 
ATOM      7  C   UNL     1      -0.015   9.528  21.120  0.00  0.00    +0.000 C 
ATOM      8  O   UNL     1      -0.386   8.968  22.153  0.00  0.00    +0.000 OA
ATOM      9  C   UNL     1       0.834   8.785  20.152  0.00  0.00    +0.000 A 
ATOM     10  C   UNL     1       1.492   7.665  20.692  0.00  0.00    +0.000 A 
ATOM     11  C   UNL     1       2.364   6.891  19.927  0.00  0.00    +0.000 A 
ATOM     12  C   UNL     1       2.612   7.200  18.587  0.00  0.00    +0.000 A 
ATOM     13  C   UNL     1       1.941   8.317  18.055  0.00  0.00    +0.000 A 
ATOM     14  C   UNL     1       1.038   9.109  18.804  0.00  0.00    +0.000 A 
ATOM     15  C   UNL     1       0.380  10.241  18.050  0.00  0.00    +0.000 C 
ATOM     16  C   UNL     1      -0.994  10.663  18.554  0.00  0.00    +0.000 C 
ENDROOT
BRANCH  12  17
ATOM     17  C   UNL     1       3.522   6.380  17.758  0.00  0.00    +0.000 A 
ATOM     18  C   UNL     1       4.537   6.972  16.983  0.00  0.00    +0.000 A 
ATOM     19  C   UNL     1       5.403   6.200  16.204  0.00  0.00    +0.000 A 
ATOM     20  C   UNL     1       5.282   4.815  16.192  0.00  0.00    +0.000 A 
ATOM     21  C   UNL     1       4.291   4.202  16.952  0.00  0.00    +0.000 A 
ATOM     22  C   UNL     1       3.417   4.978  17.718  0.00  0.00    +0.000 A 
ENDBRANCH  12  17
BRANCH   1  24
ATOM     23  C   UNL     1      -1.693  14.284  23.803  0.00  0.00    +0.000 C 
ATOM     24  O   UNL     1      -0.465  13.945  23.163  0.00  0.00    +0.000 OA
ENDBRANCH   1  24
TORSDOF 2
ENDMDL
MODEL 7
REMARK VINA RESULT:      -8.0      1.056      1.192
REMARK  Name = 
REMARK  3 active torsions:
REMARK  status: ('A' for Active; 'I' for Inactive)
REMARK    1  A    between atoms: C_1  and  O_2
REMARK    2  A    between atoms: O_2  and  C_3
REMARK    3  A    between atoms: C_14  and  C_15
REMARK                            x       y       z     vdW  Elec       q    Type
REMARK                         _______ _______ _______ _____ _____    ______ ____
ROOT
ATOM      1  C   UNL     1      -1.969  12.298  20.683  0.00  0.00    +0.000 A 
ATOM      2  C   UNL     1      -1.932  12.020  22.053  0.00  0.00    +0.000 A 
ATOM      3  C   UNL     1      -0.926  11.205  22.579  0.00  0.00    +0.000 A 
ATOM      4  C   UNL     1       0.056  10.650  21.744  0.00  0.00    +0.000 A 
ATOM      5  C   UNL     1       0.014  10.936  20.380  0.00  0.00    +0.000 A 
ATOM      6  C   UNL     1      -0.988  11.764  19.856  0.00  0.00    +0.000 A 
ATOM      7  C   UNL     1       1.030  10.465  19.422  0.00  0.00    +0.000 C 
ATOM      8  O   UNL     1       1.439  11.280  18.593  0.00  0.00    +0.000 OA
ATOM      9  C   UNL     1       1.492   9.054  19.346  0.00  0.00    +0.000 A 
ATOM     10  C   UNL     1       2.010   8.676  18.094  0.00  0.00    +0.000 A 
ATOM     11  C   UNL     1       2.440   7.373  17.844  0.00  0.00    +0.000 A 
ATOM     12  C   UNL     1       2.375   6.392  18.837  0.00  0.00    +0.000 A 
ATOM     13  C   UNL     1       1.863   6.784  20.088  0.00  0.00    +0.000 A 
ATOM     14  C   UNL     1       1.437   8.103  20.374  0.00  0.00    +0.000 A 
ATOM     15  C   UNL     1       0.958   8.345  21.786  0.00  0.00    +0.000 C 
ATOM     16  C   UNL     1       1.125   9.766  22.308  0.00  0.00    +0.000 C 
ENDROOT
BRANCH  12  17
ATOM     17  C   UNL     1       2.840   5.010  18.593  0.00  0.00    +0.000 A 
ATOM     18  C   UNL     1       3.957   4.484  19.268  0.00  0.00    +0.000 A 
ATOM     19  C   UNL     1       4.395   3.176  19.043  0.00  0.00    +0.000 A 
ATOM     20  C   UNL     1       3.716   2.358  18.147  0.00  0.00    +0.000 A 
ATOM     21  C   UNL     1       2.606   2.850  17.468  0.00  0.00    +0.000 A 
ATOM     22  C   UNL     1       2.180   4.162  17.684  0.00  0.00    +0.000 A 
ENDBRANCH  12  17
BRANCH   1  24
ATOM     23  C   UNL     1      -4.029  13.324  21.223  0.00  0.00    +0.000 C 
ATOM     24  O   UNL     1      -2.998  13.100  20.265  0.00  0.00    +0.000 OA
ENDBRANCH   1  24
TORSDOF 2
ENDMDL
MODEL 8
REMARK VINA RESULT:      -7.8      1.611      2.249
REMARK  Name = 
REMARK  3 active torsions:
REMARK  status: ('A' for Active; 'I' for Inactive)
REMARK    1  A    between atoms: C_1  and  O_2
REMARK    2  A    between atoms: O_2  and  C_3
REMARK    3  A    between atoms: C_14  and  C_15
REMARK                            x       y       z     vdW  Elec       q    Type
REMARK                         _______ _______ _______ _____ _____    ______ ____
ROOT
ATOM      1  C   UNL     1      -1.487  11.862  19.856  0.00  0.00    +0.000 A 
ATOM      2  C   UNL     1      -1.492  11.766  21.252  0.00  0.00    +0.000 A 
ATOM      3  C   UNL     1      -0.540  10.978  21.906  0.00  0.00    +0.000 A 
ATOM      4  C   UNL     1       0.428  10.271  21.177  0.00  0.00    +0.000 A 
ATOM      5  C   UNL     1       0.428  10.376  19.787  0.00  0.00    +0.000 A 
ATOM      6  C   UNL     1      -0.519  11.176  19.133  0.00  0.00    +0.000 A 
ATOM      7  C   UNL     1       1.437   9.733  18.926  0.00  0.00    +0.000 C 
ATOM      8  O   UNL     1       1.904  10.411  18.009  0.00  0.00    +0.000 OA
ATOM      9  C   UNL     1       1.826   8.303  19.047  0.00  0.00    +0.000 A 
ATOM     10  C   UNL     1       2.348   7.738  17.869  0.00  0.00    +0.000 A 
ATOM     11  C   UNL     1       2.714   6.394  17.804  0.00  0.00    +0.000 A 
ATOM     12  C   UNL     1       2.578   5.557  18.914  0.00  0.00    +0.000 A 
ATOM     13  C   UNL     1       2.063   6.136  20.089  0.00  0.00    +0.000 A 
ATOM     14  C   UNL     1       1.700   7.500  20.189  0.00  0.00    +0.000 A 
ATOM     15  C   UNL     1       1.207   7.950  21.544  0.00  0.00    +0.000 C 
ATOM     16  C   UNL     1       1.438   9.417  21.880  0.00  0.00    +0.000 C 
ENDROOT
BRANCH  12  17
ATOM     17  C   UNL     1       2.974   4.134  18.865  0.00  0.00    +0.000 A 
ATOM     18  C   UNL     1       2.483   3.272  17.867  0.00  0.00    +0.000 A 
ATOM     19  C   UNL     1       2.861   1.927  17.815  0.00  0.00    +0.000 A 
ATOM     20  C   UNL     1       3.750   1.416  18.753  0.00  0.00    +0.000 A 
ATOM     21  C   UNL     1       4.256   2.246  19.749  0.00  0.00    +0.000 A 
ATOM     22  C   UNL     1       3.864   3.586  19.807  0.00  0.00    +0.000 A 
ENDBRANCH  12  17
BRANCH   1  24
ATOM     23  C   UNL     1      -3.592  11.956  18.786  0.00  0.00    +0.000 C 
ATOM     24  O   UNL     1      -2.464  12.652  19.310  0.00  0.00    +0.000 OA
ENDBRANCH   1  24
TORSDOF 2
ENDMDL
MODEL 9
REMARK VINA RESULT:      -7.6      1.409      2.505
REMARK  Name = 
REMARK  3 active torsions:
REMARK  status: ('A' for Active; 'I' for Inactive)
REMARK    1  A    between atoms: C_1  and  O_2
REMARK    2  A    between atoms: O_2  and  C_3
REMARK    3  A    between atoms: C_14  and  C_15
REMARK                            x       y       z     vdW  Elec       q    Type
REMARK                         _______ _______ _______ _____ _____    ______ ____
ROOT
ATOM      1  C   UNL     1      -4.794  12.935  21.638  0.00  0.00    +0.000 A 
ATOM      2  C   UNL     1      -4.538  12.711  22.994  0.00  0.00    +0.000 A 
ATOM      3  C   UNL     1      -3.261  12.330  23.417  0.00  0.00    +0.000 A 
ATOM      4  C   UNL     1      -2.220  12.164  22.491  0.00  0.00    +0.000 A 
ATOM      5  C   UNL     1      -2.482  12.394  21.141  0.00  0.00    +0.000 A 
ATOM      6  C   UNL     1      -3.760  12.787  20.721  0.00  0.00    +0.000 A 
ATOM      7  C   UNL     1      -1.451  12.316  20.091  0.00  0.00    +0.000 C 
ATOM      8  O   UNL     1      -1.444  13.212  19.245  0.00  0.00    +0.000 OA
ATOM      9  C   UNL     1      -0.511  11.173  19.949  0.00  0.00    +0.000 A 
ATOM     10  C   UNL     1      -0.001  10.994  18.651  0.00  0.00    +0.000 A 
ATOM     11  C   UNL     1       0.855   9.937  18.342  0.00  0.00    +0.000 A 
ATOM     12  C   UNL     1       1.242   9.016  19.318  0.00  0.00    +0.000 A 
ATOM     13  C   UNL     1       0.732   9.211  20.616  0.00  0.00    +0.000 A 
ATOM     14  C   UNL     1      -0.124  10.284  20.961  0.00  0.00    +0.000 A 
ATOM     15  C   UNL     1      -0.533  10.354  22.413  0.00  0.00    +0.000 C 
ATOM     16  C   UNL     1      -0.856  11.744  22.945  0.00  0.00    +0.000 C 
ENDROOT
BRANCH  12  17
ATOM     17  C   UNL     1       2.159   7.898  19.010  0.00  0.00    +0.000 A 
ATOM     18  C   UNL     1       2.241   6.767  19.844  0.00  0.00    +0.000 A 
ATOM     19  C   UNL     1       3.103   5.707  19.551  0.00  0.00    +0.000 A 
ATOM     20  C   UNL     1       3.895   5.747  18.409  0.00  0.00    +0.000 A 
ATOM     21  C   UNL     1       3.833   6.851  17.565  0.00  0.00    +0.000 A 
ATOM     22  C   UNL     1       2.981   7.916  17.868  0.00  0.00    +0.000 A 
ENDBRANCH  12  17
BRANCH   1  24
ATOM     23  C   UNL     1      -7.026  12.232  21.308  0.00  0.00    +0.000 C 
ATOM     24  O   UNL     1      -6.077  13.296  21.324  0.00  0.00    +0.000 OA
ENDBRANCH   1  24
TORSDOF 2
ENDMDL
