MODEL 1
REMARK VINA RESULT:      -8.0      0.000      0.000
REMARK  Name = 
REMARK  6 active torsions:
REMARK  status: ('A' for Active; 'I' for Inactive)
REMARK    1  A    between atoms: C_2  and  O_3
REMARK    2  A    between atoms: C_2  and  C_4
REMARK    3  A    between atoms: C_4  and  C_5
REMARK    4  A    between atoms: C_11  and  O_12
REMARK    5  A    between atoms: O_12  and  C_13
REMARK    6  A    between atoms: C_19  and  N_20
REMARK                            x       y       z     vdW  Elec       q    Type
REMARK                         _______ _______ _______ _____ _____    ______ ____
ROOT
ATOM      1  C   UNL     1       6.853   4.985  17.082  0.00  0.00    +0.000 A 
ATOM      2  C   UNL     1       7.254   5.006  15.737  0.00  0.00    +0.000 A 
ATOM      3  C   UNL     1       6.424   4.494  14.742  0.00  0.00    +0.000 A 
ATOM      4  C   UNL     1       5.160   4.019  15.074  0.00  0.00    +0.000 A 
ATOM      5  C   UNL     1       4.734   4.008  16.405  0.00  0.00    +0.000 A 
ATOM      6 CL   UNL     1       3.082   3.583  16.693  0.00  0.00    +0.000 Cl
ATOM      7  C   UNL     1       5.615   4.396  17.428  0.00  0.00    +0.000 A 
ENDROOT
BRANCH   1   8
ATOM      8  C   UNL     1       7.712   5.694  18.110  0.00  0.00    +0.000 C 
BRANCH   8  10
ATOM      9  O   UNL     1       7.051   7.832  17.212  0.00  0.00    +0.000 OA
ATOM     10  C   UNL     1       7.744   7.195  17.993  0.00  0.00    +0.000 C 
BRANCH  10  11
ATOM     11  O   UNL     1       8.601   7.800  18.846  0.00  0.00    +0.000 OA
ATOM     12  H   UNL     1       8.901   8.696  18.564  0.00  0.00    +0.000 HD
ENDBRANCH  10  11
ENDBRANCH   8  10
ENDBRANCH   1   8
BRANCH   7  13
ATOM     13  O   UNL     1       5.363   4.345  18.777  0.00  0.00    +0.000 OA
BRANCH  13  14
ATOM     14  C   UNL     1       4.114   4.491  19.339  0.00  0.00    +0.000 A 
ATOM     15  C   UNL     1       3.296   5.632  19.286  0.00  0.00    +0.000 A 
ATOM     16 CL   UNL     1       3.587   6.983  18.246  0.00  0.00    +0.000 Cl
ATOM     17  C   UNL     1       2.118   5.698  20.049  0.00  0.00    +0.000 A 
ATOM     18  C   UNL     1       1.685   4.604  20.794  0.00  0.00    +0.000 A 
ATOM     19  C   UNL     1       2.400   3.413  20.736  0.00  0.00    +0.000 A 
ATOM     20  C   UNL     1       3.596   3.353  19.997  0.00  0.00    +0.000 A 
BRANCH  20  21
ATOM     21  N   UNL     1       4.244   2.037  19.860  0.00  0.00    +0.000 N 
ATOM     22  O   UNL     1       3.872   1.284  18.942  0.00  0.00    +0.000 OA
ATOM     23  O   UNL     1       5.090   1.724  20.708  0.00  0.00    +0.000 OA
ENDBRANCH  20  21
ENDBRANCH  13  14
ENDBRANCH   7  13
TORSDOF 6
ENDMDL
MODEL 2
REMARK VINA RESULT:      -7.6      1.247      1.472
REMARK  Name = 
REMARK  6 active torsions:
REMARK  status: ('A' for Active; 'I' for Inactive)
REMARK    1  A    between atoms: C_2  and  O_3
REMARK    2  A    between atoms: C_2  and  C_4
REMARK    3  A    between atoms: C_4  and  C_5
REMARK    4  A    between atoms: C_11  and  O_12
REMARK    5  A    between atoms: O_12  and  C_13
REMARK    6  A    between atoms: C_19  and  N_20
REMARK                            x       y       z     vdW  Elec       q    Type
REMARK                         _______ _______ _______ _____ _____    ______ ____
ROOT
ATOM      1  C   UNL     1       6.376   5.458  17.428  0.00  0.00    +0.000 A 
ATOM      2  C   UNL     1       6.774   5.679  16.100  0.00  0.00    +0.000 A 
ATOM      3  C   UNL     1       6.047   5.137  15.043  0.00  0.00    +0.000 A 
ATOM      4  C   UNL     1       4.880   4.426  15.300  0.00  0.00    +0.000 A 
ATOM      5  C   UNL     1       4.456   4.211  16.615  0.00  0.00    +0.000 A 
ATOM      6 CL   UNL     1       2.898   3.489  16.825  0.00  0.00    +0.000 Cl
ATOM      7  C   UNL     1       5.254   4.638  17.688  0.00  0.00    +0.000 A 
ENDROOT
BRANCH   1   8
ATOM      8  C   UNL     1       7.098   6.195  18.538  0.00  0.00    +0.000 C 
BRANCH   8  10
ATOM      9  O   UNL     1       8.759   4.483  18.897  0.00  0.00    +0.000 OA
ATOM     10  C   UNL     1       8.034   5.351  19.363  0.00  0.00    +0.000 C 
BRANCH  10  11
ATOM     11  O   UNL     1       8.026   5.643  20.683  0.00  0.00    +0.000 OA
ATOM     12  H   UNL     1       7.143   5.571  21.117  0.00  0.00    +0.000 HD
ENDBRANCH  10  11
ENDBRANCH   8  10
ENDBRANCH   1   8
BRANCH   7  13
ATOM     13  O   UNL     1       5.008   4.412  19.021  0.00  0.00    +0.000 OA
BRANCH  13  14
ATOM     14  C   UNL     1       3.750   4.308  19.571  0.00  0.00    +0.000 A 
ATOM     15  C   UNL     1       2.778   5.319  19.644  0.00  0.00    +0.000 A 
ATOM     16 CL   UNL     1       2.876   6.819  18.787  0.00  0.00    +0.000 Cl
ATOM     17  C   UNL     1       1.600   5.121  20.385  0.00  0.00    +0.000 A 
ATOM     18  C   UNL     1       1.326   3.892  20.978  0.00  0.00    +0.000 A 
ATOM     19  C   UNL     1       2.204   2.831  20.786  0.00  0.00    +0.000 A 
ATOM     20  C   UNL     1       3.397   3.034  20.071  0.00  0.00    +0.000 A 
BRANCH  20  21
ATOM     21  N   UNL     1       4.227   1.850  19.783  0.00  0.00    +0.000 N 
ATOM     22  O   UNL     1       5.196   1.609  20.524  0.00  0.00    +0.000 OA
ATOM     23  O   UNL     1       3.946   1.186  18.776  0.00  0.00    +0.000 OA
ENDBRANCH  20  21
ENDBRANCH  13  14
ENDBRANCH   7  13
TORSDOF 6
ENDMDL
MODEL 3
REMARK VINA RESULT:      -7.6      1.511      5.732
REMARK  Name = 
REMARK  6 active torsions:
REMARK  status: ('A' for Active; 'I' for Inactive)
REMARK    1  A    between atoms: C_2  and  O_3
REMARK    2  A    between atoms: C_2  and  C_4
REMARK    3  A    between atoms: C_4  and  C_5
REMARK    4  A    between atoms: C_11  and  O_12
REMARK    5  A    between atoms: O_12  and  C_13
REMARK    6  A    between atoms: C_19  and  N_20
REMARK                            x       y       z     vdW  Elec       q    Type
REMARK                         _______ _______ _______ _____ _____    ______ ____
ROOT
ATOM      1  C   UNL     1       3.333   3.993  20.139  0.00  0.00    +0.000 A 
ATOM      2  C   UNL     1       2.158   4.417  20.779  0.00  0.00    +0.000 A 
ATOM      3  C   UNL     1       1.674   5.709  20.588  0.00  0.00    +0.000 A 
ATOM      4  C   UNL     1       2.323   6.566  19.706  0.00  0.00    +0.000 A 
ATOM      5  C   UNL     1       3.485   6.157  19.045  0.00  0.00    +0.000 A 
ATOM      6 CL   UNL     1       4.105   7.217  17.827  0.00  0.00    +0.000 Cl
ATOM      7  C   UNL     1       4.053   4.905  19.334  0.00  0.00    +0.000 A 
ENDROOT
BRANCH   1   8
ATOM      8  C   UNL     1       3.736   2.536  20.245  0.00  0.00    +0.000 C 
BRANCH   8  10
ATOM      9  O   UNL     1       2.025   1.581  18.840  0.00  0.00    +0.000 OA
ATOM     10  C   UNL     1       3.205   1.643  19.155  0.00  0.00    +0.000 C 
BRANCH  10  11
ATOM     11  O   UNL     1       4.152   0.913  18.525  0.00  0.00    +0.000 OA
ATOM     12  H   UNL     1       3.902   0.601  17.623  0.00  0.00    +0.000 HD
ENDBRANCH  10  11
ENDBRANCH   8  10
ENDBRANCH   1   8
BRANCH   7  13
ATOM     13  O   UNL     1       5.235   4.417  18.832  0.00  0.00    +0.000 OA
BRANCH  13  14
ATOM     14  C   UNL     1       5.589   4.458  17.502  0.00  0.00    +0.000 A 
ATOM     15  C   UNL     1       4.801   4.060  16.409  0.00  0.00    +0.000 A 
ATOM     16 CL   UNL     1       3.110   3.711  16.513  0.00  0.00    +0.000 Cl
ATOM     17  C   UNL     1       5.353   3.998  15.119  0.00  0.00    +0.000 A 
ATOM     18  C   UNL     1       6.658   4.421  14.879  0.00  0.00    +0.000 A 
ATOM     19  C   UNL     1       7.403   4.963  15.920  0.00  0.00    +0.000 A 
ATOM     20  C   UNL     1       6.863   4.998  17.218  0.00  0.00    +0.000 A 
BRANCH  20  21
ATOM     21  N   UNL     1       7.638   5.701  18.257  0.00  0.00    +0.000 N 
ATOM     22  O   UNL     1       8.178   5.028  19.152  0.00  0.00    +0.000 OA
ATOM     23  O   UNL     1       7.661   6.938  18.214  0.00  0.00    +0.000 OA
ENDBRANCH  20  21
ENDBRANCH  13  14
ENDBRANCH   7  13
TORSDOF 6
ENDMDL
MODEL 4
REMARK VINA RESULT:      -7.5      2.192      5.233
REMARK  Name = 
REMARK  6 active torsions:
REMARK  status: ('A' for Active; 'I' for Inactive)
REMARK    1  A    between atoms: C_2  and  O_3
REMARK    2  A    between atoms: C_2  and  C_4
REMARK    3  A    between atoms: C_4  and  C_5
REMARK    4  A    between atoms: C_11  and  O_12
REMARK    5  A    between atoms: O_12  and  C_13
REMARK    6  A    between atoms: C_19  and  N_20
REMARK                            x       y       z     vdW  Elec       q    Type
REMARK                         _______ _______ _______ _____ _____    ______ ____
ROOT
ATOM      1  C   UNL     1       2.544   5.347  19.891  0.00  0.00    +0.000 A 
ATOM      2  C   UNL     1       1.264   4.897  20.248  0.00  0.00    +0.000 A 
ATOM      3  C   UNL     1       1.038   3.551  20.525  0.00  0.00    +0.000 A 
ATOM      4  C   UNL     1       2.101   2.655  20.513  0.00  0.00    +0.000 A 
ATOM      5  C   UNL     1       3.388   3.087  20.178  0.00  0.00    +0.000 A 
ATOM      6 CL   UNL     1       4.672   1.946  20.381  0.00  0.00    +0.000 Cl
ATOM      7  C   UNL     1       3.598   4.414  19.767  0.00  0.00    +0.000 A 
ENDROOT
BRANCH   1   8
ATOM      8  C   UNL     1       2.781   6.838  19.755  0.00  0.00    +0.000 C 
BRANCH   8  10
ATOM      9  O   UNL     1       1.583   7.771  17.881  0.00  0.00    +0.000 OA
ATOM     10  C   UNL     1       2.640   7.383  18.358  0.00  0.00    +0.000 C 
BRANCH  10  11
ATOM     11  O   UNL     1       3.798   7.430  17.662  0.00  0.00    +0.000 OA
ATOM     12  H   UNL     1       4.321   6.593  17.673  0.00  0.00    +0.000 HD
ENDBRANCH  10  11
ENDBRANCH   8  10
ENDBRANCH   1   8
BRANCH   7  13
ATOM     13  O   UNL     1       4.785   4.946  19.324  0.00  0.00    +0.000 OA
BRANCH  13  14
ATOM     14  C   UNL     1       5.344   4.678  18.094  0.00  0.00    +0.000 A 
ATOM     15  C   UNL     1       4.689   4.148  16.969  0.00  0.00    +0.000 A 
ATOM     16 CL   UNL     1       2.971   4.004  16.831  0.00  0.00    +0.000 Cl
ATOM     17  C   UNL     1       5.422   3.768  15.833  0.00  0.00    +0.000 A 
ATOM     18  C   UNL     1       6.794   3.996  15.757  0.00  0.00    +0.000 A 
ATOM     19  C   UNL     1       7.434   4.660  16.797  0.00  0.00    +0.000 A 
ATOM     20  C   UNL     1       6.708   5.015  17.948  0.00  0.00    +0.000 A 
BRANCH  20  21
ATOM     21  N   UNL     1       7.400   5.831  18.962  0.00  0.00    +0.000 N 
ATOM     22  O   UNL     1       7.928   6.899  18.606  0.00  0.00    +0.000 OA
ATOM     23  O   UNL     1       7.469   5.377  20.112  0.00  0.00    +0.000 OA
ENDBRANCH  20  21
ENDBRANCH  13  14
ENDBRANCH   7  13
TORSDOF 6
ENDMDL
MODEL 5
REMARK VINA RESULT:      -7.5      2.080      5.624
REMARK  Name = 
REMARK  6 active torsions:
REMARK  status: ('A' for Active; 'I' for Inactive)
REMARK    1  A    between atoms: C_2  and  O_3
REMARK    2  A    between atoms: C_2  and  C_4
REMARK    3  A    between atoms: C_4  and  C_5
REMARK    4  A    between atoms: C_11  and  O_12
REMARK    5  A    between atoms: O_12  and  C_13
REMARK    6  A    between atoms: C_19  and  N_20
REMARK                            x       y       z     vdW  Elec       q    Type
REMARK                         _______ _______ _______ _____ _____    ______ ____
ROOT
ATOM      1  C   UNL     1       2.837   4.887  20.426  0.00  0.00    +0.000 A 
ATOM      2  C   UNL     1       1.762   5.690  20.839  0.00  0.00    +0.000 A 
ATOM      3  C   UNL     1       1.547   6.938  20.260  0.00  0.00    +0.000 A 
ATOM      4  C   UNL     1       2.364   7.367  19.220  0.00  0.00    +0.000 A 
ATOM      5  C   UNL     1       3.428   6.574  18.781  0.00  0.00    +0.000 A 
ATOM      6 CL   UNL     1       4.260   7.101  17.359  0.00  0.00    +0.000 Cl
ATOM      7  C   UNL     1       3.733   5.376  19.448  0.00  0.00    +0.000 A 
ENDROOT
BRANCH   1   8
ATOM      8  C   UNL     1       2.941   3.474  20.965  0.00  0.00    +0.000 C 
BRANCH   8  10
ATOM      9  O   UNL     1       1.078   2.418  22.073  0.00  0.00    +0.000 OA
ATOM     10  C   UNL     1       1.642   2.716  21.030  0.00  0.00    +0.000 C 
BRANCH  10  11
ATOM     11  O   UNL     1       1.125   2.398  19.821  0.00  0.00    +0.000 OA
ATOM     12  H   UNL     1       0.591   3.112  19.399  0.00  0.00    +0.000 HD
ENDBRANCH  10  11
ENDBRANCH   8  10
ENDBRANCH   1   8
BRANCH   7  13
ATOM     13  O   UNL     1       4.799   4.552  19.185  0.00  0.00    +0.000 OA
BRANCH  13  14
ATOM     14  C   UNL     1       5.389   4.416  17.948  0.00  0.00    +0.000 A 
ATOM     15  C   UNL     1       6.657   4.884  17.565  0.00  0.00    +0.000 A 
ATOM     16 CL   UNL     1       7.846   5.473  18.675  0.00  0.00    +0.000 Cl
ATOM     17  C   UNL     1       7.061   4.823  16.221  0.00  0.00    +0.000 A 
ATOM     18  C   UNL     1       6.260   4.211  15.260  0.00  0.00    +0.000 A 
ATOM     19  C   UNL     1       5.071   3.604  15.648  0.00  0.00    +0.000 A 
ATOM     20  C   UNL     1       4.650   3.690  16.988  0.00  0.00    +0.000 A 
BRANCH  20  21
ATOM     21  N   UNL     1       3.454   2.920  17.373  0.00  0.00    +0.000 N 
ATOM     22  O   UNL     1       2.333   3.393  17.114  0.00  0.00    +0.000 OA
ATOM     23  O   UNL     1       3.629   1.862  17.992  0.00  0.00    +0.000 OA
ENDBRANCH  20  21
ENDBRANCH  13  14
ENDBRANCH   7  13
TORSDOF 6
ENDMDL
MODEL 6
REMARK VINA RESULT:      -7.4      2.046      2.803
REMARK  Name = 
REMARK  6 active torsions:
REMARK  status: ('A' for Active; 'I' for Inactive)
REMARK    1  A    between atoms: C_2  and  O_3
REMARK    2  A    between atoms: C_2  and  C_4
REMARK    3  A    between atoms: C_4  and  C_5
REMARK    4  A    between atoms: C_11  and  O_12
REMARK    5  A    between atoms: O_12  and  C_13
REMARK    6  A    between atoms: C_19  and  N_20
REMARK                            x       y       z     vdW  Elec       q    Type
REMARK                         _______ _______ _______ _____ _____    ______ ____
ROOT
ATOM      1  C   UNL     1       6.469   4.965  17.753  0.00  0.00    +0.000 A 
ATOM      2  C   UNL     1       7.141   4.574  16.585  0.00  0.00    +0.000 A 
ATOM      3  C   UNL     1       6.471   3.878  15.581  0.00  0.00    +0.000 A 
ATOM      4  C   UNL     1       5.110   3.625  15.707  0.00  0.00    +0.000 A 
ATOM      5  C   UNL     1       4.417   4.023  16.854  0.00  0.00    +0.000 A 
ATOM      6 CL   UNL     1       2.698   3.839  16.832  0.00  0.00    +0.000 Cl
ATOM      7  C   UNL     1       5.113   4.605  17.927  0.00  0.00    +0.000 A 
ENDROOT
BRANCH   1   8
ATOM      8  C   UNL     1       7.188   5.857  18.745  0.00  0.00    +0.000 C 
BRANCH   8  10
ATOM      9  O   UNL     1       7.358   7.629  17.118  0.00  0.00    +0.000 OA
ATOM     10  C   UNL     1       7.733   7.140  18.175  0.00  0.00    +0.000 C 
BRANCH  10  11
ATOM     11  O   UNL     1       8.675   7.732  18.943  0.00  0.00    +0.000 OA
ATOM     12  H   UNL     1       8.326   8.390  19.590  0.00  0.00    +0.000 HD
ENDBRANCH  10  11
ENDBRANCH   8  10
ENDBRANCH   1   8
BRANCH   7  13
ATOM     13  O   UNL     1       4.579   4.955  19.143  0.00  0.00    +0.000 OA
BRANCH  13  14
ATOM     14  C   UNL     1       3.479   4.352  19.711  0.00  0.00    +0.000 A 
ATOM     15  C   UNL     1       3.406   3.047  20.223  0.00  0.00    +0.000 A 
ATOM     16 CL   UNL     1       4.784   2.039  20.502  0.00  0.00    +0.000 Cl
ATOM     17  C   UNL     1       2.171   2.506  20.619  0.00  0.00    +0.000 A 
ATOM     18  C   UNL     1       1.013   3.280  20.605  0.00  0.00    +0.000 A 
ATOM     19  C   UNL     1       1.093   4.621  20.247  0.00  0.00    +0.000 A 
ATOM     20  C   UNL     1       2.322   5.157  19.822  0.00  0.00    +0.000 A 
BRANCH  20  21
ATOM     21  N   UNL     1       2.382   6.610  19.582  0.00  0.00    +0.000 N 
ATOM     22  O   UNL     1       2.201   7.379  20.542  0.00  0.00    +0.000 OA
ATOM     23  O   UNL     1       2.554   6.990  18.416  0.00  0.00    +0.000 OA
ENDBRANCH  20  21
ENDBRANCH  13  14
ENDBRANCH   7  13
TORSDOF 6
ENDMDL
MODEL 7
REMARK VINA RESULT:      -7.3      1.852      5.917
REMARK  Name = 
REMARK  6 active torsions:
REMARK  status: ('A' for Active; 'I' for Inactive)
REMARK    1  A    between atoms: C_2  and  O_3
REMARK    2  A    between atoms: C_2  and  C_4
REMARK    3  A    between atoms: C_4  and  C_5
REMARK    4  A    between atoms: C_11  and  O_12
REMARK    5  A    between atoms: O_12  and  C_13
REMARK    6  A    between atoms: C_19  and  N_20
REMARK                            x       y       z     vdW  Elec       q    Type
REMARK                         _______ _______ _______ _____ _____    ______ ____
ROOT
ATOM      1  C   UNL     1       2.896   4.798  20.408  0.00  0.00    +0.000 A 
ATOM      2  C   UNL     1       1.763   5.486  20.869  0.00  0.00    +0.000 A 
ATOM      3  C   UNL     1       1.473   6.766  20.402  0.00  0.00    +0.000 A 
ATOM      4  C   UNL     1       2.274   7.342  19.422  0.00  0.00    +0.000 A 
ATOM      5  C   UNL     1       3.397   6.664  18.935  0.00  0.00    +0.000 A 
ATOM      6 CL   UNL     1       4.213   7.374  17.585  0.00  0.00    +0.000 Cl
ATOM      7  C   UNL     1       3.771   5.433  19.497  0.00  0.00    +0.000 A 
ENDROOT
BRANCH   1   8
ATOM      8  C   UNL     1       3.087   3.351  20.818  0.00  0.00    +0.000 C 
BRANCH   8  10
ATOM      9  O   UNL     1       1.406   2.337  22.218  0.00  0.00    +0.000 OA
ATOM     10  C   UNL     1       1.817   2.591  21.095  0.00  0.00    +0.000 C 
BRANCH  10  11
ATOM     11  O   UNL     1       1.142   2.217  19.985  0.00  0.00    +0.000 OA
ATOM     12  H   UNL     1       1.631   1.598  19.392  0.00  0.00    +0.000 HD
ENDBRANCH  10  11
ENDBRANCH   8  10
ENDBRANCH   1   8
BRANCH   7  13
ATOM     13  O   UNL     1       4.895   4.708  19.183  0.00  0.00    +0.000 OA
BRANCH  13  14
ATOM     14  C   UNL     1       5.344   4.489  17.900  0.00  0.00    +0.000 A 
ATOM     15  C   UNL     1       4.620   3.913  16.842  0.00  0.00    +0.000 A 
ATOM     16 CL   UNL     1       2.913   3.634  16.879  0.00  0.00    +0.000 Cl
ATOM     17  C   UNL     1       5.260   3.595  15.633  0.00  0.00    +0.000 A 
ATOM     18  C   UNL     1       6.594   3.931  15.419  0.00  0.00    +0.000 A 
ATOM     19  C   UNL     1       7.284   4.640  16.396  0.00  0.00    +0.000 A 
ATOM     20  C   UNL     1       6.655   4.933  17.620  0.00  0.00    +0.000 A 
BRANCH  20  21
ATOM     21  N   UNL     1       7.382   5.798  18.566  0.00  0.00    +0.000 N 
ATOM     22  O   UNL     1       7.589   6.983  18.250  0.00  0.00    +0.000 OA
ATOM     23  O   UNL     1       7.802   5.279  19.609  0.00  0.00    +0.000 OA
ENDBRANCH  20  21
ENDBRANCH  13  14
ENDBRANCH   7  13
TORSDOF 6
ENDMDL
MODEL 8
REMARK VINA RESULT:      -7.3      2.509      5.476
REMARK  Name = 
REMARK  6 active torsions:
REMARK  status: ('A' for Active; 'I' for Inactive)
REMARK    1  A    between atoms: C_2  and  O_3
REMARK    2  A    between atoms: C_2  and  C_4
REMARK    3  A    between atoms: C_4  and  C_5
REMARK    4  A    between atoms: C_11  and  O_12
REMARK    5  A    between atoms: O_12  and  C_13
REMARK    6  A    between atoms: C_19  and  N_20
REMARK                            x       y       z     vdW  Elec       q    Type
REMARK                         _______ _______ _______ _____ _____    ______ ____
ROOT
ATOM      1  C   UNL     1       2.520   5.416  19.793  0.00  0.00    +0.000 A 
ATOM      2  C   UNL     1       1.224   5.010  20.143  0.00  0.00    +0.000 A 
ATOM      3  C   UNL     1       0.972   3.694  20.524  0.00  0.00    +0.000 A 
ATOM      4  C   UNL     1       2.024   2.790  20.622  0.00  0.00    +0.000 A 
ATOM      5  C   UNL     1       3.327   3.180  20.295  0.00  0.00    +0.000 A 
ATOM      6 CL   UNL     1       4.589   2.048  20.635  0.00  0.00    +0.000 Cl
ATOM      7  C   UNL     1       3.567   4.465  19.782  0.00  0.00    +0.000 A 
ENDROOT
BRANCH   1   8
ATOM      8  C   UNL     1       2.780   6.888  19.541  0.00  0.00    +0.000 C 
BRANCH   8  10
ATOM      9  O   UNL     1       1.139   8.651  19.651  0.00  0.00    +0.000 OA
ATOM     10  C   UNL     1       1.836   7.833  20.235  0.00  0.00    +0.000 C 
BRANCH  10  11
ATOM     11  O   UNL     1       1.802   7.695  21.580  0.00  0.00    +0.000 OA
ATOM     12  H   UNL     1       2.020   8.514  22.085  0.00  0.00    +0.000 HD
ENDBRANCH  10  11
ENDBRANCH   8  10
ENDBRANCH   1   8
BRANCH   7  13
ATOM     13  O   UNL     1       4.773   4.947  19.336  0.00  0.00    +0.000 OA
BRANCH  13  14
ATOM     14  C   UNL     1       5.306   4.675  18.095  0.00  0.00    +0.000 A 
ATOM     15  C   UNL     1       4.624   4.157  16.982  0.00  0.00    +0.000 A 
ATOM     16 CL   UNL     1       2.902   4.035  16.874  0.00  0.00    +0.000 Cl
ATOM     17  C   UNL     1       5.331   3.770  15.831  0.00  0.00    +0.000 A 
ATOM     18  C   UNL     1       6.704   3.982  15.730  0.00  0.00    +0.000 A 
ATOM     19  C   UNL     1       7.371   4.634  16.760  0.00  0.00    +0.000 A 
ATOM     20  C   UNL     1       6.672   4.995  17.926  0.00  0.00    +0.000 A 
BRANCH  20  21
ATOM     21  N   UNL     1       7.392   5.800  18.928  0.00  0.00    +0.000 N 
ATOM     22  O   UNL     1       7.468   5.371  20.093  0.00  0.00    +0.000 OA
ATOM     23  O   UNL     1       7.838   6.898  18.568  0.00  0.00    +0.000 OA
ENDBRANCH  20  21
ENDBRANCH  13  14
ENDBRANCH   7  13
TORSDOF 6
ENDMDL
MODEL 9
REMARK VINA RESULT:      -7.3      2.389      4.143
REMARK  Name = 
REMARK  6 active torsions:
REMARK  status: ('A' for Active; 'I' for Inactive)
REMARK    1  A    between atoms: C_2  and  O_3
REMARK    2  A    between atoms: C_2  and  C_4
REMARK    3  A    between atoms: C_4  and  C_5
REMARK    4  A    between atoms: C_11  and  O_12
REMARK    5  A    between atoms: O_12  and  C_13
REMARK    6  A    between atoms: C_19  and  N_20
REMARK                            x       y       z     vdW  Elec       q    Type
REMARK                         _______ _______ _______ _____ _____    ______ ____
ROOT
ATOM      1  C   UNL     1       4.131   3.909  17.120  0.00  0.00    +0.000 A 
ATOM      2  C   UNL     1       4.869   3.850  15.928  0.00  0.00    +0.000 A 
ATOM      3  C   UNL     1       6.160   4.369  15.867  0.00  0.00    +0.000 A 
ATOM      4  C   UNL     1       6.749   4.892  17.013  0.00  0.00    +0.000 A 
ATOM      5  C   UNL     1       6.037   4.944  18.215  0.00  0.00    +0.000 A 
ATOM      6 CL   UNL     1       6.917   5.429  19.624  0.00  0.00    +0.000 Cl
ATOM      7  C   UNL     1       4.691   4.546  18.252  0.00  0.00    +0.000 A 
ENDROOT
BRANCH   1   8
ATOM      8  C   UNL     1       2.797   3.193  17.190  0.00  0.00    +0.000 C 
BRANCH   8  10
ATOM      9  O   UNL     1       3.793   1.223  18.161  0.00  0.00    +0.000 OA
ATOM     10  C   UNL     1       2.799   1.912  17.982  0.00  0.00    +0.000 C 
BRANCH  10  11
ATOM     11  O   UNL     1       1.597   1.584  18.508  0.00  0.00    +0.000 OA
ATOM     12  H   UNL     1       1.060   0.967  17.957  0.00  0.00    +0.000 HD
ENDBRANCH  10  11
ENDBRANCH   8  10
ENDBRANCH   1   8
BRANCH   7  13
ATOM     13  O   UNL     1       3.850   4.631  19.335  0.00  0.00    +0.000 OA
BRANCH  13  14
ATOM     14  C   UNL     1       3.003   5.689  19.578  0.00  0.00    +0.000 A 
ATOM     15  C   UNL     1       3.003   6.934  18.928  0.00  0.00    +0.000 A 
ATOM     16 CL   UNL     1       3.893   7.270  17.483  0.00  0.00    +0.000 Cl
ATOM     17  C   UNL     1       2.192   7.982  19.396  0.00  0.00    +0.000 A 
ATOM     18  C   UNL     1       1.301   7.782  20.447  0.00  0.00    +0.000 A 
ATOM     19  C   UNL     1       1.174   6.514  21.003  0.00  0.00    +0.000 A 
ATOM     20  C   UNL     1       2.007   5.471  20.557  0.00  0.00    +0.000 A 
BRANCH  20  21
ATOM     21  N   UNL     1       1.743   4.120  21.083  0.00  0.00    +0.000 N 
ATOM     22  O   UNL     1       2.406   3.721  22.056  0.00  0.00    +0.000 OA
ATOM     23  O   UNL     1       0.909   3.426  20.485  0.00  0.00    +0.000 OA
ENDBRANCH  20  21
ENDBRANCH  13  14
ENDBRANCH   7  13
TORSDOF 6
ENDMDL
