MODEL 1
REMARK VINA RESULT:      -8.2      0.000      0.000
REMARK  Name = 
REMARK  7 active torsions:
REMARK  status: ('A' for Active; 'I' for Inactive)
REMARK    1  A    between atoms: C_1  and  C_2
REMARK    2  A    between atoms: C_8  and  C_10
REMARK    3  A    between atoms: C_15  and  N_16
REMARK    4  A    between atoms: C_17  and  C_19
REMARK    5  A    between atoms: C_19  and  C_20
REMARK    6  A    between atoms: C_19  and  O_21
REMARK    7  A    between atoms: O_21  and  C_22
REMARK                            x       y       z     vdW  Elec       q    Type
REMARK                         _______ _______ _______ _____ _____    ______ ____
ROOT
ATOM      1  C   UNL     1       0.726   9.275  20.222  0.00  0.00    +0.000 A 
ATOM      2  C   UNL     1       1.063   9.856  19.002  0.00  0.00    +0.000 A 
ATOM      3  C   UNL     1       1.927   9.181  18.137  0.00  0.00    +0.000 A 
ATOM      4  C   UNL     1       2.485   7.934  18.476  0.00  0.00    +0.000 A 
ATOM      5 CL   UNL     1       3.676   7.373  17.358  0.00  0.00    +0.000 Cl
ATOM      6  C   UNL     1       2.165   7.327  19.706  0.00  0.00    +0.000 A 
ATOM      7  C   UNL     1       1.297   8.033  20.569  0.00  0.00    +0.000 A 
ENDROOT
BRANCH   1  15
ATOM      8  C   UNL     1      -3.560  15.177  21.151  0.00  0.00    +0.000 C 
ATOM      9  C   UNL     1      -2.991  13.918  21.736  0.00  0.00    +0.000 A 
ATOM     10  C   UNL     1      -3.277  13.558  23.049  0.00  0.00    +0.000 A 
ATOM     11  C   UNL     1      -2.715  12.392  23.546  0.00  0.00    +0.000 A 
ATOM     12  N   UNL     1      -1.903  11.590  22.829  0.00  0.00    +0.000 NA
ATOM     13  C   UNL     1      -1.630  11.925  21.560  0.00  0.00    +0.000 A 
ATOM     14  N   UNL     1      -0.789  11.117  20.773  0.00  0.00    +0.000 N 
ATOM     15  C   UNL     1      -0.182   9.950  21.205  0.00  0.00    +0.000 C 
ATOM     16  O   UNL     1      -0.323   9.395  22.290  0.00  0.00    +0.000 OA
ATOM     17  C   UNL     1      -2.156  13.084  20.980  0.00  0.00    +0.000 A 
ATOM     18  H   UNL     1      -0.664  11.409  19.820  0.00  0.00    +0.000 HD
ENDBRANCH   1  15
BRANCH   6  19
ATOM     19  N   UNL     1       2.647   6.092  20.233  0.00  0.00    +0.000 N 
ATOM     20  C   UNL     1       2.175   4.810  20.006  0.00  0.00    +0.000 C 
ATOM     21  O   UNL     1       1.140   4.536  19.402  0.00  0.00    +0.000 OA
ATOM     22  H   UNL     1       3.269   6.180  21.029  0.00  0.00    +0.000 HD
BRANCH  20  23
ATOM     23  C   UNL     1       2.961   3.664  20.692  0.00  0.00    +0.000 C 
ATOM     24  C   UNL     1       2.143   2.750  21.599  0.00  0.00    +0.000 C 
BRANCH  23  25
ATOM     25  O   UNL     1       3.552   2.883  19.651  0.00  0.00    +0.000 OA
BRANCH  25  26
ATOM     26  C   UNL     1       4.419   3.482  18.778  0.00  0.00    +0.000 A 
ATOM     27  C   UNL     1       4.084   3.330  17.429  0.00  0.00    +0.000 A 
ATOM     28  C   UNL     1       4.881   3.887  16.425  0.00  0.00    +0.000 A 
ATOM     29  C   UNL     1       6.016   4.615  16.766  0.00  0.00    +0.000 A 
ATOM     30  C   UNL     1       6.345   4.794  18.108  0.00  0.00    +0.000 A 
ATOM     31  C   UNL     1       5.547   4.232  19.112  0.00  0.00    +0.000 A 
ENDBRANCH  25  26
ENDBRANCH  23  25
ENDBRANCH  20  23
ENDBRANCH   6  19
TORSDOF 5
ENDMDL
MODEL 2
REMARK VINA RESULT:      -8.2      3.373     10.422
REMARK  Name = 
REMARK  7 active torsions:
REMARK  status: ('A' for Active; 'I' for Inactive)
REMARK    1  A    between atoms: C_1  and  C_2
REMARK    2  A    between atoms: C_8  and  C_10
REMARK    3  A    between atoms: C_15  and  N_16
REMARK    4  A    between atoms: C_17  and  C_19
REMARK    5  A    between atoms: C_19  and  C_20
REMARK    6  A    between atoms: C_19  and  O_21
REMARK    7  A    between atoms: O_21  and  C_22
REMARK                            x       y       z     vdW  Elec       q    Type
REMARK                         _______ _______ _______ _____ _____    ______ ____
ROOT
ATOM      1  C   UNL     1       4.426   5.345  17.456  0.00  0.00    +0.000 A 
ATOM      2  C   UNL     1       4.329   4.159  18.182  0.00  0.00    +0.000 A 
ATOM      3  C   UNL     1       3.471   4.096  19.280  0.00  0.00    +0.000 A 
ATOM      4  C   UNL     1       2.713   5.210  19.690  0.00  0.00    +0.000 A 
ATOM      5 CL   UNL     1       1.877   4.976  21.183  0.00  0.00    +0.000 Cl
ATOM      6  C   UNL     1       2.797   6.422  18.979  0.00  0.00    +0.000 A 
ATOM      7  C   UNL     1       3.680   6.466  17.876  0.00  0.00    +0.000 A 
ENDROOT
BRANCH   1  15
ATOM      8  C   UNL     1       6.363   2.156  11.120  0.00  0.00    +0.000 C 
ATOM      9  C   UNL     1       6.574   3.280  12.090  0.00  0.00    +0.000 A 
ATOM     10  C   UNL     1       7.561   4.234  11.862  0.00  0.00    +0.000 A 
ATOM     11  C   UNL     1       7.724   5.245  12.797  0.00  0.00    +0.000 A 
ATOM     12  N   UNL     1       6.983   5.353  13.916  0.00  0.00    +0.000 NA
ATOM     13  C   UNL     1       6.023   4.444  14.140  0.00  0.00    +0.000 A 
ATOM     14  N   UNL     1       5.224   4.518  15.295  0.00  0.00    +0.000 N 
ATOM     15  C   UNL     1       5.338   5.487  16.276  0.00  0.00    +0.000 C 
ATOM     16  O   UNL     1       6.085   6.462  16.277  0.00  0.00    +0.000 OA
ATOM     17  C   UNL     1       5.791   3.392  13.248  0.00  0.00    +0.000 A 
ATOM     18  H   UNL     1       4.498   3.827  15.373  0.00  0.00    +0.000 HD
ENDBRANCH   1  15
BRANCH   6  19
ATOM     19  N   UNL     1       2.135   7.656  19.255  0.00  0.00    +0.000 N 
ATOM     20  C   UNL     1       1.893   8.720  18.402  0.00  0.00    +0.000 C 
ATOM     21  O   UNL     1       2.352   8.831  17.266  0.00  0.00    +0.000 OA
ATOM     22  H   UNL     1       2.016   7.866  20.239  0.00  0.00    +0.000 HD
BRANCH  20  23
ATOM     23  C   UNL     1       1.092   9.903  19.000  0.00  0.00    +0.000 C 
ATOM     24  C   UNL     1      -0.330  10.073  18.474  0.00  0.00    +0.000 C 
BRANCH  23  25
ATOM     25  O   UNL     1       1.047   9.703  20.415  0.00  0.00    +0.000 OA
BRANCH  25  26
ATOM     26  C   UNL     1       0.352  10.589  21.192  0.00  0.00    +0.000 A 
ATOM     27  C   UNL     1      -0.422  10.001  22.196  0.00  0.00    +0.000 A 
ATOM     28  C   UNL     1      -1.187  10.784  23.065  0.00  0.00    +0.000 A 
ATOM     29  C   UNL     1      -1.173  12.169  22.943  0.00  0.00    +0.000 A 
ATOM     30  C   UNL     1      -0.385  12.768  21.962  0.00  0.00    +0.000 A 
ATOM     31  C   UNL     1       0.379  11.981  21.090  0.00  0.00    +0.000 A 
ENDBRANCH  25  26
ENDBRANCH  23  25
ENDBRANCH  20  23
ENDBRANCH   6  19
TORSDOF 5
ENDMDL
MODEL 3
REMARK VINA RESULT:      -8.2      0.467      1.007
REMARK  Name = 
REMARK  7 active torsions:
REMARK  status: ('A' for Active; 'I' for Inactive)
REMARK    1  A    between atoms: C_1  and  C_2
REMARK    2  A    between atoms: C_8  and  C_10
REMARK    3  A    between atoms: C_15  and  N_16
REMARK    4  A    between atoms: C_17  and  C_19
REMARK    5  A    between atoms: C_19  and  C_20
REMARK    6  A    between atoms: C_19  and  O_21
REMARK    7  A    between atoms: O_21  and  C_22
REMARK                            x       y       z     vdW  Elec       q    Type
REMARK                         _______ _______ _______ _____ _____    ______ ____
ROOT
ATOM      1  C   UNL     1       0.972   9.524  20.127  0.00  0.00    +0.000 A 
ATOM      2  C   UNL     1       1.255  10.007  18.852  0.00  0.00    +0.000 A 
ATOM      3  C   UNL     1       1.992   9.218  17.968  0.00  0.00    +0.000 A 
ATOM      4  C   UNL     1       2.478   7.949  18.340  0.00  0.00    +0.000 A 
ATOM      5 CL   UNL     1       3.529   7.232  17.172  0.00  0.00    +0.000 Cl
ATOM      6  C   UNL     1       2.211   7.440  19.625  0.00  0.00    +0.000 A 
ATOM      7  C   UNL     1       1.472   8.261  20.507  0.00  0.00    +0.000 A 
ENDROOT
BRANCH   1  15
ATOM      8  C   UNL     1      -4.554  14.327  20.804  0.00  0.00    +0.000 C 
ATOM      9  C   UNL     1      -3.475  13.533  21.479  0.00  0.00    +0.000 A 
ATOM     10  C   UNL     1      -3.260  13.653  22.848  0.00  0.00    +0.000 A 
ATOM     11  C   UNL     1      -2.240  12.907  23.419  0.00  0.00    +0.000 A 
ATOM     12  N   UNL     1      -1.443  12.075  22.722  0.00  0.00    +0.000 NA
ATOM     13  C   UNL     1      -1.649  11.946  21.403  0.00  0.00    +0.000 A 
ATOM     14  N   UNL     1      -0.841  11.087  20.635  0.00  0.00    +0.000 N 
ATOM     15  C   UNL     1       0.200  10.324  21.132  0.00  0.00    +0.000 C 
ATOM     16  O   UNL     1       0.547  10.211  22.305  0.00  0.00    +0.000 OA
ATOM     17  C   UNL     1      -2.656  12.661  20.747  0.00  0.00    +0.000 A 
ATOM     18  H   UNL     1      -1.083  11.010  19.662  0.00  0.00    +0.000 HD
ENDBRANCH   1  15
BRANCH   6  19
ATOM     19  N   UNL     1       2.637   6.200  20.190  0.00  0.00    +0.000 N 
ATOM     20  C   UNL     1       2.206   4.918  19.892  0.00  0.00    +0.000 C 
ATOM     21  O   UNL     1       1.252   4.646  19.165  0.00  0.00    +0.000 OA
ATOM     22  H   UNL     1       3.159   6.281  21.055  0.00  0.00    +0.000 HD
BRANCH  20  23
ATOM     23  C   UNL     1       2.914   3.768  20.651  0.00  0.00    +0.000 C 
ATOM     24  C   UNL     1       2.030   2.948  21.585  0.00  0.00    +0.000 C 
BRANCH  23  25
ATOM     25  O   UNL     1       3.480   2.903  19.663  0.00  0.00    +0.000 OA
BRANCH  25  26
ATOM     26  C   UNL     1       4.264   3.439  18.678  0.00  0.00    +0.000 A 
ATOM     27  C   UNL     1       5.399   4.112  19.140  0.00  0.00    +0.000 A 
ATOM     28  C   UNL     1       6.290   4.713  18.248  0.00  0.00    +0.000 A 
ATOM     29  C   UNL     1       6.059   4.632  16.879  0.00  0.00    +0.000 A 
ATOM     30  C   UNL     1       4.945   3.942  16.406  0.00  0.00    +0.000 A 
ATOM     31  C   UNL     1       4.051   3.344  17.302  0.00  0.00    +0.000 A 
ENDBRANCH  25  26
ENDBRANCH  23  25
ENDBRANCH  20  23
ENDBRANCH   6  19
TORSDOF 5
ENDMDL
MODEL 4
REMARK VINA RESULT:      -8.1      3.337     10.474
REMARK  Name = 
REMARK  7 active torsions:
REMARK  status: ('A' for Active; 'I' for Inactive)
REMARK    1  A    between atoms: C_1  and  C_2
REMARK    2  A    between atoms: C_8  and  C_10
REMARK    3  A    between atoms: C_15  and  N_16
REMARK    4  A    between atoms: C_17  and  C_19
REMARK    5  A    between atoms: C_19  and  C_20
REMARK    6  A    between atoms: C_19  and  O_21
REMARK    7  A    between atoms: O_21  and  C_22
REMARK                            x       y       z     vdW  Elec       q    Type
REMARK                         _______ _______ _______ _____ _____    ______ ____
ROOT
ATOM      1  C   UNL     1       4.066   5.514  17.333  0.00  0.00    +0.000 A 
ATOM      2  C   UNL     1       3.668   4.302  17.892  0.00  0.00    +0.000 A 
ATOM      3  C   UNL     1       2.742   4.300  18.936  0.00  0.00    +0.000 A 
ATOM      4  C   UNL     1       2.213   5.496  19.456  0.00  0.00    +0.000 A 
ATOM      5 CL   UNL     1       1.244   5.277  20.869  0.00  0.00    +0.000 Cl
ATOM      6  C   UNL     1       2.604   6.736  18.914  0.00  0.00    +0.000 A 
ATOM      7  C   UNL     1       3.550   6.714  17.865  0.00  0.00    +0.000 A 
ENDROOT
BRANCH   1  15
ATOM      8  C   UNL     1       6.311   2.111  11.214  0.00  0.00    +0.000 C 
ATOM      9  C   UNL     1       6.503   3.245  12.177  0.00  0.00    +0.000 A 
ATOM     10  C   UNL     1       7.548   4.148  12.006  0.00  0.00    +0.000 A 
ATOM     11  C   UNL     1       7.688   5.170  12.933  0.00  0.00    +0.000 A 
ATOM     12  N   UNL     1       6.873   5.334  13.993  0.00  0.00    +0.000 NA
ATOM     13  C   UNL     1       5.858   4.474  14.160  0.00  0.00    +0.000 A 
ATOM     14  N   UNL     1       4.981   4.608  15.252  0.00  0.00    +0.000 N 
ATOM     15  C   UNL     1       5.069   5.591  16.222  0.00  0.00    +0.000 C 
ATOM     16  O   UNL     1       5.857   6.531  16.260  0.00  0.00    +0.000 OA
ATOM     17  C   UNL     1       5.643   3.415  13.272  0.00  0.00    +0.000 A 
ATOM     18  H   UNL     1       4.220   3.952  15.288  0.00  0.00    +0.000 HD
ENDBRANCH   1  15
BRANCH   6  19
ATOM     19  N   UNL     1       2.202   8.043  19.321  0.00  0.00    +0.000 N 
ATOM     20  C   UNL     1       1.733   9.088  18.543  0.00  0.00    +0.000 C 
ATOM     21  O   UNL     1       1.719   9.100  17.313  0.00  0.00    +0.000 OA
ATOM     22  H   UNL     1       2.494   8.309  20.255  0.00  0.00    +0.000 HD
BRANCH  20  23
ATOM     23  C   UNL     1       1.326  10.375  19.304  0.00  0.00    +0.000 C 
ATOM     24  C   UNL     1       1.671  11.690  18.612  0.00  0.00    +0.000 C 
BRANCH  23  25
ATOM     25  O   UNL     1      -0.088  10.309  19.506  0.00  0.00    +0.000 OA
BRANCH  25  26
ATOM     26  C   UNL     1      -0.608  10.697  20.711  0.00  0.00    +0.000 A 
ATOM     27  C   UNL     1      -1.442  11.817  20.652  0.00  0.00    +0.000 A 
ATOM     28  C   UNL     1      -2.041  12.327  21.807  0.00  0.00    +0.000 A 
ATOM     29  C   UNL     1      -1.819  11.709  23.033  0.00  0.00    +0.000 A 
ATOM     30  C   UNL     1      -1.010  10.577  23.100  0.00  0.00    +0.000 A 
ATOM     31  C   UNL     1      -0.408  10.069  21.942  0.00  0.00    +0.000 A 
ENDBRANCH  25  26
ENDBRANCH  23  25
ENDBRANCH  20  23
ENDBRANCH   6  19
TORSDOF 5
ENDMDL
MODEL 5
REMARK VINA RESULT:      -8.1      3.219     10.061
REMARK  Name = 
REMARK  7 active torsions:
REMARK  status: ('A' for Active; 'I' for Inactive)
REMARK    1  A    between atoms: C_1  and  C_2
REMARK    2  A    between atoms: C_8  and  C_10
REMARK    3  A    between atoms: C_15  and  N_16
REMARK    4  A    between atoms: C_17  and  C_19
REMARK    5  A    between atoms: C_19  and  C_20
REMARK    6  A    between atoms: C_19  and  O_21
REMARK    7  A    between atoms: O_21  and  C_22
REMARK                            x       y       z     vdW  Elec       q    Type
REMARK                         _______ _______ _______ _____ _____    ______ ____
ROOT
ATOM      1  C   UNL     1       4.471   4.612  18.211  0.00  0.00    +0.000 A 
ATOM      2  C   UNL     1       4.438   3.321  18.732  0.00  0.00    +0.000 A 
ATOM      3  C   UNL     1       3.613   3.043  19.822  0.00  0.00    +0.000 A 
ATOM      4  C   UNL     1       2.824   4.042  20.425  0.00  0.00    +0.000 A 
ATOM      5 CL   UNL     1       2.036   3.531  21.875  0.00  0.00    +0.000 Cl
ATOM      6  C   UNL     1       2.844   5.356  19.922  0.00  0.00    +0.000 A 
ATOM      7  C   UNL     1       3.695   5.617  18.824  0.00  0.00    +0.000 A 
ENDROOT
BRANCH   1  15
ATOM      8  C   UNL     1       6.260   2.670  11.348  0.00  0.00    +0.000 C 
ATOM      9  C   UNL     1       6.486   3.602  12.502  0.00  0.00    +0.000 A 
ATOM     10  C   UNL     1       7.454   4.599  12.425  0.00  0.00    +0.000 A 
ATOM     11  C   UNL     1       7.632   5.425  13.525  0.00  0.00    +0.000 A 
ATOM     12  N   UNL     1       6.922   5.313  14.665  0.00  0.00    +0.000 NA
ATOM     13  C   UNL     1       5.981   4.361  14.744  0.00  0.00    +0.000 A 
ATOM     14  N   UNL     1       5.216   4.209  15.914  0.00  0.00    +0.000 N 
ATOM     15  C   UNL     1       5.347   4.984  17.052  0.00  0.00    +0.000 C 
ATOM     16  O   UNL     1       6.080   5.956  17.212  0.00  0.00    +0.000 OA
ATOM     17  C   UNL     1       5.736   3.486  13.681  0.00  0.00    +0.000 A 
ATOM     18  H   UNL     1       4.501   3.502  15.883  0.00  0.00    +0.000 HD
ENDBRANCH   1  15
BRANCH   6  19
ATOM     19  N   UNL     1       2.142   6.499  20.410  0.00  0.00    +0.000 N 
ATOM     20  C   UNL     1       1.899   7.705  19.774  0.00  0.00    +0.000 C 
ATOM     21  O   UNL     1       2.387   8.045  18.697  0.00  0.00    +0.000 OA
ATOM     22  H   UNL     1       1.990   6.511  21.412  0.00  0.00    +0.000 HD
BRANCH  20  23
ATOM     23  C   UNL     1       1.051   8.733  20.564  0.00  0.00    +0.000 C 
ATOM     24  C   UNL     1       1.506   9.007  21.993  0.00  0.00    +0.000 C 
BRANCH  23  25
ATOM     25  O   UNL     1       1.079   9.954  19.821  0.00  0.00    +0.000 OA
BRANCH  25  26
ATOM     26  C   UNL     1      -0.101  10.511  19.409  0.00  0.00    +0.000 A 
ATOM     27  C   UNL     1      -0.556  10.057  18.167  0.00  0.00    +0.000 A 
ATOM     28  C   UNL     1      -1.746  10.541  17.618  0.00  0.00    +0.000 A 
ATOM     29  C   UNL     1      -2.501  11.477  18.317  0.00  0.00    +0.000 A 
ATOM     30  C   UNL     1      -2.070  11.917  19.567  0.00  0.00    +0.000 A 
ATOM     31  C   UNL     1      -0.875  11.434  20.114  0.00  0.00    +0.000 A 
ENDBRANCH  25  26
ENDBRANCH  23  25
ENDBRANCH  20  23
ENDBRANCH   6  19
TORSDOF 5
ENDMDL
MODEL 6
REMARK VINA RESULT:      -7.9      1.275      1.275
REMARK  Name = 
REMARK  7 active torsions:
REMARK  status: ('A' for Active; 'I' for Inactive)
REMARK    1  A    between atoms: C_1  and  C_2
REMARK    2  A    between atoms: C_8  and  C_10
REMARK    3  A    between atoms: C_15  and  N_16
REMARK    4  A    between atoms: C_17  and  C_19
REMARK    5  A    between atoms: C_19  and  C_20
REMARK    6  A    between atoms: C_19  and  O_21
REMARK    7  A    between atoms: O_21  and  C_22
REMARK                            x       y       z     vdW  Elec       q    Type
REMARK                         _______ _______ _______ _____ _____    ______ ____
ROOT
ATOM      1  C   UNL     1       0.909   9.676  20.165  0.00  0.00    +0.000 A 
ATOM      2  C   UNL     1       1.199  10.138  18.883  0.00  0.00    +0.000 A 
ATOM      3  C   UNL     1       1.924   9.326  18.010  0.00  0.00    +0.000 A 
ATOM      4  C   UNL     1       2.390   8.055  18.399  0.00  0.00    +0.000 A 
ATOM      5 CL   UNL     1       3.431   7.307  17.241  0.00  0.00    +0.000 Cl
ATOM      6  C   UNL     1       2.117   7.567  19.691  0.00  0.00    +0.000 A 
ATOM      7  C   UNL     1       1.390   8.411  20.561  0.00  0.00    +0.000 A 
ENDROOT
BRANCH   1  15
ATOM      8  C   UNL     1      -0.144  16.578  22.473  0.00  0.00    +0.000 C 
ATOM      9  C   UNL     1      -0.468  15.122  22.638  0.00  0.00    +0.000 A 
ATOM     10  C   UNL     1      -1.318  14.698  23.656  0.00  0.00    +0.000 A 
ATOM     11  C   UNL     1      -1.573  13.340  23.772  0.00  0.00    +0.000 A 
ATOM     12  N   UNL     1      -1.042  12.408  22.958  0.00  0.00    +0.000 NA
ATOM     13  C   UNL     1      -0.230  12.808  21.969  0.00  0.00    +0.000 A 
ATOM     14  N   UNL     1       0.347  11.869  21.094  0.00  0.00    +0.000 N 
ATOM     15  C   UNL     1       0.149  10.502  21.159  0.00  0.00    +0.000 C 
ATOM     16  O   UNL     1      -0.596   9.892  21.921  0.00  0.00    +0.000 OA
ATOM     17  C   UNL     1       0.081  14.159  21.780  0.00  0.00    +0.000 A 
ATOM     18  H   UNL     1       0.910  12.248  20.353  0.00  0.00    +0.000 HD
ENDBRANCH   1  15
BRANCH   6  19
ATOM     19  N   UNL     1       2.524   6.329  20.272  0.00  0.00    +0.000 N 
ATOM     20  C   UNL     1       2.168   5.041  19.907  0.00  0.00    +0.000 C 
ATOM     21  O   UNL     1       1.303   4.756  19.081  0.00  0.00    +0.000 OA
ATOM     22  H   UNL     1       2.952   6.407  21.187  0.00  0.00    +0.000 HD
BRANCH  20  23
ATOM     23  C   UNL     1       2.834   3.897  20.712  0.00  0.00    +0.000 C 
ATOM     24  C   UNL     1       1.891   3.052  21.564  0.00  0.00    +0.000 C 
BRANCH  23  25
ATOM     25  O   UNL     1       3.494   3.052  19.767  0.00  0.00    +0.000 OA
BRANCH  25  26
ATOM     26  C   UNL     1       4.384   3.605  18.886  0.00  0.00    +0.000 A 
ATOM     27  C   UNL     1       4.112   3.339  17.541  0.00  0.00    +0.000 A 
ATOM     28  C   UNL     1       4.938   3.838  16.530  0.00  0.00    +0.000 A 
ATOM     29  C   UNL     1       6.039   4.621  16.858  0.00  0.00    +0.000 A 
ATOM     30  C   UNL     1       6.305   4.914  18.194  0.00  0.00    +0.000 A 
ATOM     31  C   UNL     1       5.477   4.410  19.207  0.00  0.00    +0.000 A 
ENDBRANCH  25  26
ENDBRANCH  23  25
ENDBRANCH  20  23
ENDBRANCH   6  19
TORSDOF 5
ENDMDL
MODEL 7
REMARK VINA RESULT:      -7.9      2.804      4.584
REMARK  Name = 
REMARK  7 active torsions:
REMARK  status: ('A' for Active; 'I' for Inactive)
REMARK    1  A    between atoms: C_1  and  C_2
REMARK    2  A    between atoms: C_8  and  C_10
REMARK    3  A    between atoms: C_15  and  N_16
REMARK    4  A    between atoms: C_17  and  C_19
REMARK    5  A    between atoms: C_19  and  C_20
REMARK    6  A    between atoms: C_19  and  O_21
REMARK    7  A    between atoms: O_21  and  C_22
REMARK                            x       y       z     vdW  Elec       q    Type
REMARK                         _______ _______ _______ _____ _____    ______ ____
ROOT
ATOM      1  C   UNL     1       2.000   6.280  20.231  0.00  0.00    +0.000 A 
ATOM      2  C   UNL     1       1.475   5.016  20.491  0.00  0.00    +0.000 A 
ATOM      3  C   UNL     1       2.181   3.884  20.082  0.00  0.00    +0.000 A 
ATOM      4  C   UNL     1       3.405   3.985  19.393  0.00  0.00    +0.000 A 
ATOM      5 CL   UNL     1       4.006   2.475  18.808  0.00  0.00    +0.000 Cl
ATOM      6  C   UNL     1       3.955   5.251  19.113  0.00  0.00    +0.000 A 
ATOM      7  C   UNL     1       3.218   6.383  19.527  0.00  0.00    +0.000 A 
ENDROOT
BRANCH   1  15
ATOM      8  C   UNL     1       1.038  13.320  18.340  0.00  0.00    +0.000 C 
ATOM      9  C   UNL     1       0.728  12.212  19.303  0.00  0.00    +0.000 A 
ATOM     10  C   UNL     1      -0.069  12.448  20.419  0.00  0.00    +0.000 A 
ATOM     11  C   UNL     1      -0.313  11.393  21.284  0.00  0.00    +0.000 A 
ATOM     12  N   UNL     1       0.180  10.152  21.107  0.00  0.00    +0.000 NA
ATOM     13  C   UNL     1       0.941   9.913  20.029  0.00  0.00    +0.000 A 
ATOM     14  N   UNL     1       1.477   8.632  19.803  0.00  0.00    +0.000 N 
ATOM     15  C   UNL     1       1.288   7.538  20.627  0.00  0.00    +0.000 C 
ATOM     16  O   UNL     1       0.583   7.474  21.631  0.00  0.00    +0.000 OA
ATOM     17  C   UNL     1       1.237  10.921  19.105  0.00  0.00    +0.000 A 
ATOM     18  H   UNL     1       2.001   8.519  18.952  0.00  0.00    +0.000 HD
ENDBRANCH   1  15
BRANCH   6  19
ATOM     19  N   UNL     1       5.158   5.554  18.409  0.00  0.00    +0.000 N 
ATOM     20  C   UNL     1       5.313   6.211  17.200  0.00  0.00    +0.000 C 
ATOM     21  O   UNL     1       4.394   6.526  16.446  0.00  0.00    +0.000 OA
ATOM     22  H   UNL     1       5.977   5.045  18.722  0.00  0.00    +0.000 HD
BRANCH  20  23
ATOM     23  C   UNL     1       6.772   6.434  16.728  0.00  0.00    +0.000 C 
ATOM     24  C   UNL     1       7.728   6.997  17.774  0.00  0.00    +0.000 C 
BRANCH  23  25
ATOM     25  O   UNL     1       7.262   5.167  16.280  0.00  0.00    +0.000 OA
BRANCH  25  26
ATOM     26  C   UNL     1       7.025   4.779  14.990  0.00  0.00    +0.000 A 
ATOM     27  C   UNL     1       7.853   5.382  14.039  0.00  0.00    +0.000 A 
ATOM     28  C   UNL     1       7.722   5.083  12.680  0.00  0.00    +0.000 A 
ATOM     29  C   UNL     1       6.766   4.163  12.262  0.00  0.00    +0.000 A 
ATOM     30  C   UNL     1       5.952   3.537  13.204  0.00  0.00    +0.000 A 
ATOM     31  C   UNL     1       6.083   3.840  14.565  0.00  0.00    +0.000 A 
ENDBRANCH  25  26
ENDBRANCH  23  25
ENDBRANCH  20  23
ENDBRANCH   6  19
TORSDOF 5
ENDMDL
MODEL 8
REMARK VINA RESULT:      -7.9      3.609     10.323
REMARK  Name = 
REMARK  7 active torsions:
REMARK  status: ('A' for Active; 'I' for Inactive)
REMARK    1  A    between atoms: C_1  and  C_2
REMARK    2  A    between atoms: C_8  and  C_10
REMARK    3  A    between atoms: C_15  and  N_16
REMARK    4  A    between atoms: C_17  and  C_19
REMARK    5  A    between atoms: C_19  and  C_20
REMARK    6  A    between atoms: C_19  and  O_21
REMARK    7  A    between atoms: O_21  and  C_22
REMARK                            x       y       z     vdW  Elec       q    Type
REMARK                         _______ _______ _______ _____ _____    ______ ____
ROOT
ATOM      1  C   UNL     1       4.236   5.798  17.514  0.00  0.00    +0.000 A 
ATOM      2  C   UNL     1       4.155   4.740  18.417  0.00  0.00    +0.000 A 
ATOM      3  C   UNL     1       3.228   4.798  19.458  0.00  0.00    +0.000 A 
ATOM      4  C   UNL     1       2.382   5.911  19.633  0.00  0.00    +0.000 A 
ATOM      5 CL   UNL     1       1.458   5.864  21.091  0.00  0.00    +0.000 Cl
ATOM      6  C   UNL     1       2.448   6.996  18.738  0.00  0.00    +0.000 A 
ATOM      7  C   UNL     1       3.402   6.920  17.698  0.00  0.00    +0.000 A 
ENDROOT
BRANCH   1  15
ATOM      8  C   UNL     1       6.153   2.239  11.371  0.00  0.00    +0.000 C 
ATOM      9  C   UNL     1       6.432   3.363  12.325  0.00  0.00    +0.000 A 
ATOM     10  C   UNL     1       7.526   4.201  12.129  0.00  0.00    +0.000 A 
ATOM     11  C   UNL     1       7.747   5.216  13.048  0.00  0.00    +0.000 A 
ATOM     12  N   UNL     1       6.963   5.434  14.122  0.00  0.00    +0.000 NA
ATOM     13  C   UNL     1       5.901   4.637  14.313  0.00  0.00    +0.000 A 
ATOM     14  N   UNL     1       5.055   4.829  15.420  0.00  0.00    +0.000 N 
ATOM     15  C   UNL     1       5.220   5.809  16.383  0.00  0.00    +0.000 C 
ATOM     16  O   UNL     1       6.065   6.699  16.402  0.00  0.00    +0.000 OA
ATOM     17  C   UNL     1       5.606   3.590  13.435  0.00  0.00    +0.000 A 
ATOM     18  H   UNL     1       4.256   4.221  15.474  0.00  0.00    +0.000 HD
ENDBRANCH   1  15
BRANCH   6  19
ATOM     19  N   UNL     1       1.701   8.211  18.767  0.00  0.00    +0.000 N 
ATOM     20  C   UNL     1       1.476   9.066  19.833  0.00  0.00    +0.000 C 
ATOM     21  O   UNL     1       1.781   8.831  21.001  0.00  0.00    +0.000 OA
ATOM     22  H   UNL     1       1.089   8.355  17.972  0.00  0.00    +0.000 HD
BRANCH  20  23
ATOM     23  C   UNL     1       0.659  10.345  19.520  0.00  0.00    +0.000 C 
ATOM     24  C   UNL     1       1.446  11.651  19.531  0.00  0.00    +0.000 C 
BRANCH  23  25
ATOM     25  O   UNL     1       0.076  10.160  18.228  0.00  0.00    +0.000 OA
BRANCH  25  26
ATOM     26  C   UNL     1      -1.238  10.492  18.036  0.00  0.00    +0.000 A 
ATOM     27  C   UNL     1      -1.875   9.781  17.016  0.00  0.00    +0.000 A 
ATOM     28  C   UNL     1      -3.217  10.017  16.706  0.00  0.00    +0.000 A 
ATOM     29  C   UNL     1      -3.938  10.962  17.427  0.00  0.00    +0.000 A 
ATOM     30  C   UNL     1      -3.321  11.659  18.463  0.00  0.00    +0.000 A 
ATOM     31  C   UNL     1      -1.974  11.423  18.770  0.00  0.00    +0.000 A 
ENDBRANCH  25  26
ENDBRANCH  23  25
ENDBRANCH  20  23
ENDBRANCH   6  19
TORSDOF 5
ENDMDL
MODEL 9
REMARK VINA RESULT:      -7.8      2.821      4.421
REMARK  Name = 
REMARK  7 active torsions:
REMARK  status: ('A' for Active; 'I' for Inactive)
REMARK    1  A    between atoms: C_1  and  C_2
REMARK    2  A    between atoms: C_8  and  C_10
REMARK    3  A    between atoms: C_15  and  N_16
REMARK    4  A    between atoms: C_17  and  C_19
REMARK    5  A    between atoms: C_19  and  C_20
REMARK    6  A    between atoms: C_19  and  O_21
REMARK    7  A    between atoms: O_21  and  C_22
REMARK                            x       y       z     vdW  Elec       q    Type
REMARK                         _______ _______ _______ _____ _____    ______ ____
ROOT
ATOM      1  C   UNL     1       2.017   6.470  20.203  0.00  0.00    +0.000 A 
ATOM      2  C   UNL     1       1.359   5.251  20.345  0.00  0.00    +0.000 A 
ATOM      3  C   UNL     1       1.937   4.095  19.821  0.00  0.00    +0.000 A 
ATOM      4  C   UNL     1       3.164   4.131  19.130  0.00  0.00    +0.000 A 
ATOM      5 CL   UNL     1       3.598   2.629  18.395  0.00  0.00    +0.000 Cl
ATOM      6  C   UNL     1       3.848   5.351  18.967  0.00  0.00    +0.000 A 
ATOM      7  C   UNL     1       3.238   6.510  19.497  0.00  0.00    +0.000 A 
ENDROOT
BRANCH   1  15
ATOM      8  C   UNL     1      -0.380  13.105  18.127  0.00  0.00    +0.000 C 
ATOM      9  C   UNL     1      -0.108  12.149  19.251  0.00  0.00    +0.000 A 
ATOM     10  C   UNL     1      -0.326  12.532  20.572  0.00  0.00    +0.000 A 
ATOM     11  C   UNL     1      -0.045  11.615  21.574  0.00  0.00    +0.000 A 
ATOM     12  N   UNL     1       0.431  10.377  21.341  0.00  0.00    +0.000 NA
ATOM     13  C   UNL     1       0.635   9.997  20.071  0.00  0.00    +0.000 A 
ATOM     14  N   UNL     1       1.130   8.712  19.781  0.00  0.00    +0.000 N 
ATOM     15  C   UNL     1       1.446   7.753  20.727  0.00  0.00    +0.000 C 
ATOM     16  O   UNL     1       1.287   7.825  21.942  0.00  0.00    +0.000 OA
ATOM     17  C   UNL     1       0.378  10.858  19.000  0.00  0.00    +0.000 A 
ATOM     18  H   UNL     1       1.217   8.484  18.806  0.00  0.00    +0.000 HD
ENDBRANCH   1  15
BRANCH   6  19
ATOM     19  N   UNL     1       5.076   5.590  18.281  0.00  0.00    +0.000 N 
ATOM     20  C   UNL     1       5.291   6.294  17.108  0.00  0.00    +0.000 C 
ATOM     21  O   UNL     1       4.406   6.722  16.371  0.00  0.00    +0.000 OA
ATOM     22  H   UNL     1       5.848   5.000  18.569  0.00  0.00    +0.000 HD
BRANCH  20  23
ATOM     23  C   UNL     1       6.766   6.419  16.650  0.00  0.00    +0.000 C 
ATOM     24  C   UNL     1       7.750   6.903  17.711  0.00  0.00    +0.000 C 
BRANCH  23  25
ATOM     25  O   UNL     1       7.171   5.127  16.191  0.00  0.00    +0.000 OA
BRANCH  25  26
ATOM     26  C   UNL     1       7.071   4.831  14.859  0.00  0.00    +0.000 A 
ATOM     27  C   UNL     1       6.074   3.904  14.542  0.00  0.00    +0.000 A 
ATOM     28  C   UNL     1       5.860   3.505  13.220  0.00  0.00    +0.000 A 
ATOM     29  C   UNL     1       6.636   4.044  12.199  0.00  0.00    +0.000 A 
ATOM     30  C   UNL     1       7.616   4.988  12.501  0.00  0.00    +0.000 A 
ATOM     31  C   UNL     1       7.831   5.384  13.827  0.00  0.00    +0.000 A 
ENDBRANCH  25  26
ENDBRANCH  23  25
ENDBRANCH  20  23
ENDBRANCH   6  19
TORSDOF 5
ENDMDL
