MODEL 1
REMARK VINA RESULT:      -6.7      0.000      0.000
REMARK  Name = 
REMARK  8 active torsions:
REMARK  status: ('A' for Active; 'I' for Inactive)
REMARK    1  A    between atoms: C_1  and  C_2
REMARK    2  A    between atoms: C_2  and  C_3
REMARK    3  A    between atoms: C_3  and  C_4
REMARK    4  A    between atoms: C_16  and  C_17
REMARK    5  A    between atoms: C_16  and  C_18
REMARK    6  A    between atoms: C_22  and  C_23
REMARK    7  A    between atoms: C_24  and  C_25
REMARK    8  A    between atoms: C_26  and  O_27
REMARK                            x       y       z     vdW  Elec       q    Type
REMARK                         _______ _______ _______ _____ _____    ______ ____
ROOT
ATOM      1  C   UNL     1       1.023   4.093  19.746  0.00  0.00    +0.000 A 
ATOM      2  C   UNL     1       0.583   3.228  18.801  0.00  0.00    +0.000 A 
ATOM      3  C   UNL     1       1.802   2.679  18.123  0.00  0.00    +0.000 A 
ATOM      4  O   UNL     1       2.143   1.512  18.078  0.00  0.00    +0.000 OA
ATOM      5  O   UNL     1       2.542   3.633  17.529  0.00  0.00    +0.000 OA
ATOM      6  C   UNL     1       2.943   4.653  18.432  0.00  0.00    +0.000 A 
ATOM      7  C   UNL     1       4.130   5.189  17.996  0.00  0.00    +0.000 A 
ATOM      8  C   UNL     1       4.252   6.540  17.936  0.00  0.00    +0.000 A 
ATOM      9  C   UNL     1       3.097   7.312  18.258  0.00  0.00    +0.000 A 
ATOM     10  C   UNL     1       1.912   6.746  18.892  0.00  0.00    +0.000 A 
ATOM     11  C   UNL     1       1.901   5.297  19.129  0.00  0.00    +0.000 A 
ATOM     12  O   UNL     1       0.837   7.646  19.099  0.00  0.00    +0.000 OA
ATOM     13  C   UNL     1       0.971   9.129  18.799  0.00  0.00    +0.000 C 
ATOM     14  C   UNL     1      -0.182   9.724  17.931  0.00  0.00    +0.000 C 
ATOM     15  C   UNL     1       1.008   9.960  20.110  0.00  0.00    +0.000 C 
ATOM     16  C   UNL     1       2.209   9.531  18.050  0.00  0.00    +0.000 C 
ATOM     17  C   UNL     1       3.192   8.697  17.826  0.00  0.00    +0.000 C 
ATOM     18  O   UNL     1       5.338   7.178  17.411  0.00  0.00    +0.000 OA
ATOM     19  C   UNL     1       6.537   6.411  17.425  0.00  0.00    +0.000 C 
ATOM     20  C   UNL     1       7.621   7.224  16.736  0.00  0.00    +0.000 C 
ATOM     21  C   UNL     1       6.330   5.044  16.762  0.00  0.00    +0.000 C 
ATOM     22  C   UNL     1       5.922   5.126  15.282  0.00  0.00    +0.000 C 
ATOM     23  C   UNL     1       5.293   4.290  17.599  0.00  0.00    +0.000 C 
ENDROOT
BRANCH  23  24
ATOM     24  O   UNL     1       4.942   3.097  16.918  0.00  0.00    +0.000 OA
ATOM     25  H   UNL     1       5.651   2.894  16.283  0.00  0.00    +0.000 HD
ENDBRANCH  23  24
BRANCH   1  26
ATOM     26  C   UNL     1       1.533   3.173  21.016  0.00  0.00    +0.000 C 
BRANCH  26  28
ATOM     27  C   UNL     1       4.205   2.194  20.601  0.00  0.00    +0.000 C 
ATOM     28  C   UNL     1       3.095   2.854  21.457  0.00  0.00    +0.000 C 
ENDBRANCH  26  28
ENDBRANCH   1  26
TORSDOF 3
ENDMDL
MODEL 2
REMARK VINA RESULT:      -6.5      7.114     11.728
REMARK  Name = 
REMARK  8 active torsions:
REMARK  status: ('A' for Active; 'I' for Inactive)
REMARK    1  A    between atoms: C_1  and  C_2
REMARK    2  A    between atoms: C_2  and  C_3
REMARK    3  A    between atoms: C_3  and  C_4
REMARK    4  A    between atoms: C_16  and  C_17
REMARK    5  A    between atoms: C_16  and  C_18
REMARK    6  A    between atoms: C_22  and  C_23
REMARK    7  A    between atoms: C_24  and  C_25
REMARK    8  A    between atoms: C_26  and  O_27
REMARK                            x       y       z     vdW  Elec       q    Type
REMARK                         _______ _______ _______ _____ _____    ______ ____
ROOT
ATOM      1  C   UNL     1      -5.310  11.948  18.189  0.00  0.00    +0.000 A 
ATOM      2  C   UNL     1      -6.035  10.842  18.482  0.00  0.00    +0.000 A 
ATOM      3  C   UNL     1      -6.714  11.110  19.791  0.00  0.00    +0.000 A 
ATOM      4  O   UNL     1      -7.914  11.134  19.995  0.00  0.00    +0.000 OA
ATOM      5  O   UNL     1      -5.844  11.337  20.792  0.00  0.00    +0.000 OA
ATOM      6  C   UNL     1      -4.958  12.411  20.510  0.00  0.00    +0.000 A 
ATOM      7  C   UNL     1      -4.578  12.994  21.693  0.00  0.00    +0.000 A 
ATOM      8  C   UNL     1      -3.259  13.240  21.905  0.00  0.00    +0.000 A 
ATOM      9  C   UNL     1      -2.346  12.795  20.904  0.00  0.00    +0.000 A 
ATOM     10  C   UNL     1      -2.769  12.351  19.582  0.00  0.00    +0.000 A 
ATOM     11  C   UNL     1      -4.213  12.292  19.320  0.00  0.00    +0.000 A 
ATOM     12  O   UNL     1      -1.735  11.898  18.725  0.00  0.00    +0.000 OA
ATOM     13  C   UNL     1      -0.271  12.000  19.121  0.00  0.00    +0.000 C 
ATOM     14  C   UNL     1       0.545  10.683  18.941  0.00  0.00    +0.000 C 
ATOM     15  C   UNL     1       0.456  13.086  18.283  0.00  0.00    +0.000 C 
ATOM     16  C   UNL     1      -0.011  12.376  20.552  0.00  0.00    +0.000 C 
ATOM     17  C   UNL     1      -0.965  12.763  21.358  0.00  0.00    +0.000 C 
ATOM     18  O   UNL     1      -2.757  13.707  23.085  0.00  0.00    +0.000 OA
ATOM     19  C   UNL     1      -3.694  14.421  23.884  0.00  0.00    +0.000 C 
ATOM     20  C   UNL     1      -3.008  14.796  25.188  0.00  0.00    +0.000 C 
ATOM     21  C   UNL     1      -4.968  13.600  24.115  0.00  0.00    +0.000 C 
ATOM     22  C   UNL     1      -4.727  12.277  24.863  0.00  0.00    +0.000 C 
ATOM     23  C   UNL     1      -5.611  13.371  22.745  0.00  0.00    +0.000 C 
ENDROOT
BRANCH  23  24
ATOM     24  O   UNL     1      -6.691  12.465  22.898  0.00  0.00    +0.000 OA
ATOM     25  H   UNL     1      -6.360  11.678  23.366  0.00  0.00    +0.000 HD
ENDBRANCH  23  24
BRANCH   1  26
ATOM     26  C   UNL     1      -6.378  13.063  17.610  0.00  0.00    +0.000 C 
BRANCH  26  28
ATOM     27  C   UNL     1      -7.718  14.705  19.554  0.00  0.00    +0.000 C 
ATOM     28  C   UNL     1      -6.811  14.495  18.315  0.00  0.00    +0.000 C 
ENDBRANCH  26  28
ENDBRANCH   1  26
TORSDOF 3
ENDMDL
MODEL 3
REMARK VINA RESULT:      -6.5      5.498      9.583
REMARK  Name = 
REMARK  8 active torsions:
REMARK  status: ('A' for Active; 'I' for Inactive)
REMARK    1  A    between atoms: C_1  and  C_2
REMARK    2  A    between atoms: C_2  and  C_3
REMARK    3  A    between atoms: C_3  and  C_4
REMARK    4  A    between atoms: C_16  and  C_17
REMARK    5  A    between atoms: C_16  and  C_18
REMARK    6  A    between atoms: C_22  and  C_23
REMARK    7  A    between atoms: C_24  and  C_25
REMARK    8  A    between atoms: C_26  and  O_27
REMARK                            x       y       z     vdW  Elec       q    Type
REMARK                         _______ _______ _______ _____ _____    ______ ____
ROOT
ATOM      1  C   UNL     1      -2.990  14.421  21.522  0.00  0.00    +0.000 A 
ATOM      2  C   UNL     1      -2.956  14.018  22.815  0.00  0.00    +0.000 A 
ATOM      3  C   UNL     1      -1.628  13.357  23.023  0.00  0.00    +0.000 A 
ATOM      4  O   UNL     1      -0.761  13.700  23.806  0.00  0.00    +0.000 OA
ATOM      5  O   UNL     1      -1.449  12.285  22.230  0.00  0.00    +0.000 OA
ATOM      6  C   UNL     1      -1.591  12.598  20.851  0.00  0.00    +0.000 A 
ATOM      7  C   UNL     1      -0.818  11.733  20.118  0.00  0.00    +0.000 A 
ATOM      8  C   UNL     1      -1.370  11.120  19.039  0.00  0.00    +0.000 A 
ATOM      9  C   UNL     1      -2.753  11.361  18.792  0.00  0.00    +0.000 A 
ATOM     10  C   UNL     1      -3.509  12.415  19.457  0.00  0.00    +0.000 A 
ATOM     11  C   UNL     1      -2.812  13.200  20.484  0.00  0.00    +0.000 A 
ATOM     12  O   UNL     1      -4.885  12.486  19.127  0.00  0.00    +0.000 OA
ATOM     13  C   UNL     1      -5.493  11.603  18.050  0.00  0.00    +0.000 C 
ATOM     14  C   UNL     1      -6.793  10.854  18.478  0.00  0.00    +0.000 C 
ATOM     15  C   UNL     1      -5.860  12.437  16.792  0.00  0.00    +0.000 C 
ATOM     16  C   UNL     1      -4.610  10.500  17.540  0.00  0.00    +0.000 C 
ATOM     17  C   UNL     1      -3.346  10.409  17.866  0.00  0.00    +0.000 C 
ATOM     18  O   UNL     1      -0.734  10.157  18.310  0.00  0.00    +0.000 OA
ATOM     19  C   UNL     1       0.687  10.203  18.383  0.00  0.00    +0.000 C 
ATOM     20  C   UNL     1       1.235   9.025  17.593  0.00  0.00    +0.000 C 
ATOM     21  C   UNL     1       1.169  10.198  19.839  0.00  0.00    +0.000 C 
ATOM     22  C   UNL     1       0.766   8.937  20.622  0.00  0.00    +0.000 C 
ATOM     23  C   UNL     1       0.634  11.472  20.495  0.00  0.00    +0.000 C 
ENDROOT
BRANCH  23  24
ATOM     24  O   UNL     1       0.906  11.414  21.885  0.00  0.00    +0.000 OA
ATOM     25  H   UNL     1       0.418  12.137  22.318  0.00  0.00    +0.000 HD
ENDBRANCH  23  24
BRANCH   1  26
ATOM     26  C   UNL     1      -2.091  15.800  21.443  0.00  0.00    +0.000 C 
BRANCH  26  28
ATOM     27  C   UNL     1      -0.410  15.780  19.110  0.00  0.00    +0.000 C 
ATOM     28  C   UNL     1      -0.677  16.028  20.615  0.00  0.00    +0.000 C 
ENDBRANCH  26  28
ENDBRANCH   1  26
TORSDOF 3
ENDMDL
MODEL 4
REMARK VINA RESULT:      -6.4      6.743     10.446
REMARK  Name = 
REMARK  8 active torsions:
REMARK  status: ('A' for Active; 'I' for Inactive)
REMARK    1  A    between atoms: C_1  and  C_2
REMARK    2  A    between atoms: C_2  and  C_3
REMARK    3  A    between atoms: C_3  and  C_4
REMARK    4  A    between atoms: C_16  and  C_17
REMARK    5  A    between atoms: C_16  and  C_18
REMARK    6  A    between atoms: C_22  and  C_23
REMARK    7  A    between atoms: C_24  and  C_25
REMARK    8  A    between atoms: C_26  and  O_27
REMARK                            x       y       z     vdW  Elec       q    Type
REMARK                         _______ _______ _______ _____ _____    ______ ____
ROOT
ATOM      1  C   UNL     1      -0.405  10.880  19.405  0.00  0.00    +0.000 A 
ATOM      2  C   UNL     1       0.563  11.647  18.849  0.00  0.00    +0.000 A 
ATOM      3  C   UNL     1       1.023  12.595  19.914  0.00  0.00    +0.000 A 
ATOM      4  O   UNL     1       2.149  12.684  20.370  0.00  0.00    +0.000 OA
ATOM      5  O   UNL     1       0.038  13.396  20.362  0.00  0.00    +0.000 OA
ATOM      6  C   UNL     1      -1.076  12.664  20.853  0.00  0.00    +0.000 A 
ATOM      7  C   UNL     1      -1.704  13.410  21.819  0.00  0.00    +0.000 A 
ATOM      8  C   UNL     1      -3.054  13.550  21.760  0.00  0.00    +0.000 A 
ATOM      9  C   UNL     1      -3.719  12.972  20.640  0.00  0.00    +0.000 A 
ATOM     10  C   UNL     1      -3.074  12.033  19.729  0.00  0.00    +0.000 A 
ATOM     11  C   UNL     1      -1.652  11.747  19.950  0.00  0.00    +0.000 A 
ATOM     12  O   UNL     1      -3.867  11.590  18.641  0.00  0.00    +0.000 OA
ATOM     13  C   UNL     1      -5.333  11.970  18.517  0.00  0.00    +0.000 C 
ATOM     14  C   UNL     1      -5.744  12.534  17.120  0.00  0.00    +0.000 C 
ATOM     15  C   UNL     1      -6.249  10.744  18.783  0.00  0.00    +0.000 C 
ATOM     16  C   UNL     1      -5.813  13.027  19.470  0.00  0.00    +0.000 C 
ATOM     17  C   UNL     1      -5.075  13.464  20.458  0.00  0.00    +0.000 C 
ATOM     18  O   UNL     1      -3.767  14.360  22.596  0.00  0.00    +0.000 OA
ATOM     19  C   UNL     1      -3.134  14.627  23.842  0.00  0.00    +0.000 C 
ATOM     20  C   UNL     1      -4.009  15.602  24.614  0.00  0.00    +0.000 C 
ATOM     21  C   UNL     1      -1.711  15.163  23.640  0.00  0.00    +0.000 C 
ATOM     22  C   UNL     1      -1.652  16.490  22.866  0.00  0.00    +0.000 C 
ATOM     23  C   UNL     1      -0.910  14.060  22.943  0.00  0.00    +0.000 C 
ENDROOT
BRANCH  23  24
ATOM     24  O   UNL     1       0.356  14.583  22.578  0.00  0.00    +0.000 OA
ATOM     25  H   UNL     1       0.461  15.449  23.010  0.00  0.00    +0.000 HD
ENDBRANCH  23  24
BRANCH   1  26
ATOM     26  C   UNL     1       0.369   9.752  20.324  0.00  0.00    +0.000 C 
BRANCH  26  28
ATOM     27  C   UNL     1      -0.371   9.786  23.103  0.00  0.00    +0.000 C 
ATOM     28  C   UNL     1      -0.159   9.080  21.741  0.00  0.00    +0.000 C 
ENDBRANCH  26  28
ENDBRANCH   1  26
TORSDOF 3
ENDMDL
MODEL 5
REMARK VINA RESULT:      -6.4      9.281     11.341
REMARK  Name = 
REMARK  8 active torsions:
REMARK  status: ('A' for Active; 'I' for Inactive)
REMARK    1  A    between atoms: C_1  and  C_2
REMARK    2  A    between atoms: C_2  and  C_3
REMARK    3  A    between atoms: C_3  and  C_4
REMARK    4  A    between atoms: C_16  and  C_17
REMARK    5  A    between atoms: C_16  and  C_18
REMARK    6  A    between atoms: C_22  and  C_23
REMARK    7  A    between atoms: C_24  and  C_25
REMARK    8  A    between atoms: C_26  and  O_27
REMARK                            x       y       z     vdW  Elec       q    Type
REMARK                         _______ _______ _______ _____ _____    ______ ____
ROOT
ATOM      1  C   UNL     1      10.911  12.755  20.391  0.00  0.00    +0.000 A 
ATOM      2  C   UNL     1      10.776  11.779  19.461  0.00  0.00    +0.000 A 
ATOM      3  C   UNL     1      10.010  12.378  18.321  0.00  0.00    +0.000 A 
ATOM      4  O   UNL     1      10.393  12.495  17.171  0.00  0.00    +0.000 OA
ATOM      5  O   UNL     1       8.787  12.807  18.682  0.00  0.00    +0.000 OA
ATOM      6  C   UNL     1       8.832  13.748  19.745  0.00  0.00    +0.000 A 
ATOM      7  C   UNL     1       7.747  14.583  19.644  0.00  0.00    +0.000 A 
ATOM      8  C   UNL     1       7.003  14.824  20.754  0.00  0.00    +0.000 A 
ATOM      9  C   UNL     1       7.360  14.118  21.940  0.00  0.00    +0.000 A 
ATOM     10  C   UNL     1       8.612  13.386  22.085  0.00  0.00    +0.000 A 
ATOM     11  C   UNL     1       9.494  13.319  20.914  0.00  0.00    +0.000 A 
ATOM     12  O   UNL     1       8.785  12.703  23.315  0.00  0.00    +0.000 OA
ATOM     13  C   UNL     1       7.787  12.843  24.452  0.00  0.00    +0.000 C 
ATOM     14  C   UNL     1       7.306  11.491  25.067  0.00  0.00    +0.000 C 
ATOM     15  C   UNL     1       8.389  13.669  25.621  0.00  0.00    +0.000 C 
ATOM     16  C   UNL     1       6.503  13.541  24.105  0.00  0.00    +0.000 C 
ATOM     17  C   UNL     1       6.322  14.145  22.959  0.00  0.00    +0.000 C 
ATOM     18  O   UNL     1       5.842  15.541  20.744  0.00  0.00    +0.000 OA
ATOM     19  C   UNL     1       5.724  16.460  19.664  0.00  0.00    +0.000 C 
ATOM     20  C   UNL     1       4.353  17.111  19.750  0.00  0.00    +0.000 C 
ATOM     21  C   UNL     1       5.952  15.766  18.316  0.00  0.00    +0.000 C 
ATOM     22  C   UNL     1       4.934  14.653  18.011  0.00  0.00    +0.000 C 
ATOM     23  C   UNL     1       7.389  15.239  18.317  0.00  0.00    +0.000 C 
ENDROOT
BRANCH  23  24
ATOM     24  O   UNL     1       7.578  14.436  17.164  0.00  0.00    +0.000 OA
ATOM     25  H   UNL     1       7.513  13.503  17.433  0.00  0.00    +0.000 HD
ENDBRANCH  23  24
BRANCH   1  26
ATOM     26  C   UNL     1      12.124  13.737  19.859  0.00  0.00    +0.000 C 
BRANCH  26  28
ATOM     27  C   UNL     1      11.336  15.934  18.178  0.00  0.00    +0.000 C 
ATOM     28  C   UNL     1      12.008  15.332  19.438  0.00  0.00    +0.000 C 
ENDBRANCH  26  28
ENDBRANCH   1  26
TORSDOF 3
ENDMDL
MODEL 6
REMARK VINA RESULT:      -6.3      9.023     11.470
REMARK  Name = 
REMARK  8 active torsions:
REMARK  status: ('A' for Active; 'I' for Inactive)
REMARK    1  A    between atoms: C_1  and  C_2
REMARK    2  A    between atoms: C_2  and  C_3
REMARK    3  A    between atoms: C_3  and  C_4
REMARK    4  A    between atoms: C_16  and  C_17
REMARK    5  A    between atoms: C_16  and  C_18
REMARK    6  A    between atoms: C_22  and  C_23
REMARK    7  A    between atoms: C_24  and  C_25
REMARK    8  A    between atoms: C_26  and  O_27
REMARK                            x       y       z     vdW  Elec       q    Type
REMARK                         _______ _______ _______ _____ _____    ______ ____
ROOT
ATOM      1  C   UNL     1       6.128  16.464  20.242  0.00  0.00    +0.000 A 
ATOM      2  C   UNL     1       6.741  17.671  20.287  0.00  0.00    +0.000 A 
ATOM      3  C   UNL     1       7.848  17.627  19.278  0.00  0.00    +0.000 A 
ATOM      4  O   UNL     1       7.972  18.348  18.305  0.00  0.00    +0.000 OA
ATOM      5  O   UNL     1       8.756  16.669  19.541  0.00  0.00    +0.000 OA
ATOM      6  C   UNL     1       8.173  15.377  19.634  0.00  0.00    +0.000 A 
ATOM      7  C   UNL     1       9.107  14.442  19.267  0.00  0.00    +0.000 A 
ATOM      8  C   UNL     1       9.289  13.354  20.060  0.00  0.00    +0.000 A 
ATOM      9  C   UNL     1       8.543  13.304  21.274  0.00  0.00    +0.000 A 
ATOM     10  C   UNL     1       7.428  14.199  21.561  0.00  0.00    +0.000 A 
ATOM     11  C   UNL     1       7.130  15.244  20.574  0.00  0.00    +0.000 A 
ATOM     12  O   UNL     1       6.827  14.042  22.835  0.00  0.00    +0.000 OA
ATOM     13  C   UNL     1       7.237  12.923  23.777  0.00  0.00    +0.000 C 
ATOM     14  C   UNL     1       7.552  13.382  25.235  0.00  0.00    +0.000 C 
ATOM     15  C   UNL     1       6.118  11.851  23.885  0.00  0.00    +0.000 C 
ATOM     16  C   UNL     1       8.468  12.160  23.381  0.00  0.00    +0.000 C 
ATOM     17  C   UNL     1       9.049  12.323  22.220  0.00  0.00    +0.000 C 
ATOM     18  O   UNL     1      10.266  12.424  19.855  0.00  0.00    +0.000 OA
ATOM     19  C   UNL     1      10.730  12.341  18.512  0.00  0.00    +0.000 C 
ATOM     20  C   UNL     1      11.864  11.329  18.470  0.00  0.00    +0.000 C 
ATOM     21  C   UNL     1      11.161  13.715  17.987  0.00  0.00    +0.000 C 
ATOM     22  C   UNL     1      12.322  14.346  18.775  0.00  0.00    +0.000 C 
ATOM     23  C   UNL     1       9.918  14.609  17.989  0.00  0.00    +0.000 C 
ENDROOT
BRANCH  23  24
ATOM     24  O   UNL     1      10.314  15.935  17.682  0.00  0.00    +0.000 OA
ATOM     25  H   UNL     1      11.010  15.892  17.003  0.00  0.00    +0.000 HD
ENDBRANCH  23  24
BRANCH   1  26
ATOM     26  C   UNL     1       5.156  16.486  18.911  0.00  0.00    +0.000 C 
BRANCH  26  28
ATOM     27  C   UNL     1       3.505  14.248  18.180  0.00  0.00    +0.000 C 
ATOM     28  C   UNL     1       4.711  15.198  17.974  0.00  0.00    +0.000 C 
ENDBRANCH  26  28
ENDBRANCH   1  26
TORSDOF 3
ENDMDL
MODEL 7
REMARK VINA RESULT:      -6.2      9.055     11.328
REMARK  Name = 
REMARK  8 active torsions:
REMARK  status: ('A' for Active; 'I' for Inactive)
REMARK    1  A    between atoms: C_1  and  C_2
REMARK    2  A    between atoms: C_2  and  C_3
REMARK    3  A    between atoms: C_3  and  C_4
REMARK    4  A    between atoms: C_16  and  C_17
REMARK    5  A    between atoms: C_16  and  C_18
REMARK    6  A    between atoms: C_22  and  C_23
REMARK    7  A    between atoms: C_24  and  C_25
REMARK    8  A    between atoms: C_26  and  O_27
REMARK                            x       y       z     vdW  Elec       q    Type
REMARK                         _______ _______ _______ _____ _____    ______ ____
ROOT
ATOM      1  C   UNL     1      10.228  11.743  20.374  0.00  0.00    +0.000 A 
ATOM      2  C   UNL     1       9.735  11.139  19.266  0.00  0.00    +0.000 A 
ATOM      3  C   UNL     1       9.401  12.231  18.296  0.00  0.00    +0.000 A 
ATOM      4  O   UNL     1       9.876  12.385  17.185  0.00  0.00    +0.000 OA
ATOM      5  O   UNL     1       8.479  13.087  18.771  0.00  0.00    +0.000 OA
ATOM      6  C   UNL     1       8.866  13.677  20.004  0.00  0.00    +0.000 A 
ATOM      7  C   UNL     1       8.283  14.914  20.107  0.00  0.00    +0.000 A 
ATOM      8  C   UNL     1       7.649  15.243  21.263  0.00  0.00    +0.000 A 
ATOM      9  C   UNL     1       7.567  14.235  22.267  0.00  0.00    +0.000 A 
ATOM     10  C   UNL     1       8.343  13.002  22.224  0.00  0.00    +0.000 A 
ATOM     11  C   UNL     1       9.181  12.774  21.040  0.00  0.00    +0.000 A 
ATOM     12  O   UNL     1       8.105  12.089  23.281  0.00  0.00    +0.000 OA
ATOM     13  C   UNL     1       7.198  12.440  24.448  0.00  0.00    +0.000 C 
ATOM     14  C   UNL     1       6.120  11.362  24.783  0.00  0.00    +0.000 C 
ATOM     15  C   UNL     1       8.023  12.655  25.746  0.00  0.00    +0.000 C 
ATOM     16  C   UNL     1       6.392  13.697  24.288  0.00  0.00    +0.000 C 
ATOM     17  C   UNL     1       6.583  14.529  23.297  0.00  0.00    +0.000 C 
ATOM     18  O   UNL     1       6.938  16.395  21.432  0.00  0.00    +0.000 OA
ATOM     19  C   UNL     1       7.321  17.460  20.569  0.00  0.00    +0.000 C 
ATOM     20  C   UNL     1       6.386  18.631  20.825  0.00  0.00    +0.000 C 
ATOM     21  C   UNL     1       7.307  17.018  19.101  0.00  0.00    +0.000 C 
ATOM     22  C   UNL     1       5.923  16.572  18.600  0.00  0.00    +0.000 C 
ATOM     23  C   UNL     1       8.351  15.908  18.955  0.00  0.00    +0.000 C 
ENDROOT
BRANCH  23  24
ATOM     24  O   UNL     1       8.240  15.350  17.656  0.00  0.00    +0.000 OA
ATOM     25  H   UNL     1       8.220  16.083  17.015  0.00  0.00    +0.000 HD
ENDBRANCH  23  24
BRANCH   1  26
ATOM     26  C   UNL     1      11.786  12.151  20.024  0.00  0.00    +0.000 C 
BRANCH  26  28
ATOM     27  C   UNL     1      11.937  15.020  19.879  0.00  0.00    +0.000 C 
ATOM     28  C   UNL     1      12.333  13.593  19.425  0.00  0.00    +0.000 C 
ENDBRANCH  26  28
ENDBRANCH   1  26
TORSDOF 3
ENDMDL
MODEL 8
REMARK VINA RESULT:      -6.2      5.513      9.814
REMARK  Name = 
REMARK  8 active torsions:
REMARK  status: ('A' for Active; 'I' for Inactive)
REMARK    1  A    between atoms: C_1  and  C_2
REMARK    2  A    between atoms: C_2  and  C_3
REMARK    3  A    between atoms: C_3  and  C_4
REMARK    4  A    between atoms: C_16  and  C_17
REMARK    5  A    between atoms: C_16  and  C_18
REMARK    6  A    between atoms: C_22  and  C_23
REMARK    7  A    between atoms: C_24  and  C_25
REMARK    8  A    between atoms: C_26  and  O_27
REMARK                            x       y       z     vdW  Elec       q    Type
REMARK                         _______ _______ _______ _____ _____    ______ ____
ROOT
ATOM      1  C   UNL     1      -3.012  14.428  21.549  0.00  0.00    +0.000 A 
ATOM      2  C   UNL     1      -2.985  14.020  22.841  0.00  0.00    +0.000 A 
ATOM      3  C   UNL     1      -1.658  13.357  23.052  0.00  0.00    +0.000 A 
ATOM      4  O   UNL     1      -0.794  13.696  23.840  0.00  0.00    +0.000 OA
ATOM      5  O   UNL     1      -1.476  12.288  22.255  0.00  0.00    +0.000 OA
ATOM      6  C   UNL     1      -1.612  12.607  20.877  0.00  0.00    +0.000 A 
ATOM      7  C   UNL     1      -0.836  11.744  20.144  0.00  0.00    +0.000 A 
ATOM      8  C   UNL     1      -1.384  11.136  19.060  0.00  0.00    +0.000 A 
ATOM      9  C   UNL     1      -2.766  11.379  18.807  0.00  0.00    +0.000 A 
ATOM     10  C   UNL     1      -3.524  12.431  19.474  0.00  0.00    +0.000 A 
ATOM     11  C   UNL     1      -2.831  13.211  20.507  0.00  0.00    +0.000 A 
ATOM     12  O   UNL     1      -4.898  12.504  19.138  0.00  0.00    +0.000 OA
ATOM     13  C   UNL     1      -5.502  11.627  18.054  0.00  0.00    +0.000 C 
ATOM     14  C   UNL     1      -6.805  10.876  18.474  0.00  0.00    +0.000 C 
ATOM     15  C   UNL     1      -5.862  12.465  16.798  0.00  0.00    +0.000 C 
ATOM     16  C   UNL     1      -4.618  10.525  17.544  0.00  0.00    +0.000 C 
ATOM     17  C   UNL     1      -3.355  10.431  17.875  0.00  0.00    +0.000 C 
ATOM     18  O   UNL     1      -0.745  10.175  18.330  0.00  0.00    +0.000 OA
ATOM     19  C   UNL     1       0.675  10.219  18.409  0.00  0.00    +0.000 C 
ATOM     20  C   UNL     1       1.225   9.044  17.617  0.00  0.00    +0.000 C 
ATOM     21  C   UNL     1       1.151  10.208  19.867  0.00  0.00    +0.000 C 
ATOM     22  C   UNL     1       0.743   8.944  20.643  0.00  0.00    +0.000 C 
ATOM     23  C   UNL     1       0.614  11.480  20.526  0.00  0.00    +0.000 C 
ENDROOT
BRANCH  23  24
ATOM     24  O   UNL     1       0.879  11.416  21.917  0.00  0.00    +0.000 OA
ATOM     25  H   UNL     1       0.242  11.995  22.373  0.00  0.00    +0.000 HD
ENDBRANCH  23  24
BRANCH   1  26
ATOM     26  C   UNL     1      -2.111  15.807  21.480  0.00  0.00    +0.000 C 
BRANCH  26  28
ATOM     27  C   UNL     1      -0.930  17.843  23.132  0.00  0.00    +0.000 C 
ATOM     28  C   UNL     1      -2.139  17.075  22.541  0.00  0.00    +0.000 C 
ENDBRANCH  26  28
ENDBRANCH   1  26
TORSDOF 3
ENDMDL
MODEL 9
REMARK VINA RESULT:      -6.1      9.390     11.320
REMARK  Name = 
REMARK  8 active torsions:
REMARK  status: ('A' for Active; 'I' for Inactive)
REMARK    1  A    between atoms: C_1  and  C_2
REMARK    2  A    between atoms: C_2  and  C_3
REMARK    3  A    between atoms: C_3  and  C_4
REMARK    4  A    between atoms: C_16  and  C_17
REMARK    5  A    between atoms: C_16  and  C_18
REMARK    6  A    between atoms: C_22  and  C_23
REMARK    7  A    between atoms: C_24  and  C_25
REMARK    8  A    between atoms: C_26  and  O_27
REMARK                            x       y       z     vdW  Elec       q    Type
REMARK                         _______ _______ _______ _____ _____    ______ ____
ROOT
ATOM      1  C   UNL     1       5.292  15.549  20.519  0.00  0.00    +0.000 A 
ATOM      2  C   UNL     1       5.603  16.867  20.466  0.00  0.00    +0.000 A 
ATOM      3  C   UNL     1       6.768  16.994  19.532  0.00  0.00    +0.000 A 
ATOM      4  O   UNL     1       6.800  17.631  18.495  0.00  0.00    +0.000 OA
ATOM      5  O   UNL     1       7.848  16.308  19.948  0.00  0.00    +0.000 OA
ATOM      6  C   UNL     1       7.574  14.929  20.149  0.00  0.00    +0.000 A 
ATOM      7  C   UNL     1       8.725  14.213  19.938  0.00  0.00    +0.000 A 
ATOM      8  C   UNL     1       9.089  13.278  20.854  0.00  0.00    +0.000 A 
ATOM      9  C   UNL     1       8.279  13.164  22.022  0.00  0.00    +0.000 A 
ATOM     10  C   UNL     1       6.969  13.791  22.147  0.00  0.00    +0.000 A 
ATOM     11  C   UNL     1       6.518  14.639  21.037  0.00  0.00    +0.000 A 
ATOM     12  O   UNL     1       6.320  13.613  23.394  0.00  0.00    +0.000 OA
ATOM     13  C   UNL     1       6.900  12.715  24.474  0.00  0.00    +0.000 C 
ATOM     14  C   UNL     1       6.983  13.369  25.889  0.00  0.00    +0.000 C 
ATOM     15  C   UNL     1       6.054  11.423  24.635  0.00  0.00    +0.000 C 
ATOM     16  C   UNL     1       8.302  12.234  24.233  0.00  0.00    +0.000 C 
ATOM     17  C   UNL     1       8.921  12.422  23.096  0.00  0.00    +0.000 C 
ATOM     18  O   UNL     1      10.268  12.592  20.806  0.00  0.00    +0.000 OA
ATOM     19  C   UNL     1      10.845  12.498  19.509  0.00  0.00    +0.000 C 
ATOM     20  C   UNL     1      12.181  11.785  19.641  0.00  0.00    +0.000 C 
ATOM     21  C   UNL     1      10.988  13.881  18.862  0.00  0.00    +0.000 C 
ATOM     22  C   UNL     1      11.904  14.839  19.642  0.00  0.00    +0.000 C 
ATOM     23  C   UNL     1       9.576  14.449  18.698  0.00  0.00    +0.000 C 
ENDROOT
BRANCH  23  24
ATOM     24  O   UNL     1       9.678  15.798  18.271  0.00  0.00    +0.000 OA
ATOM     25  H   UNL     1      10.486  15.884  17.735  0.00  0.00    +0.000 HD
ENDBRANCH  23  24
BRANCH   1  26
ATOM     26  C   UNL     1       4.451  15.217  19.140  0.00  0.00    +0.000 C 
BRANCH  26  28
ATOM     27  C   UNL     1       3.104  16.805  17.156  0.00  0.00    +0.000 C 
ATOM     28  C   UNL     1       3.176  16.066  18.516  0.00  0.00    +0.000 C 
ENDBRANCH  26  28
ENDBRANCH   1  26
TORSDOF 3
ENDMDL
