MODEL 1
REMARK VINA RESULT:      -6.3      0.000      0.000
REMARK  Name = 
REMARK  11 active torsions:
REMARK  status: ('A' for Active; 'I' for Inactive)
REMARK    1  A    between atoms: C_1  and  C_2
REMARK    2  A    between atoms: C_4  and  C_5
REMARK    3  A    between atoms: C_5  and  C_6
REMARK    4  A    between atoms: C_5  and  C_7
REMARK    5  A    between atoms: C_5  and  C_8
REMARK    6  A    between atoms: C_11  and  O_12
REMARK    7  A    between atoms: O_12  and  C_13
REMARK    8  A    between atoms: C_13  and  C_14
REMARK    9  A    between atoms: C_14  and  N_15
REMARK   10  A    between atoms: N_15  and  C_16
REMARK   11  A    between atoms: N_15  and  C_17
REMARK                            x       y       z     vdW  Elec       q    Type
REMARK                         _______ _______ _______ _____ _____    ______ ____
ROOT
ATOM      1  C   UNL     1       2.325   7.112  18.283  0.00  0.00    +0.000 C 
ATOM      2  C   UNL     1       3.081   5.922  17.754  0.00  0.00    +0.000 A 
ATOM      3  C   UNL     1       4.451   6.127  17.477  0.00  0.00    +0.000 A 
ATOM      4  C   UNL     1       5.311   5.100  17.045  0.00  0.00    +0.000 A 
ATOM      5  C   UNL     1       4.746   3.831  16.875  0.00  0.00    +0.000 A 
ATOM      6  C   UNL     1       3.390   3.611  17.131  0.00  0.00    +0.000 A 
ATOM      7  C   UNL     1       2.540   4.646  17.551  0.00  0.00    +0.000 A 
ENDROOT
BRANCH   4   8
ATOM      8  C   UNL     1       6.803   5.398  16.814  0.00  0.00    +0.000 C 
ATOM      9  C   UNL     1       7.175   5.054  15.355  0.00  0.00    +0.000 C 
ATOM     10  C   UNL     1       7.181   6.877  17.048  0.00  0.00    +0.000 C 
ATOM     11  C   UNL     1       7.672   4.548  17.767  0.00  0.00    +0.000 C 
ENDBRANCH   4   8
BRANCH   7  12
ATOM     12  O   UNL     1       1.250   4.224  17.753  0.00  0.00    +0.000 OA
BRANCH  12  13
ATOM     13  C   UNL     1       1.104   2.972  18.415  0.00  0.00    +0.000 C 
BRANCH  13  14
ATOM     14  C   UNL     1       0.841   3.147  19.918  0.00  0.00    +0.000 C 
BRANCH  14  15
ATOM     15  N   UNL     1       2.070   3.499  20.666  0.00  0.00    +0.000 NA
ATOM     16  C   UNL     1       2.057   4.883  21.145  0.00  0.00    +0.000 C 
ATOM     17  C   UNL     1       2.261   2.588  21.793  0.00  0.00    +0.000 C 
ENDBRANCH  14  15
ENDBRANCH  13  14
ENDBRANCH  12  13
ENDBRANCH   7  12
TORSDOF 5
ENDMDL
MODEL 2
REMARK VINA RESULT:      -6.3      0.190      1.075
REMARK  Name = 
REMARK  11 active torsions:
REMARK  status: ('A' for Active; 'I' for Inactive)
REMARK    1  A    between atoms: C_1  and  C_2
REMARK    2  A    between atoms: C_4  and  C_5
REMARK    3  A    between atoms: C_5  and  C_6
REMARK    4  A    between atoms: C_5  and  C_7
REMARK    5  A    between atoms: C_5  and  C_8
REMARK    6  A    between atoms: C_11  and  O_12
REMARK    7  A    between atoms: O_12  and  C_13
REMARK    8  A    between atoms: C_13  and  C_14
REMARK    9  A    between atoms: C_14  and  N_15
REMARK   10  A    between atoms: N_15  and  C_16
REMARK   11  A    between atoms: N_15  and  C_17
REMARK                            x       y       z     vdW  Elec       q    Type
REMARK                         _______ _______ _______ _____ _____    ______ ____
ROOT
ATOM      1  C   UNL     1       2.353   7.017  18.379  0.00  0.00    +0.000 C 
ATOM      2  C   UNL     1       3.109   5.858  17.786  0.00  0.00    +0.000 A 
ATOM      3  C   UNL     1       4.478   6.078  17.519  0.00  0.00    +0.000 A 
ATOM      4  C   UNL     1       5.337   5.076  17.031  0.00  0.00    +0.000 A 
ATOM      5  C   UNL     1       4.772   3.818  16.793  0.00  0.00    +0.000 A 
ATOM      6  C   UNL     1       3.416   3.584  17.038  0.00  0.00    +0.000 A 
ATOM      7  C   UNL     1       2.567   4.594  17.515  0.00  0.00    +0.000 A 
ENDROOT
BRANCH   4   8
ATOM      8  C   UNL     1       6.829   5.386  16.815  0.00  0.00    +0.000 C 
ATOM      9  C   UNL     1       7.673   4.572  17.820  0.00  0.00    +0.000 C 
ATOM     10  C   UNL     1       7.335   5.033  15.398  0.00  0.00    +0.000 C 
ATOM     11  C   UNL     1       7.100   6.891  17.035  0.00  0.00    +0.000 C 
ENDBRANCH   4   8
BRANCH   7  12
ATOM     12  O   UNL     1       1.277   4.162  17.695  0.00  0.00    +0.000 OA
BRANCH  12  13
ATOM     13  C   UNL     1       1.126   2.957  18.439  0.00  0.00    +0.000 C 
BRANCH  13  14
ATOM     14  C   UNL     1       0.753   3.233  19.903  0.00  0.00    +0.000 C 
BRANCH  14  15
ATOM     15  N   UNL     1       1.941   3.288  20.785  0.00  0.00    +0.000 NA
ATOM     16  C   UNL     1       2.274   4.655  21.191  0.00  0.00    +0.000 C 
ATOM     17  C   UNL     1       1.738   2.456  21.970  0.00  0.00    +0.000 C 
ENDBRANCH  14  15
ENDBRANCH  13  14
ENDBRANCH  12  13
ENDBRANCH   7  12
TORSDOF 5
ENDMDL
MODEL 3
REMARK VINA RESULT:      -6.3      0.213      1.075
REMARK  Name = 
REMARK  11 active torsions:
REMARK  status: ('A' for Active; 'I' for Inactive)
REMARK    1  A    between atoms: C_1  and  C_2
REMARK    2  A    between atoms: C_4  and  C_5
REMARK    3  A    between atoms: C_5  and  C_6
REMARK    4  A    between atoms: C_5  and  C_7
REMARK    5  A    between atoms: C_5  and  C_8
REMARK    6  A    between atoms: C_11  and  O_12
REMARK    7  A    between atoms: O_12  and  C_13
REMARK    8  A    between atoms: C_13  and  C_14
REMARK    9  A    between atoms: C_14  and  N_15
REMARK   10  A    between atoms: N_15  and  C_16
REMARK   11  A    between atoms: N_15  and  C_17
REMARK                            x       y       z     vdW  Elec       q    Type
REMARK                         _______ _______ _______ _____ _____    ______ ____
ROOT
ATOM      1  C   UNL     1       2.303   6.922  18.321  0.00  0.00    +0.000 C 
ATOM      2  C   UNL     1       3.084   5.770  17.748  0.00  0.00    +0.000 A 
ATOM      3  C   UNL     1       4.459   5.999  17.523  0.00  0.00    +0.000 A 
ATOM      4  C   UNL     1       5.339   5.004  17.057  0.00  0.00    +0.000 A 
ATOM      5  C   UNL     1       4.790   3.743  16.799  0.00  0.00    +0.000 A 
ATOM      6  C   UNL     1       3.429   3.500  17.003  0.00  0.00    +0.000 A 
ATOM      7  C   UNL     1       2.558   4.504  17.456  0.00  0.00    +0.000 A 
ENDROOT
BRANCH   4   8
ATOM      8  C   UNL     1       6.835   5.324  16.888  0.00  0.00    +0.000 C 
ATOM      9  C   UNL     1       7.079   6.816  17.206  0.00  0.00    +0.000 C 
ATOM     10  C   UNL     1       7.753   4.500  17.817  0.00  0.00    +0.000 C 
ATOM     11  C   UNL     1       7.281   5.041  15.436  0.00  0.00    +0.000 C 
ENDBRANCH   4   8
BRANCH   7  12
ATOM     12  O   UNL     1       1.267   4.063  17.596  0.00  0.00    +0.000 OA
BRANCH  12  13
ATOM     13  C   UNL     1       1.079   2.967  18.486  0.00  0.00    +0.000 C 
BRANCH  13  14
ATOM     14  C   UNL     1       0.813   3.437  19.923  0.00  0.00    +0.000 C 
BRANCH  14  15
ATOM     15  N   UNL     1       2.033   3.400  20.761  0.00  0.00    +0.000 NA
ATOM     16  C   UNL     1       2.427   4.728  21.235  0.00  0.00    +0.000 C 
ATOM     17  C   UNL     1       1.843   2.505  21.903  0.00  0.00    +0.000 C 
ENDBRANCH  14  15
ENDBRANCH  13  14
ENDBRANCH  12  13
ENDBRANCH   7  12
TORSDOF 5
ENDMDL
MODEL 4
REMARK VINA RESULT:      -6.2      1.540      1.923
REMARK  Name = 
REMARK  11 active torsions:
REMARK  status: ('A' for Active; 'I' for Inactive)
REMARK    1  A    between atoms: C_1  and  C_2
REMARK    2  A    between atoms: C_4  and  C_5
REMARK    3  A    between atoms: C_5  and  C_6
REMARK    4  A    between atoms: C_5  and  C_7
REMARK    5  A    between atoms: C_5  and  C_8
REMARK    6  A    between atoms: C_11  and  O_12
REMARK    7  A    between atoms: O_12  and  C_13
REMARK    8  A    between atoms: C_13  and  C_14
REMARK    9  A    between atoms: C_14  and  N_15
REMARK   10  A    between atoms: N_15  and  C_16
REMARK   11  A    between atoms: N_15  and  C_17
REMARK                            x       y       z     vdW  Elec       q    Type
REMARK                         _______ _______ _______ _____ _____    ______ ____
ROOT
ATOM      1  C   UNL     1       2.244   8.008  17.629  0.00  0.00    +0.000 C 
ATOM      2  C   UNL     1       3.182   6.966  18.178  0.00  0.00    +0.000 A 
ATOM      3  C   UNL     1       4.405   6.804  17.490  0.00  0.00    +0.000 A 
ATOM      4  C   UNL     1       5.417   5.923  17.917  0.00  0.00    +0.000 A 
ATOM      5  C   UNL     1       5.159   5.174  19.070  0.00  0.00    +0.000 A 
ATOM      6  C   UNL     1       3.949   5.309  19.756  0.00  0.00    +0.000 A 
ATOM      7  C   UNL     1       2.944   6.183  19.316  0.00  0.00    +0.000 A 
ENDROOT
BRANCH   4   8
ATOM      8  C   UNL     1       6.741   5.845  17.137  0.00  0.00    +0.000 C 
ATOM      9  C   UNL     1       6.442   5.612  15.640  0.00  0.00    +0.000 C 
ATOM     10  C   UNL     1       7.596   7.128  17.241  0.00  0.00    +0.000 C 
ATOM     11  C   UNL     1       7.605   4.677  17.664  0.00  0.00    +0.000 C 
ENDBRANCH   4   8
BRANCH   7  12
ATOM     12  O   UNL     1       1.838   6.174  20.129  0.00  0.00    +0.000 OA
BRANCH  12  13
ATOM     13  C   UNL     1       1.654   4.997  20.909  0.00  0.00    +0.000 C 
BRANCH  13  14
ATOM     14  C   UNL     1       0.847   3.931  20.153  0.00  0.00    +0.000 C 
BRANCH  14  15
ATOM     15  N   UNL     1       1.364   2.564  20.386  0.00  0.00    +0.000 NA
ATOM     16  C   UNL     1       2.093   2.037  19.230  0.00  0.00    +0.000 C 
ATOM     17  C   UNL     1       2.227   2.538  21.567  0.00  0.00    +0.000 C 
ENDBRANCH  14  15
ENDBRANCH  13  14
ENDBRANCH  12  13
ENDBRANCH   7  12
TORSDOF 5
ENDMDL
MODEL 5
REMARK VINA RESULT:      -6.2      0.853      1.035
REMARK  Name = 
REMARK  11 active torsions:
REMARK  status: ('A' for Active; 'I' for Inactive)
REMARK    1  A    between atoms: C_1  and  C_2
REMARK    2  A    between atoms: C_4  and  C_5
REMARK    3  A    between atoms: C_5  and  C_6
REMARK    4  A    between atoms: C_5  and  C_7
REMARK    5  A    between atoms: C_5  and  C_8
REMARK    6  A    between atoms: C_11  and  O_12
REMARK    7  A    between atoms: O_12  and  C_13
REMARK    8  A    between atoms: C_13  and  C_14
REMARK    9  A    between atoms: C_14  and  N_15
REMARK   10  A    between atoms: N_15  and  C_16
REMARK   11  A    between atoms: N_15  and  C_17
REMARK                            x       y       z     vdW  Elec       q    Type
REMARK                         _______ _______ _______ _____ _____    ______ ____
ROOT
ATOM      1  C   UNL     1       2.547   6.622  19.416  0.00  0.00    +0.000 C 
ATOM      2  C   UNL     1       3.171   5.674  18.428  0.00  0.00    +0.000 A 
ATOM      3  C   UNL     1       4.513   5.936  18.075  0.00  0.00    +0.000 A 
ATOM      4  C   UNL     1       5.260   5.104  17.219  0.00  0.00    +0.000 A 
ATOM      5  C   UNL     1       4.607   3.982  16.697  0.00  0.00    +0.000 A 
ATOM      6  C   UNL     1       3.275   3.713  17.024  0.00  0.00    +0.000 A 
ATOM      7  C   UNL     1       2.537   4.555  17.870  0.00  0.00    +0.000 A 
ENDROOT
BRANCH   4   8
ATOM      8  C   UNL     1       6.734   5.436  16.926  0.00  0.00    +0.000 C 
ATOM      9  C   UNL     1       7.040   5.143  15.440  0.00  0.00    +0.000 C 
ATOM     10  C   UNL     1       7.099   6.914  17.187  0.00  0.00    +0.000 C 
ATOM     11  C   UNL     1       7.663   4.573  17.809  0.00  0.00    +0.000 C 
ENDBRANCH   4   8
BRANCH   7  12
ATOM     12  O   UNL     1       1.253   4.114  18.070  0.00  0.00    +0.000 OA
BRANCH  12  13
ATOM     13  C   UNL     1       0.961   3.630  19.377  0.00  0.00    +0.000 C 
BRANCH  13  14
ATOM     14  C   UNL     1       1.685   2.308  19.671  0.00  0.00    +0.000 C 
BRANCH  14  15
ATOM     15  N   UNL     1       2.605   2.417  20.826  0.00  0.00    +0.000 NA
ATOM     16  C   UNL     1       4.008   2.511  20.416  0.00  0.00    +0.000 C 
ATOM     17  C   UNL     1       2.253   3.570  21.654  0.00  0.00    +0.000 C 
ENDBRANCH  14  15
ENDBRANCH  13  14
ENDBRANCH  12  13
ENDBRANCH   7  12
TORSDOF 5
ENDMDL
MODEL 6
REMARK VINA RESULT:      -6.2      2.197      5.278
REMARK  Name = 
REMARK  11 active torsions:
REMARK  status: ('A' for Active; 'I' for Inactive)
REMARK    1  A    between atoms: C_1  and  C_2
REMARK    2  A    between atoms: C_4  and  C_5
REMARK    3  A    between atoms: C_5  and  C_6
REMARK    4  A    between atoms: C_5  and  C_7
REMARK    5  A    between atoms: C_5  and  C_8
REMARK    6  A    between atoms: C_11  and  O_12
REMARK    7  A    between atoms: O_12  and  C_13
REMARK    8  A    between atoms: C_13  and  C_14
REMARK    9  A    between atoms: C_14  and  N_15
REMARK   10  A    between atoms: N_15  and  C_16
REMARK   11  A    between atoms: N_15  and  C_17
REMARK                            x       y       z     vdW  Elec       q    Type
REMARK                         _______ _______ _______ _____ _____    ______ ____
ROOT
ATOM      1  C   UNL     1       4.063   7.212  17.277  0.00  0.00    +0.000 C 
ATOM      2  C   UNL     1       3.960   5.724  17.484  0.00  0.00    +0.000 A 
ATOM      3  C   UNL     1       3.112   5.297  18.530  0.00  0.00    +0.000 A 
ATOM      4  C   UNL     1       2.854   3.942  18.807  0.00  0.00    +0.000 A 
ATOM      5  C   UNL     1       3.497   2.997  17.999  0.00  0.00    +0.000 A 
ATOM      6  C   UNL     1       4.351   3.399  16.969  0.00  0.00    +0.000 A 
ATOM      7  C   UNL     1       4.609   4.754  16.708  0.00  0.00    +0.000 A 
ENDROOT
BRANCH   4   8
ATOM      8  C   UNL     1       1.876   3.564  19.934  0.00  0.00    +0.000 C 
ATOM      9  C   UNL     1       2.630   2.765  21.020  0.00  0.00    +0.000 C 
ATOM     10  C   UNL     1       1.230   4.785  20.626  0.00  0.00    +0.000 C 
ATOM     11  C   UNL     1       0.728   2.694  19.377  0.00  0.00    +0.000 C 
ENDBRANCH   4   8
BRANCH   7  12
ATOM     12  O   UNL     1       5.467   4.938  15.654  0.00  0.00    +0.000 OA
BRANCH  12  13
ATOM     13  C   UNL     1       6.776   5.387  15.992  0.00  0.00    +0.000 C 
BRANCH  13  14
ATOM     14  C   UNL     1       7.320   4.673  17.238  0.00  0.00    +0.000 C 
BRANCH  14  15
ATOM     15  N   UNL     1       7.748   5.624  18.289  0.00  0.00    +0.000 NA
ATOM     16  C   UNL     1       7.671   7.018  17.846  0.00  0.00    +0.000 C 
ATOM     17  C   UNL     1       6.946   5.445  19.499  0.00  0.00    +0.000 C 
ENDBRANCH  14  15
ENDBRANCH  13  14
ENDBRANCH  12  13
ENDBRANCH   7  12
TORSDOF 5
ENDMDL
MODEL 7
REMARK VINA RESULT:      -6.0      0.778      1.163
REMARK  Name = 
REMARK  11 active torsions:
REMARK  status: ('A' for Active; 'I' for Inactive)
REMARK    1  A    between atoms: C_1  and  C_2
REMARK    2  A    between atoms: C_4  and  C_5
REMARK    3  A    between atoms: C_5  and  C_6
REMARK    4  A    between atoms: C_5  and  C_7
REMARK    5  A    between atoms: C_5  and  C_8
REMARK    6  A    between atoms: C_11  and  O_12
REMARK    7  A    between atoms: O_12  and  C_13
REMARK    8  A    between atoms: C_13  and  C_14
REMARK    9  A    between atoms: C_14  and  N_15
REMARK   10  A    between atoms: N_15  and  C_16
REMARK   11  A    between atoms: N_15  and  C_17
REMARK                            x       y       z     vdW  Elec       q    Type
REMARK                         _______ _______ _______ _____ _____    ______ ____
ROOT
ATOM      1  C   UNL     1       2.197   7.113  18.505  0.00  0.00    +0.000 C 
ATOM      2  C   UNL     1       3.091   5.981  18.074  0.00  0.00    +0.000 A 
ATOM      3  C   UNL     1       4.480   6.240  18.097  0.00  0.00    +0.000 A 
ATOM      4  C   UNL     1       5.450   5.267  17.790  0.00  0.00    +0.000 A 
ATOM      5  C   UNL     1       4.982   3.998  17.433  0.00  0.00    +0.000 A 
ATOM      6  C   UNL     1       3.611   3.726  17.391  0.00  0.00    +0.000 A 
ATOM      7  C   UNL     1       2.653   4.707  17.689  0.00  0.00    +0.000 A 
ENDROOT
BRANCH   4   8
ATOM      8  C   UNL     1       6.944   5.620  17.889  0.00  0.00    +0.000 C 
ATOM      9  C   UNL     1       7.775   4.535  17.169  0.00  0.00    +0.000 C 
ATOM     10  C   UNL     1       7.303   6.977  17.245  0.00  0.00    +0.000 C 
ATOM     11  C   UNL     1       7.382   5.687  19.369  0.00  0.00    +0.000 C 
ENDBRANCH   4   8
BRANCH   7  12
ATOM     12  O   UNL     1       1.367   4.239  17.595  0.00  0.00    +0.000 OA
BRANCH  12  13
ATOM     13  C   UNL     1       1.042   3.146  18.449  0.00  0.00    +0.000 C 
BRANCH  13  14
ATOM     14  C   UNL     1       0.596   3.621  19.840  0.00  0.00    +0.000 C 
BRANCH  14  15
ATOM     15  N   UNL     1       1.579   3.277  20.893  0.00  0.00    +0.000 NA
ATOM     16  C   UNL     1       2.531   2.254  20.457  0.00  0.00    +0.000 C 
ATOM     17  C   UNL     1       2.302   4.471  21.328  0.00  0.00    +0.000 C 
ENDBRANCH  14  15
ENDBRANCH  13  14
ENDBRANCH  12  13
ENDBRANCH   7  12
TORSDOF 5
ENDMDL
MODEL 8
REMARK VINA RESULT:      -6.0      2.200      5.327
REMARK  Name = 
REMARK  11 active torsions:
REMARK  status: ('A' for Active; 'I' for Inactive)
REMARK    1  A    between atoms: C_1  and  C_2
REMARK    2  A    between atoms: C_4  and  C_5
REMARK    3  A    between atoms: C_5  and  C_6
REMARK    4  A    between atoms: C_5  and  C_7
REMARK    5  A    between atoms: C_5  and  C_8
REMARK    6  A    between atoms: C_11  and  O_12
REMARK    7  A    between atoms: O_12  and  C_13
REMARK    8  A    between atoms: C_13  and  C_14
REMARK    9  A    between atoms: C_14  and  N_15
REMARK   10  A    between atoms: N_15  and  C_16
REMARK   11  A    between atoms: N_15  and  C_17
REMARK                            x       y       z     vdW  Elec       q    Type
REMARK                         _______ _______ _______ _____ _____    ______ ____
ROOT
ATOM      1  C   UNL     1       4.105   7.052  16.960  0.00  0.00    +0.000 C 
ATOM      2  C   UNL     1       3.967   5.621  17.408  0.00  0.00    +0.000 A 
ATOM      3  C   UNL     1       3.107   5.391  18.504  0.00  0.00    +0.000 A 
ATOM      4  C   UNL     1       2.817   4.105  18.998  0.00  0.00    +0.000 A 
ATOM      5  C   UNL     1       3.441   3.026  18.362  0.00  0.00    +0.000 A 
ATOM      6  C   UNL     1       4.306   3.235  17.284  0.00  0.00    +0.000 A 
ATOM      7  C   UNL     1       4.596   4.522  16.807  0.00  0.00    +0.000 A 
ENDROOT
BRANCH   4   8
ATOM      8  C   UNL     1       1.827   3.940  20.166  0.00  0.00    +0.000 C 
ATOM      9  C   UNL     1       1.387   5.333  20.666  0.00  0.00    +0.000 C 
ATOM     10  C   UNL     1       0.548   3.162  19.785  0.00  0.00    +0.000 C 
ATOM     11  C   UNL     1       2.496   3.176  21.330  0.00  0.00    +0.000 C 
ENDBRANCH   4   8
BRANCH   7  12
ATOM     12  O   UNL     1       5.461   4.511  15.742  0.00  0.00    +0.000 OA
BRANCH  12  13
ATOM     13  C   UNL     1       6.700   5.183  15.945  0.00  0.00    +0.000 C 
BRANCH  13  14
ATOM     14  C   UNL     1       7.458   4.630  17.161  0.00  0.00    +0.000 C 
BRANCH  14  15
ATOM     15  N   UNL     1       7.767   5.682  18.156  0.00  0.00    +0.000 NA
ATOM     16  C   UNL     1       7.577   7.032  17.621  0.00  0.00    +0.000 C 
ATOM     17  C   UNL     1       6.951   5.507  19.357  0.00  0.00    +0.000 C 
ENDBRANCH  14  15
ENDBRANCH  13  14
ENDBRANCH  12  13
ENDBRANCH   7  12
TORSDOF 5
ENDMDL
MODEL 9
REMARK VINA RESULT:      -6.0      3.127      6.352
REMARK  Name = 
REMARK  11 active torsions:
REMARK  status: ('A' for Active; 'I' for Inactive)
REMARK    1  A    between atoms: C_1  and  C_2
REMARK    2  A    between atoms: C_4  and  C_5
REMARK    3  A    between atoms: C_5  and  C_6
REMARK    4  A    between atoms: C_5  and  C_7
REMARK    5  A    between atoms: C_5  and  C_8
REMARK    6  A    between atoms: C_11  and  O_12
REMARK    7  A    between atoms: O_12  and  C_13
REMARK    8  A    between atoms: C_13  and  C_14
REMARK    9  A    between atoms: C_14  and  N_15
REMARK   10  A    between atoms: N_15  and  C_16
REMARK   11  A    between atoms: N_15  and  C_17
REMARK                            x       y       z     vdW  Elec       q    Type
REMARK                         _______ _______ _______ _____ _____    ______ ____
ROOT
ATOM      1  C   UNL     1       6.557   5.490  19.311  0.00  0.00    +0.000 C 
ATOM      2  C   UNL     1       5.346   4.829  18.709  0.00  0.00    +0.000 A 
ATOM      3  C   UNL     1       4.283   4.549  19.595  0.00  0.00    +0.000 A 
ATOM      4  C   UNL     1       3.057   3.998  19.176  0.00  0.00    +0.000 A 
ATOM      5  C   UNL     1       2.925   3.709  17.813  0.00  0.00    +0.000 A 
ATOM      6  C   UNL     1       3.971   3.965  16.923  0.00  0.00    +0.000 A 
ATOM      7  C   UNL     1       5.193   4.505  17.353  0.00  0.00    +0.000 A 
ENDROOT
BRANCH   4   8
ATOM      8  C   UNL     1       1.931   3.772  20.200  0.00  0.00    +0.000 C 
ATOM      9  C   UNL     1       0.830   2.892  19.566  0.00  0.00    +0.000 C 
ATOM     10  C   UNL     1       2.401   3.062  21.489  0.00  0.00    +0.000 C 
ATOM     11  C   UNL     1       1.312   5.123  20.623  0.00  0.00    +0.000 C 
ENDBRANCH   4   8
BRANCH   7  12
ATOM     12  O   UNL     1       6.085   4.686  16.327  0.00  0.00    +0.000 OA
BRANCH  12  13
ATOM     13  C   UNL     1       6.036   3.714  15.287  0.00  0.00    +0.000 C 
BRANCH  13  14
ATOM     14  C   UNL     1       5.755   4.354  13.919  0.00  0.00    +0.000 C 
BRANCH  14  15
ATOM     15  N   UNL     1       6.184   3.491  12.796  0.00  0.00    +0.000 NA
ATOM     16  C   UNL     1       5.071   3.123  11.917  0.00  0.00    +0.000 C 
ATOM     17  C   UNL     1       7.232   4.148  12.016  0.00  0.00    +0.000 C 
ENDBRANCH  14  15
ENDBRANCH  13  14
ENDBRANCH  12  13
ENDBRANCH   7  12
TORSDOF 5
ENDMDL
