MODEL 1
REMARK VINA RESULT:      -7.4      0.000      0.000
REMARK  Name = 
REMARK  4 active torsions:
REMARK  status: ('A' for Active; 'I' for Inactive)
REMARK    1  A    between atoms: C_1  and  C_2
REMARK    2  A    between atoms: C_8  and  C_9
REMARK    3  A    between atoms: C_15  and  C_17
REMARK    4  A    between atoms: C_28  and  C_29
REMARK                            x       y       z     vdW  Elec       q    Type
REMARK                         _______ _______ _______ _____ _____    ______ ____
ROOT
ATOM      1  C   UNL     1       0.747  12.375  20.389  0.00  0.00    +0.000 C 
ATOM      2  O   UNL     1       1.022  11.899  21.493  0.00  0.00    +0.000 OA
ATOM      3  N   UNL     1       1.533  13.433  19.889  0.00  0.00    +0.000 N 
ATOM      4  C   UNL     1       1.267  14.178  18.645  0.00  0.00    +0.000 C 
ATOM      5  C   UNL     1       1.706  15.641  18.707  0.00  0.00    +0.000 C 
ATOM      6  N   UNL     1       3.074  15.760  19.203  0.00  0.00    +0.000 N 
ATOM      7  C   UNL     1       3.918  16.659  18.554  0.00  0.00    +0.000 C 
ATOM      8  O   UNL     1       3.493  17.342  17.622  0.00  0.00    +0.000 OA
ATOM      9  C   UNL     1       3.255  15.131  20.522  0.00  0.00    +0.000 C 
ATOM     10  C   UNL     1       2.868  13.644  20.469  0.00  0.00    +0.000 C 
ENDROOT
BRANCH   1  18
ATOM     11  C   UNL     1      -4.985  12.266  19.071  0.00  0.00    +0.000 C 
ATOM     12  C   UNL     1      -3.923  11.497  18.335  0.00  0.00    +0.000 A 
ATOM     13  C   UNL     1      -4.314  10.692  17.249  0.00  0.00    +0.000 A 
ATOM     14  C   UNL     1      -3.374   9.931  16.583  0.00  0.00    +0.000 A 
ATOM     15  N   UNL     1      -2.082   9.844  16.921  0.00  0.00    +0.000 NA
ATOM     16  C   UNL     1      -1.737  10.612  17.972  0.00  0.00    +0.000 A 
ATOM     17  S   UNL     1      -0.198  10.458  18.642  0.00  0.00    +0.000 S 
ATOM     18  C   UNL     1      -0.390  11.861  19.612  0.00  0.00    +0.000 A 
ATOM     19  C   UNL     1      -1.740  12.228  19.668  0.00  0.00    +0.000 A 
ATOM     20  C   UNL     1      -2.314  13.261  20.594  0.00  0.00    +0.000 C 
ATOM     21  C   UNL     1      -2.541  11.496  18.685  0.00  0.00    +0.000 A 
ENDBRANCH   1  18
BRANCH   7  22
ATOM     22  C   UNL     1       5.290  16.756  18.973  0.00  0.00    +0.000 A 
ATOM     23  N   UNL     1       5.799  17.644  19.880  0.00  0.00    +0.000 N 
ATOM     24  N   UNL     1       7.126  17.569  20.085  0.00  0.00    +0.000 NA
ATOM     25  C   UNL     1       7.506  16.481  19.400  0.00  0.00    +0.000 A 
ATOM     26  C   UNL     1       8.769  15.873  19.302  0.00  0.00    +0.000 A 
ATOM     27  C   UNL     1       8.778  14.703  18.510  0.00  0.00    +0.000 A 
ATOM     28  C   UNL     1       7.621  14.186  17.850  0.00  0.00    +0.000 A 
ATOM     29  C   UNL     1       6.350  14.793  17.910  0.00  0.00    +0.000 A 
ATOM     30  C   UNL     1       6.365  15.937  18.704  0.00  0.00    +0.000 A 
ATOM     31  H   UNL     1       5.287  18.354  20.391  0.00  0.00    +0.000 HD
ENDBRANCH   7  22
TORSDOF 2
ENDMDL
MODEL 2
REMARK VINA RESULT:      -7.2      6.308      8.264
REMARK  Name = 
REMARK  4 active torsions:
REMARK  status: ('A' for Active; 'I' for Inactive)
REMARK    1  A    between atoms: C_1  and  C_2
REMARK    2  A    between atoms: C_8  and  C_9
REMARK    3  A    between atoms: C_15  and  C_17
REMARK    4  A    between atoms: C_28  and  C_29
REMARK                            x       y       z     vdW  Elec       q    Type
REMARK                         _______ _______ _______ _____ _____    ______ ____
ROOT
ATOM      1  C   UNL     1       1.098  10.283  18.680  0.00  0.00    +0.000 C 
ATOM      2  O   UNL     1       1.287  10.851  17.601  0.00  0.00    +0.000 OA
ATOM      3  N   UNL     1       1.773   9.072  18.939  0.00  0.00    +0.000 N 
ATOM      4  C   UNL     1       1.571   8.220  20.125  0.00  0.00    +0.000 C 
ATOM      5  C   UNL     1       1.764   6.731  19.845  0.00  0.00    +0.000 C 
ATOM      6  N   UNL     1       3.014   6.487  19.131  0.00  0.00    +0.000 N 
ATOM      7  C   UNL     1       3.791   5.406  19.544  0.00  0.00    +0.000 C 
ATOM      8  O   UNL     1       3.399   4.677  20.454  0.00  0.00    +0.000 OA
ATOM      9  C   UNL     1       3.105   7.245  17.872  0.00  0.00    +0.000 C 
ATOM     10  C   UNL     1       2.964   8.753  18.138  0.00  0.00    +0.000 C 
ENDROOT
BRANCH   1  18
ATOM     11  C   UNL     1      -4.048  12.721  20.154  0.00  0.00    +0.000 C 
ATOM     12  C   UNL     1      -2.979  12.322  21.133  0.00  0.00    +0.000 A 
ATOM     13  C   UNL     1      -3.215  12.538  22.503  0.00  0.00    +0.000 A 
ATOM     14  C   UNL     1      -2.234  12.232  23.427  0.00  0.00    +0.000 A 
ATOM     15  N   UNL     1      -1.012  11.779  23.122  0.00  0.00    +0.000 NA
ATOM     16  C   UNL     1      -0.807  11.595  21.805  0.00  0.00    +0.000 A 
ATOM     17  S   UNL     1       0.741  11.224  21.249  0.00  0.00    +0.000 S 
ATOM     18  C   UNL     1       0.174  10.847  19.674  0.00  0.00    +0.000 A 
ATOM     19  C   UNL     1      -1.126  11.335  19.498  0.00  0.00    +0.000 A 
ATOM     20  C   UNL     1      -1.856  11.390  18.188  0.00  0.00    +0.000 C 
ATOM     21  C   UNL     1      -1.716  11.768  20.766  0.00  0.00    +0.000 A 
ENDBRANCH   1  18
BRANCH   7  22
ATOM     22  C   UNL     1       5.059   5.173  18.907  0.00  0.00    +0.000 A 
ATOM     23  N   UNL     1       6.284   5.181  19.514  0.00  0.00    +0.000 N 
ATOM     24  N   UNL     1       7.336   4.974  18.703  0.00  0.00    +0.000 NA
ATOM     25  C   UNL     1       6.786   4.661  17.520  0.00  0.00    +0.000 A 
ATOM     26  C   UNL     1       7.398   4.280  16.314  0.00  0.00    +0.000 A 
ATOM     27  C   UNL     1       6.482   3.986  15.280  0.00  0.00    +0.000 A 
ATOM     28  C   UNL     1       5.064   4.080  15.428  0.00  0.00    +0.000 A 
ATOM     29  C   UNL     1       4.428   4.487  16.618  0.00  0.00    +0.000 A 
ATOM     30  C   UNL     1       5.351   4.761  17.624  0.00  0.00    +0.000 A 
ATOM     31  H   UNL     1       6.476   5.343  20.495  0.00  0.00    +0.000 HD
ENDBRANCH   7  22
TORSDOF 2
ENDMDL
MODEL 3
REMARK VINA RESULT:      -7.1      1.303      1.816
REMARK  Name = 
REMARK  4 active torsions:
REMARK  status: ('A' for Active; 'I' for Inactive)
REMARK    1  A    between atoms: C_1  and  C_2
REMARK    2  A    between atoms: C_8  and  C_9
REMARK    3  A    between atoms: C_15  and  C_17
REMARK    4  A    between atoms: C_28  and  C_29
REMARK                            x       y       z     vdW  Elec       q    Type
REMARK                         _______ _______ _______ _____ _____    ______ ____
ROOT
ATOM      1  C   UNL     1       0.298  12.437  20.763  0.00  0.00    +0.000 C 
ATOM      2  O   UNL     1       0.553  11.855  21.821  0.00  0.00    +0.000 OA
ATOM      3  N   UNL     1       1.206  13.402  20.282  0.00  0.00    +0.000 N 
ATOM      4  C   UNL     1       0.993  14.258  19.101  0.00  0.00    +0.000 C 
ATOM      5  C   UNL     1       1.644  15.636  19.223  0.00  0.00    +0.000 C 
ATOM      6  N   UNL     1       3.037  15.525  19.647  0.00  0.00    +0.000 N 
ATOM      7  C   UNL     1       3.972  16.334  19.004  0.00  0.00    +0.000 C 
ATOM      8  O   UNL     1       3.608  17.131  18.140  0.00  0.00    +0.000 OA
ATOM      9  C   UNL     1       3.187  14.791  20.914  0.00  0.00    +0.000 C 
ATOM     10  C   UNL     1       2.584  13.381  20.797  0.00  0.00    +0.000 C 
ENDROOT
BRANCH   1  18
ATOM     11  C   UNL     1      -2.620   9.699  16.452  0.00  0.00    +0.000 C 
ATOM     12  C   UNL     1      -3.260  10.556  17.508  0.00  0.00    +0.000 A 
ATOM     13  C   UNL     1      -4.657  10.721  17.477  0.00  0.00    +0.000 A 
ATOM     14  C   UNL     1      -5.274  11.544  18.400  0.00  0.00    +0.000 A 
ATOM     15  N   UNL     1      -4.634  12.268  19.325  0.00  0.00    +0.000 NA
ATOM     16  C   UNL     1      -3.298  12.105  19.324  0.00  0.00    +0.000 A 
ATOM     17  S   UNL     1      -2.339  13.097  20.292  0.00  0.00    +0.000 S 
ATOM     18  C   UNL     1      -0.938  12.144  20.024  0.00  0.00    +0.000 A 
ATOM     19  C   UNL     1      -1.137  11.285  18.937  0.00  0.00    +0.000 A 
ATOM     20  C   UNL     1      -0.065  10.470  18.274  0.00  0.00    +0.000 C 
ATOM     21  C   UNL     1      -2.543  11.251  18.527  0.00  0.00    +0.000 A 
ENDBRANCH   1  18
BRANCH   7  22
ATOM     22  C   UNL     1       5.362  16.206  19.349  0.00  0.00    +0.000 A 
ATOM     23  N   UNL     1       5.995  16.813  20.399  0.00  0.00    +0.000 N 
ATOM     24  N   UNL     1       7.314  16.571  20.500  0.00  0.00    +0.000 NA
ATOM     25  C   UNL     1       7.552  15.637  19.567  0.00  0.00    +0.000 A 
ATOM     26  C   UNL     1       8.740  14.953  19.259  0.00  0.00    +0.000 A 
ATOM     27  C   UNL     1       8.596  13.999  18.227  0.00  0.00    +0.000 A 
ATOM     28  C   UNL     1       7.367  13.755  17.541  0.00  0.00    +0.000 A 
ATOM     29  C   UNL     1       6.169  14.448  17.812  0.00  0.00    +0.000 A 
ATOM     30  C   UNL     1       6.335  15.374  18.839  0.00  0.00    +0.000 A 
ATOM     31  H   UNL     1       5.580  17.432  21.085  0.00  0.00    +0.000 HD
ENDBRANCH   7  22
TORSDOF 2
ENDMDL
MODEL 4
REMARK VINA RESULT:      -6.9      5.170      8.073
REMARK  Name = 
REMARK  4 active torsions:
REMARK  status: ('A' for Active; 'I' for Inactive)
REMARK    1  A    between atoms: C_1  and  C_2
REMARK    2  A    between atoms: C_8  and  C_9
REMARK    3  A    between atoms: C_15  and  C_17
REMARK    4  A    between atoms: C_28  and  C_29
REMARK                            x       y       z     vdW  Elec       q    Type
REMARK                         _______ _______ _______ _____ _____    ______ ____
ROOT
ATOM      1  C   UNL     1       0.102  12.554  19.312  0.00  0.00    +0.000 C 
ATOM      2  O   UNL     1       0.033  13.091  18.203  0.00  0.00    +0.000 OA
ATOM      3  N   UNL     1       0.630  11.251  19.406  0.00  0.00    +0.000 N 
ATOM      4  C   UNL     1       0.676  10.436  20.634  0.00  0.00    +0.000 C 
ATOM      5  C   UNL     1       0.544   8.936  20.374  0.00  0.00    +0.000 C 
ATOM      6  N   UNL     1       1.459   8.500  19.324  0.00  0.00    +0.000 N 
ATOM      7  C   UNL     1       2.151   7.307  19.527  0.00  0.00    +0.000 C 
ATOM      8  O   UNL     1       1.953   6.645  20.545  0.00  0.00    +0.000 OA
ATOM      9  C   UNL     1       1.272   9.240  18.065  0.00  0.00    +0.000 C 
ATOM     10  C   UNL     1       1.453  10.750  18.294  0.00  0.00    +0.000 C 
ENDROOT
BRANCH   1  18
ATOM     11  C   UNL     1      -4.178  14.117  23.033  0.00  0.00    +0.000 C 
ATOM     12  C   UNL     1      -2.720  14.429  23.226  0.00  0.00    +0.000 A 
ATOM     13  C   UNL     1      -2.337  15.142  24.378  0.00  0.00    +0.000 A 
ATOM     14  C   UNL     1      -1.014  15.492  24.562  0.00  0.00    +0.000 A 
ATOM     15  N   UNL     1      -0.030  15.250  23.688  0.00  0.00    +0.000 NA
ATOM     16  C   UNL     1      -0.425  14.581  22.588  0.00  0.00    +0.000 A 
ATOM     17  S   UNL     1       0.652  14.381  21.307  0.00  0.00    +0.000 S 
ATOM     18  C   UNL     1      -0.372  13.254  20.515  0.00  0.00    +0.000 A 
ATOM     19  C   UNL     1      -1.660  13.305  21.060  0.00  0.00    +0.000 A 
ATOM     20  C   UNL     1      -2.869  12.630  20.480  0.00  0.00    +0.000 C 
ATOM     21  C   UNL     1      -1.692  14.083  22.301  0.00  0.00    +0.000 A 
ENDBRANCH   1  18
BRANCH   7  22
ATOM     22  C   UNL     1       3.109   6.879  18.544  0.00  0.00    +0.000 A 
ATOM     23  N   UNL     1       4.125   7.631  18.022  0.00  0.00    +0.000 N 
ATOM     24  N   UNL     1       4.874   7.025  17.084  0.00  0.00    +0.000 NA
ATOM     25  C   UNL     1       4.439   5.756  17.082  0.00  0.00    +0.000 A 
ATOM     26  C   UNL     1       4.899   4.647  16.352  0.00  0.00    +0.000 A 
ATOM     27  C   UNL     1       4.213   3.448  16.647  0.00  0.00    +0.000 A 
ATOM     28  C   UNL     1       3.138   3.361  17.584  0.00  0.00    +0.000 A 
ATOM     29  C   UNL     1       2.640   4.464  18.307  0.00  0.00    +0.000 A 
ATOM     30  C   UNL     1       3.339   5.631  18.006  0.00  0.00    +0.000 A 
ATOM     31  H   UNL     1       4.354   8.590  18.255  0.00  0.00    +0.000 HD
ENDBRANCH   7  22
TORSDOF 2
ENDMDL
MODEL 5
REMARK VINA RESULT:      -6.8      0.850      1.021
REMARK  Name = 
REMARK  4 active torsions:
REMARK  status: ('A' for Active; 'I' for Inactive)
REMARK    1  A    between atoms: C_1  and  C_2
REMARK    2  A    between atoms: C_8  and  C_9
REMARK    3  A    between atoms: C_15  and  C_17
REMARK    4  A    between atoms: C_28  and  C_29
REMARK                            x       y       z     vdW  Elec       q    Type
REMARK                         _______ _______ _______ _____ _____    ______ ____
ROOT
ATOM      1  C   UNL     1      -0.013  12.844  20.739  0.00  0.00    +0.000 C 
ATOM      2  O   UNL     1       0.271  12.351  21.834  0.00  0.00    +0.000 OA
ATOM      3  N   UNL     1       0.850  13.809  20.182  0.00  0.00    +0.000 N 
ATOM      4  C   UNL     1       0.595  14.568  18.944  0.00  0.00    +0.000 C 
ATOM      5  C   UNL     1       1.188  15.976  18.961  0.00  0.00    +0.000 C 
ATOM      6  N   UNL     1       2.586  15.954  19.379  0.00  0.00    +0.000 N 
ATOM      7  C   UNL     1       3.483  16.753  18.672  0.00  0.00    +0.000 C 
ATOM      8  O   UNL     1       3.081  17.470  17.756  0.00  0.00    +0.000 OA
ATOM      9  C   UNL     1       2.775  15.321  20.695  0.00  0.00    +0.000 C 
ATOM     10  C   UNL     1       2.230  13.882  20.685  0.00  0.00    +0.000 C 
ENDROOT
BRANCH   1  18
ATOM     11  C   UNL     1      -5.874  12.608  20.294  0.00  0.00    +0.000 C 
ATOM     12  C   UNL     1      -4.916  12.127  19.240  0.00  0.00    +0.000 A 
ATOM     13  C   UNL     1      -5.446  11.584  18.055  0.00  0.00    +0.000 A 
ATOM     14  C   UNL     1      -4.596  11.084  17.087  0.00  0.00    +0.000 A 
ATOM     15  N   UNL     1      -3.264  11.021  17.198  0.00  0.00    +0.000 NA
ATOM     16  C   UNL     1      -2.784  11.533  18.347  0.00  0.00    +0.000 A 
ATOM     17  S   UNL     1      -1.152  11.343  18.722  0.00  0.00    +0.000 S 
ATOM     18  C   UNL     1      -1.240  12.447  20.033  0.00  0.00    +0.000 A 
ATOM     19  C   UNL     1      -2.576  12.681  20.379  0.00  0.00    +0.000 A 
ATOM     20  C   UNL     1      -3.033  13.409  21.610  0.00  0.00    +0.000 C 
ATOM     21  C   UNL     1      -3.496  12.150  19.370  0.00  0.00    +0.000 A 
ENDBRANCH   1  18
BRANCH   7  22
ATOM     22  C   UNL     1       4.879  16.708  19.014  0.00  0.00    +0.000 A 
ATOM     23  N   UNL     1       5.513  17.496  19.935  0.00  0.00    +0.000 N 
ATOM     24  N   UNL     1       6.837  17.296  20.057  0.00  0.00    +0.000 NA
ATOM     25  C   UNL     1       7.081  16.220  19.294  0.00  0.00    +0.000 A 
ATOM     26  C   UNL     1       8.278  15.513  19.090  0.00  0.00    +0.000 A 
ATOM     27  C   UNL     1       8.140  14.394  18.239  0.00  0.00    +0.000 A 
ATOM     28  C   UNL     1       6.907  14.016  17.622  0.00  0.00    +0.000 A 
ATOM     29  C   UNL     1       5.700  14.726  17.789  0.00  0.00    +0.000 A 
ATOM     30  C   UNL     1       5.861  15.817  18.639  0.00  0.00    +0.000 A 
ATOM     31  H   UNL     1       5.095  18.217  20.511  0.00  0.00    +0.000 HD
ENDBRANCH   7  22
TORSDOF 2
ENDMDL
MODEL 6
REMARK VINA RESULT:      -6.7      1.665      2.428
REMARK  Name = 
REMARK  4 active torsions:
REMARK  status: ('A' for Active; 'I' for Inactive)
REMARK    1  A    between atoms: C_1  and  C_2
REMARK    2  A    between atoms: C_8  and  C_9
REMARK    3  A    between atoms: C_15  and  C_17
REMARK    4  A    between atoms: C_28  and  C_29
REMARK                            x       y       z     vdW  Elec       q    Type
REMARK                         _______ _______ _______ _____ _____    ______ ____
ROOT
ATOM      1  C   UNL     1       0.275  12.484  20.610  0.00  0.00    +0.000 C 
ATOM      2  O   UNL     1       0.630  11.876  21.624  0.00  0.00    +0.000 OA
ATOM      3  N   UNL     1       1.151  13.430  20.042  0.00  0.00    +0.000 N 
ATOM      4  C   UNL     1       0.832  14.313  18.905  0.00  0.00    +0.000 C 
ATOM      5  C   UNL     1       1.534  15.668  18.972  0.00  0.00    +0.000 C 
ATOM      6  N   UNL     1       2.962  15.510  19.233  0.00  0.00    +0.000 N 
ATOM      7  C   UNL     1       3.842  16.304  18.499  0.00  0.00    +0.000 C 
ATOM      8  O   UNL     1       3.407  17.126  17.693  0.00  0.00    +0.000 OA
ATOM      9  C   UNL     1       3.233  14.751  20.464  0.00  0.00    +0.000 C 
ATOM     10  C   UNL     1       2.577  13.361  20.397  0.00  0.00    +0.000 C 
ENDROOT
BRANCH   1  18
ATOM     11  C   UNL     1      -3.208   9.833  16.680  0.00  0.00    +0.000 C 
ATOM     12  C   UNL     1      -3.692  10.731  17.785  0.00  0.00    +0.000 A 
ATOM     13  C   UNL     1      -5.076  10.958  17.900  0.00  0.00    +0.000 A 
ATOM     14  C   UNL     1      -5.553  11.818  18.870  0.00  0.00    +0.000 A 
ATOM     15  N   UNL     1      -4.786  12.523  19.711  0.00  0.00    +0.000 NA
ATOM     16  C   UNL     1      -3.467  12.299  19.570  0.00  0.00    +0.000 A 
ATOM     17  S   UNL     1      -2.366  13.258  20.413  0.00  0.00    +0.000 S 
ATOM     18  C   UNL     1      -1.045  12.238  20.012  0.00  0.00    +0.000 A 
ATOM     19  C   UNL     1      -1.398  11.378  18.966  0.00  0.00    +0.000 A 
ATOM     20  C   UNL     1      -0.441  10.508  18.205  0.00  0.00    +0.000 C 
ATOM     21  C   UNL     1      -2.840  11.403  18.709  0.00  0.00    +0.000 A 
ENDBRANCH   1  18
BRANCH   7  22
ATOM     22  C   UNL     1       5.258  16.130  18.683  0.00  0.00    +0.000 A 
ATOM     23  N   UNL     1       6.059  15.246  18.014  0.00  0.00    +0.000 N 
ATOM     24  N   UNL     1       7.352  15.238  18.385  0.00  0.00    +0.000 NA
ATOM     25  C   UNL     1       7.458  16.269  19.236  0.00  0.00    +0.000 A 
ATOM     26  C   UNL     1       8.590  16.785  19.890  0.00  0.00    +0.000 A 
ATOM     27  C   UNL     1       8.319  17.918  20.687  0.00  0.00    +0.000 A 
ATOM     28  C   UNL     1       7.017  18.487  20.839  0.00  0.00    +0.000 A 
ATOM     29  C   UNL     1       5.862  17.971  20.216  0.00  0.00    +0.000 A 
ATOM     30  C   UNL     1       6.157  16.861  19.428  0.00  0.00    +0.000 A 
ATOM     31  H   UNL     1       5.776  14.595  17.291  0.00  0.00    +0.000 HD
ENDBRANCH   7  22
TORSDOF 2
ENDMDL
MODEL 7
REMARK VINA RESULT:      -6.7      5.905      9.503
REMARK  Name = 
REMARK  4 active torsions:
REMARK  status: ('A' for Active; 'I' for Inactive)
REMARK    1  A    between atoms: C_1  and  C_2
REMARK    2  A    between atoms: C_8  and  C_9
REMARK    3  A    between atoms: C_15  and  C_17
REMARK    4  A    between atoms: C_28  and  C_29
REMARK                            x       y       z     vdW  Elec       q    Type
REMARK                         _______ _______ _______ _____ _____    ______ ____
ROOT
ATOM      1  C   UNL     1       2.067   8.340  18.372  0.00  0.00    +0.000 C 
ATOM      2  O   UNL     1       2.242   8.903  17.288  0.00  0.00    +0.000 OA
ATOM      3  N   UNL     1       1.334   9.005  19.375  0.00  0.00    +0.000 N 
ATOM      4  C   UNL     1       1.135   8.517  20.751  0.00  0.00    +0.000 C 
ATOM      5  C   UNL     1       1.029   9.637  21.785  0.00  0.00    +0.000 C 
ATOM      6  N   UNL     1       0.074  10.656  21.361  0.00  0.00    +0.000 N 
ATOM      7  C   UNL     1      -0.805  11.155  22.322  0.00  0.00    +0.000 C 
ATOM      8  O   UNL     1      -0.735  10.762  23.486  0.00  0.00    +0.000 OA
ATOM      9  C   UNL     1       0.400  11.227  20.044  0.00  0.00    +0.000 C 
ATOM     10  C   UNL     1       0.462  10.121  18.977  0.00  0.00    +0.000 C 
ENDROOT
BRANCH   1  18
ATOM     11  C   UNL     1       6.120   4.178  17.445  0.00  0.00    +0.000 C 
ATOM     12  C   UNL     1       5.008   4.081  18.454  0.00  0.00    +0.000 A 
ATOM     13  C   UNL     1       4.923   2.918  19.241  0.00  0.00    +0.000 A 
ATOM     14  C   UNL     1       3.884   2.772  20.141  0.00  0.00    +0.000 A 
ATOM     15  N   UNL     1       2.884   3.646  20.302  0.00  0.00    +0.000 NA
ATOM     16  C   UNL     1       2.981   4.742  19.527  0.00  0.00    +0.000 A 
ATOM     17  S   UNL     1       1.699   5.834  19.467  0.00  0.00    +0.000 S 
ATOM     18  C   UNL     1       2.627   7.004  18.621  0.00  0.00    +0.000 A 
ATOM     19  C   UNL     1       3.785   6.416  18.098  0.00  0.00    +0.000 A 
ATOM     20  C   UNL     1       4.716   7.070  17.119  0.00  0.00    +0.000 C 
ATOM     21  C   UNL     1       4.005   5.076  18.645  0.00  0.00    +0.000 A 
ENDBRANCH   1  18
BRANCH   7  22
ATOM     22  C   UNL     1      -1.802  12.113  21.926  0.00  0.00    +0.000 A 
ATOM     23  N   UNL     1      -1.918  12.700  20.697  0.00  0.00    +0.000 N 
ATOM     24  N   UNL     1      -2.912  13.598  20.573  0.00  0.00    +0.000 NA
ATOM     25  C   UNL     1      -3.592  13.499  21.725  0.00  0.00    +0.000 A 
ATOM     26  C   UNL     1      -4.769  14.147  22.135  0.00  0.00    +0.000 A 
ATOM     27  C   UNL     1      -5.218  13.756  23.416  0.00  0.00    +0.000 A 
ATOM     28  C   UNL     1      -4.538  12.805  24.236  0.00  0.00    +0.000 A 
ATOM     29  C   UNL     1      -3.341  12.162  23.859  0.00  0.00    +0.000 A 
ATOM     30  C   UNL     1      -2.926  12.557  22.589  0.00  0.00    +0.000 A 
ATOM     31  H   UNL     1      -1.328  12.543  19.889  0.00  0.00    +0.000 HD
ENDBRANCH   7  22
TORSDOF 2
ENDMDL
MODEL 8
REMARK VINA RESULT:      -6.7      2.289      9.422
REMARK  Name = 
REMARK  4 active torsions:
REMARK  status: ('A' for Active; 'I' for Inactive)
REMARK    1  A    between atoms: C_1  and  C_2
REMARK    2  A    between atoms: C_8  and  C_9
REMARK    3  A    between atoms: C_15  and  C_17
REMARK    4  A    between atoms: C_28  and  C_29
REMARK                            x       y       z     vdW  Elec       q    Type
REMARK                         _______ _______ _______ _____ _____    ______ ____
ROOT
ATOM      1  C   UNL     1       2.783  15.735  19.184  0.00  0.00    +0.000 C 
ATOM      2  O   UNL     1       2.367  16.854  18.874  0.00  0.00    +0.000 OA
ATOM      3  N   UNL     1       1.851  14.704  19.420  0.00  0.00    +0.000 N 
ATOM      4  C   UNL     1       2.180  13.351  19.904  0.00  0.00    +0.000 C 
ATOM      5  C   UNL     1       1.088  12.733  20.775  0.00  0.00    +0.000 C 
ATOM      6  N   UNL     1      -0.221  12.845  20.138  0.00  0.00    +0.000 N 
ATOM      7  C   UNL     1      -1.059  11.732  20.186  0.00  0.00    +0.000 C 
ATOM      8  O   UNL     1      -0.701  10.716  20.781  0.00  0.00    +0.000 OA
ATOM      9  C   UNL     1      -0.575  14.236  19.810  0.00  0.00    +0.000 C 
ATOM     10  C   UNL     1       0.488  14.862  18.890  0.00  0.00    +0.000 C 
ENDROOT
BRANCH   1  18
ATOM     11  C   UNL     1       7.774  15.834  22.295  0.00  0.00    +0.000 C 
ATOM     12  C   UNL     1       7.634  15.240  20.921  0.00  0.00    +0.000 A 
ATOM     13  C   UNL     1       8.769  14.658  20.327  0.00  0.00    +0.000 A 
ATOM     14  C   UNL     1       8.691  14.150  19.045  0.00  0.00    +0.000 A 
ATOM     15  N   UNL     1       7.604  14.206  18.266  0.00  0.00    +0.000 NA
ATOM     16  C   UNL     1       6.537  14.780  18.852  0.00  0.00    +0.000 A 
ATOM     17  S   UNL     1       5.161  15.107  17.934  0.00  0.00    +0.000 S 
ATOM     18  C   UNL     1       4.224  15.481  19.322  0.00  0.00    +0.000 A 
ATOM     19  C   UNL     1       5.057  15.683  20.428  0.00  0.00    +0.000 A 
ATOM     20  C   UNL     1       4.615  16.241  21.750  0.00  0.00    +0.000 C 
ATOM     21  C   UNL     1       6.431  15.255  20.156  0.00  0.00    +0.000 A 
ENDBRANCH   1  18
BRANCH   7  22
ATOM     22  C   UNL     1      -2.329  11.784  19.513  0.00  0.00    +0.000 A 
ATOM     23  N   UNL     1      -3.456  12.416  19.959  0.00  0.00    +0.000 N 
ATOM     24  N   UNL     1      -4.540  12.295  19.172  0.00  0.00    +0.000 NA
ATOM     25  C   UNL     1      -4.082  11.681  18.071  0.00  0.00    +0.000 A 
ATOM     26  C   UNL     1      -4.750  11.352  16.879  0.00  0.00    +0.000 A 
ATOM     27  C   UNL     1      -3.921  10.739  15.913  0.00  0.00    +0.000 A 
ATOM     28  C   UNL     1      -2.537  10.457  16.123  0.00  0.00    +0.000 A 
ATOM     29  C   UNL     1      -1.852  10.751  17.320  0.00  0.00    +0.000 A 
ATOM     30  C   UNL     1      -2.687  11.364  18.251  0.00  0.00    +0.000 A 
ATOM     31  H   UNL     1      -3.560  12.942  20.818  0.00  0.00    +0.000 HD
ENDBRANCH   7  22
TORSDOF 2
ENDMDL
MODEL 9
REMARK VINA RESULT:      -6.7      1.684      2.288
REMARK  Name = 
REMARK  4 active torsions:
REMARK  status: ('A' for Active; 'I' for Inactive)
REMARK    1  A    between atoms: C_1  and  C_2
REMARK    2  A    between atoms: C_8  and  C_9
REMARK    3  A    between atoms: C_15  and  C_17
REMARK    4  A    between atoms: C_28  and  C_29
REMARK                            x       y       z     vdW  Elec       q    Type
REMARK                         _______ _______ _______ _____ _____    ______ ____
ROOT
ATOM      1  C   UNL     1      -0.522  11.956  19.963  0.00  0.00    +0.000 C 
ATOM      2  O   UNL     1      -0.096  11.054  20.690  0.00  0.00    +0.000 OA
ATOM      3  N   UNL     1       0.359  12.979  19.560  0.00  0.00    +0.000 N 
ATOM      4  C   UNL     1      -0.021  14.177  18.790  0.00  0.00    +0.000 C 
ATOM      5  C   UNL     1       0.816  15.410  19.130  0.00  0.00    +0.000 C 
ATOM      6  N   UNL     1       2.242  15.102  19.105  0.00  0.00    +0.000 N 
ATOM      7  C   UNL     1       3.091  16.028  18.500  0.00  0.00    +0.000 C 
ATOM      8  O   UNL     1       2.635  17.076  18.044  0.00  0.00    +0.000 OA
ATOM      9  C   UNL     1       2.600  13.995  20.008  0.00  0.00    +0.000 C 
ATOM     10  C   UNL     1       1.806  12.727  19.649  0.00  0.00    +0.000 C 
ENDROOT
BRANCH   1  18
ATOM     11  C   UNL     1      -6.226  12.950  21.005  0.00  0.00    +0.000 C 
ATOM     12  C   UNL     1      -5.656  12.554  19.672  0.00  0.00    +0.000 A 
ATOM     13  C   UNL     1      -6.538  12.411  18.585  0.00  0.00    +0.000 A 
ATOM     14  C   UNL     1      -6.058  11.997  17.358  0.00  0.00    +0.000 A 
ATOM     15  N   UNL     1      -4.788  11.657  17.110  0.00  0.00    +0.000 NA
ATOM     16  C   UNL     1      -3.967  11.788  18.169  0.00  0.00    +0.000 A 
ATOM     17  S   UNL     1      -2.387  11.208  18.072  0.00  0.00    +0.000 S 
ATOM     18  C   UNL     1      -1.929  11.974  19.538  0.00  0.00    +0.000 A 
ATOM     19  C   UNL     1      -3.065  12.372  20.251  0.00  0.00    +0.000 A 
ATOM     20  C   UNL     1      -3.064  12.868  21.668  0.00  0.00    +0.000 C 
ATOM     21  C   UNL     1      -4.277  12.275  19.435  0.00  0.00    +0.000 A 
ENDBRANCH   1  18
BRANCH   7  22
ATOM     22  C   UNL     1       4.494  15.729  18.400  0.00  0.00    +0.000 A 
ATOM     23  N   UNL     1       5.067  14.807  17.568  0.00  0.00    +0.000 N 
ATOM     24  N   UNL     1       6.402  14.677  17.678  0.00  0.00    +0.000 NA
ATOM     25  C   UNL     1       6.763  15.662  18.514  0.00  0.00    +0.000 A 
ATOM     26  C   UNL     1       8.041  16.055  18.945  0.00  0.00    +0.000 A 
ATOM     27  C   UNL     1       8.033  17.176  19.804  0.00  0.00    +0.000 A 
ATOM     28  C   UNL     1       6.841  17.845  20.220  0.00  0.00    +0.000 A 
ATOM     29  C   UNL     1       5.546  17.452  19.824  0.00  0.00    +0.000 A 
ATOM     30  C   UNL     1       5.582  16.353  18.970  0.00  0.00    +0.000 A 
ATOM     31  H   UNL     1       4.593  14.211  16.901  0.00  0.00    +0.000 HD
ENDBRANCH   7  22
TORSDOF 2
ENDMDL
