MODEL 1
REMARK VINA RESULT:      -6.7      0.000      0.000
REMARK  Name = 
REMARK  8 active torsions:
REMARK  status: ('A' for Active; 'I' for Inactive)
REMARK    1  A    between atoms: C_2  and  C_3
REMARK    2  A    between atoms: C_3  and  S_4
REMARK    3  A    between atoms: S_4  and  C_5
REMARK    4  A    between atoms: C_8  and  C_9
REMARK    5  A    between atoms: C_9  and  N_10
REMARK    6  A    between atoms: N_10  and  S_11
REMARK    7  A    between atoms: S_11  and  C_14
REMARK    8  A    between atoms: N_21  and  C_22
REMARK                            x       y       z     vdW  Elec       q    Type
REMARK                         _______ _______ _______ _____ _____    ______ ____
ROOT
ATOM      1  N   UNL     1       4.731   3.358  17.464  0.00  0.00    +0.000 NA
ATOM      2  H   UNL     1       5.243   3.601  18.311  0.00  0.00    +0.000 HD
ENDROOT
BRANCH   1   3
ATOM      3  S   UNL     1       3.092   3.115  17.705  0.00  0.00    +0.000 S 
ATOM      4  O   UNL     1       2.457   3.239  16.413  0.00  0.00    +0.000 OA
ATOM      5  O   UNL     1       2.942   1.927  18.515  0.00  0.00    +0.000 OA
BRANCH   3   6
ATOM      6  C   UNL     1       2.613   4.526  18.670  0.00  0.00    +0.000 A 
ATOM      7  C   UNL     1       2.713   5.806  18.114  0.00  0.00    +0.000 A 
ATOM      8  C   UNL     1       2.339   6.919  18.873  0.00  0.00    +0.000 A 
ATOM      9  C   UNL     1       1.859   6.744  20.172  0.00  0.00    +0.000 A 
ATOM     10 BR   UNL     1       1.380   8.252  21.206  0.00  0.00    +0.000 Br
ATOM     11  C   UNL     1       1.733   5.465  20.716  0.00  0.00    +0.000 A 
ATOM     12  C   UNL     1       2.106   4.350  19.963  0.00  0.00    +0.000 A 
ENDBRANCH   3   6
ENDBRANCH   1   3
BRANCH   1  13
ATOM     13  C   UNL     1       5.144   3.980  16.208  0.00  0.00    +0.000 C 
BRANCH  13  17
ATOM     14  C   UNL     1       7.052   6.867  17.361  0.00  0.00    +0.000 A 
ATOM     15  N   UNL     1       6.197   7.459  16.563  0.00  0.00    +0.000 NA
ATOM     16  N   UNL     1       5.415   6.478  15.991  0.00  0.00    +0.000 NA
ATOM     17  C   UNL     1       5.799   5.304  16.462  0.00  0.00    +0.000 A 
ATOM     18  N   UNL     1       6.873   5.510  17.304  0.00  0.00    +0.000 N 
ATOM     19  C   UNL     1       7.645   4.528  18.025  0.00  0.00    +0.000 C 
BRANCH  14  20
ATOM     20  S   UNL     1       8.247   7.627  18.355  0.00  0.00    +0.000 S 
BRANCH  20  21
ATOM     21  C   UNL     1       8.117   9.355  17.803  0.00  0.00    +0.000 C 
BRANCH  21  23
ATOM     22  C   UNL     1       9.752  10.935  19.215  0.00  0.00    +0.000 C 
ATOM     23  C   UNL     1       9.014  10.226  18.583  0.00  0.00    +0.000 C 
ENDBRANCH  21  23
ENDBRANCH  20  21
ENDBRANCH  14  20
ENDBRANCH  13  17
ENDBRANCH   1  13
TORSDOF 7
ENDMDL
MODEL 2
REMARK VINA RESULT:      -6.6      4.054      7.060
REMARK  Name = 
REMARK  8 active torsions:
REMARK  status: ('A' for Active; 'I' for Inactive)
REMARK    1  A    between atoms: C_2  and  C_3
REMARK    2  A    between atoms: C_3  and  S_4
REMARK    3  A    between atoms: S_4  and  C_5
REMARK    4  A    between atoms: C_8  and  C_9
REMARK    5  A    between atoms: C_9  and  N_10
REMARK    6  A    between atoms: N_10  and  S_11
REMARK    7  A    between atoms: S_11  and  C_14
REMARK    8  A    between atoms: N_21  and  C_22
REMARK                            x       y       z     vdW  Elec       q    Type
REMARK                         _______ _______ _______ _____ _____    ______ ____
ROOT
ATOM      1  N   UNL     1       5.830   5.938  17.838  0.00  0.00    +0.000 NA
ATOM      2  H   UNL     1       5.332   6.783  17.560  0.00  0.00    +0.000 HD
ENDROOT
BRANCH   1   3
ATOM      3  S   UNL     1       7.210   5.634  16.940  0.00  0.00    +0.000 S 
ATOM      4  O   UNL     1       7.772   6.918  16.591  0.00  0.00    +0.000 OA
ATOM      5  O   UNL     1       7.979   4.634  17.648  0.00  0.00    +0.000 OA
BRANCH   3   6
ATOM      6  C   UNL     1       6.571   4.909  15.450  0.00  0.00    +0.000 A 
ATOM      7  C   UNL     1       7.362   4.898  14.297  0.00  0.00    +0.000 A 
ATOM      8  C   UNL     1       6.861   4.331  13.122  0.00  0.00    +0.000 A 
ATOM      9  C   UNL     1       5.583   3.772  13.112  0.00  0.00    +0.000 A 
ATOM     10 BR   UNL     1       4.896   3.030  11.514  0.00  0.00    +0.000 Br
ATOM     11  C   UNL     1       4.805   3.757  14.270  0.00  0.00    +0.000 A 
ATOM     12  C   UNL     1       5.299   4.323  15.447  0.00  0.00    +0.000 A 
ENDBRANCH   3   6
ENDBRANCH   1   3
BRANCH   1  13
ATOM     13  C   UNL     1       5.858   5.592  19.258  0.00  0.00    +0.000 C 
BRANCH  13  17
ATOM     14  C   UNL     1       3.132   3.368  20.223  0.00  0.00    +0.000 A 
ATOM     15  N   UNL     1       4.085   2.492  20.020  0.00  0.00    +0.000 NA
ATOM     16  N   UNL     1       5.198   3.180  19.588  0.00  0.00    +0.000 NA
ATOM     17  C   UNL     1       4.908   4.469  19.549  0.00  0.00    +0.000 A 
ATOM     18  N   UNL     1       3.583   4.622  19.904  0.00  0.00    +0.000 N 
ATOM     19  C   UNL     1       2.812   5.839  19.975  0.00  0.00    +0.000 C 
BRANCH  14  20
ATOM     20  S   UNL     1       1.532   3.053  20.802  0.00  0.00    +0.000 S 
BRANCH  20  21
ATOM     21  C   UNL     1       0.686   2.584  19.262  0.00  0.00    +0.000 C 
BRANCH  21  23
ATOM     22  C   UNL     1       2.042   3.456  17.125  0.00  0.00    +0.000 C 
ATOM     23  C   UNL     1       1.429   3.067  18.085  0.00  0.00    +0.000 C 
ENDBRANCH  21  23
ENDBRANCH  20  21
ENDBRANCH  14  20
ENDBRANCH  13  17
ENDBRANCH   1  13
TORSDOF 7
ENDMDL
MODEL 3
REMARK VINA RESULT:      -6.6      4.054      7.088
REMARK  Name = 
REMARK  8 active torsions:
REMARK  status: ('A' for Active; 'I' for Inactive)
REMARK    1  A    between atoms: C_2  and  C_3
REMARK    2  A    between atoms: C_3  and  S_4
REMARK    3  A    between atoms: S_4  and  C_5
REMARK    4  A    between atoms: C_8  and  C_9
REMARK    5  A    between atoms: C_9  and  N_10
REMARK    6  A    between atoms: N_10  and  S_11
REMARK    7  A    between atoms: S_11  and  C_14
REMARK    8  A    between atoms: N_21  and  C_22
REMARK                            x       y       z     vdW  Elec       q    Type
REMARK                         _______ _______ _______ _____ _____    ______ ____
ROOT
ATOM      1  N   UNL     1       6.885   5.228  18.011  0.00  0.00    +0.000 NA
ATOM      2  H   UNL     1       7.195   4.303  17.714  0.00  0.00    +0.000 HD
ENDROOT
BRANCH   1   3
ATOM      3  S   UNL     1       6.719   6.326  16.759  0.00  0.00    +0.000 S 
ATOM      4  O   UNL     1       5.476   7.028  16.980  0.00  0.00    +0.000 OA
ATOM      5  O   UNL     1       7.976   7.030  16.626  0.00  0.00    +0.000 OA
BRANCH   3   6
ATOM      6  C   UNL     1       6.497   5.286  15.337  0.00  0.00    +0.000 A 
ATOM      7  C   UNL     1       5.378   4.450  15.264  0.00  0.00    +0.000 A 
ATOM      8  C   UNL     1       5.201   3.628  14.148  0.00  0.00    +0.000 A 
ATOM      9  C   UNL     1       6.136   3.656  13.111  0.00  0.00    +0.000 A 
ATOM     10 BR   UNL     1       5.910   2.524  11.614  0.00  0.00    +0.000 Br
ATOM     11  C   UNL     1       7.237   4.511  13.170  0.00  0.00    +0.000 A 
ATOM     12  C   UNL     1       7.419   5.334  14.284  0.00  0.00    +0.000 A 
ENDBRANCH   3   6
ENDBRANCH   1   3
BRANCH   1  13
ATOM     13  C   UNL     1       5.929   5.311  19.113  0.00  0.00    +0.000 C 
BRANCH  13  17
ATOM     14  C   UNL     1       3.212   2.887  18.888  0.00  0.00    +0.000 A 
ATOM     15  N   UNL     1       4.081   2.196  19.583  0.00  0.00    +0.000 NA
ATOM     16  N   UNL     1       5.216   2.968  19.716  0.00  0.00    +0.000 NA
ATOM     17  C   UNL     1       5.012   4.125  19.111  0.00  0.00    +0.000 A 
ATOM     18  N   UNL     1       3.760   4.092  18.530  0.00  0.00    +0.000 N 
ATOM     19  C   UNL     1       3.114   5.110  17.740  0.00  0.00    +0.000 C 
BRANCH  14  20
ATOM     20  S   UNL     1       1.607   2.408  18.455  0.00  0.00    +0.000 S 
BRANCH  20  21
ATOM     21  C   UNL     1       0.692   2.836  19.967  0.00  0.00    +0.000 C 
BRANCH  21  23
ATOM     22  C   UNL     1       1.395   5.259  20.861  0.00  0.00    +0.000 C 
ATOM     23  C   UNL     1       1.078   4.172  20.455  0.00  0.00    +0.000 C 
ENDBRANCH  21  23
ENDBRANCH  20  21
ENDBRANCH  14  20
ENDBRANCH  13  17
ENDBRANCH   1  13
TORSDOF 7
ENDMDL
MODEL 4
REMARK VINA RESULT:      -6.6      4.043      7.148
REMARK  Name = 
REMARK  8 active torsions:
REMARK  status: ('A' for Active; 'I' for Inactive)
REMARK    1  A    between atoms: C_2  and  C_3
REMARK    2  A    between atoms: C_3  and  S_4
REMARK    3  A    between atoms: S_4  and  C_5
REMARK    4  A    between atoms: C_8  and  C_9
REMARK    5  A    between atoms: C_9  and  N_10
REMARK    6  A    between atoms: N_10  and  S_11
REMARK    7  A    between atoms: S_11  and  C_14
REMARK    8  A    between atoms: N_21  and  C_22
REMARK                            x       y       z     vdW  Elec       q    Type
REMARK                         _______ _______ _______ _____ _____    ______ ____
ROOT
ATOM      1  N   UNL     1       5.778   6.029  17.696  0.00  0.00    +0.000 NA
ATOM      2  H   UNL     1       5.267   6.836  17.338  0.00  0.00    +0.000 HD
ENDROOT
BRANCH   1   3
ATOM      3  S   UNL     1       7.193   5.697  16.866  0.00  0.00    +0.000 S 
ATOM      4  O   UNL     1       7.775   6.969  16.506  0.00  0.00    +0.000 OA
ATOM      5  O   UNL     1       7.928   4.714  17.633  0.00  0.00    +0.000 OA
BRANCH   3   6
ATOM      6  C   UNL     1       6.615   4.934  15.371  0.00  0.00    +0.000 A 
ATOM      7  C   UNL     1       5.401   4.238  15.379  0.00  0.00    +0.000 A 
ATOM      8  C   UNL     1       4.944   3.635  14.204  0.00  0.00    +0.000 A 
ATOM      9  C   UNL     1       5.696   3.739  13.032  0.00  0.00    +0.000 A 
ATOM     10 BR   UNL     1       5.091   2.899  11.451  0.00  0.00    +0.000 Br
ATOM     11  C   UNL     1       6.892   4.457  13.018  0.00  0.00    +0.000 A 
ATOM     12  C   UNL     1       7.354   5.062  14.189  0.00  0.00    +0.000 A 
ENDBRANCH   3   6
ENDBRANCH   1   3
BRANCH   1  13
ATOM     13  C   UNL     1       5.770   5.795  19.139  0.00  0.00    +0.000 C 
BRANCH  13  17
ATOM     14  C   UNL     1       3.166   3.497  20.255  0.00  0.00    +0.000 A 
ATOM     15  N   UNL     1       4.134   2.648  20.009  0.00  0.00    +0.000 NA
ATOM     16  N   UNL     1       5.203   3.367  19.516  0.00  0.00    +0.000 NA
ATOM     17  C   UNL     1       4.871   4.646  19.485  0.00  0.00    +0.000 A 
ATOM     18  N   UNL     1       3.562   4.761  19.905  0.00  0.00    +0.000 N 
ATOM     19  C   UNL     1       2.758   5.954  20.009  0.00  0.00    +0.000 C 
BRANCH  14  20
ATOM     20  S   UNL     1       1.609   3.137  20.916  0.00  0.00    +0.000 S 
BRANCH  20  21
ATOM     21  C   UNL     1       0.717   2.578  19.434  0.00  0.00    +0.000 C 
BRANCH  21  23
ATOM     22  C   UNL     1       1.451   3.995  17.285  0.00  0.00    +0.000 C 
ATOM     23  C   UNL     1       1.118   3.362  18.252  0.00  0.00    +0.000 C 
ENDBRANCH  21  23
ENDBRANCH  20  21
ENDBRANCH  14  20
ENDBRANCH  13  17
ENDBRANCH   1  13
TORSDOF 7
ENDMDL
MODEL 5
REMARK VINA RESULT:      -6.5      1.120      1.919
REMARK  Name = 
REMARK  8 active torsions:
REMARK  status: ('A' for Active; 'I' for Inactive)
REMARK    1  A    between atoms: C_2  and  C_3
REMARK    2  A    between atoms: C_3  and  S_4
REMARK    3  A    between atoms: S_4  and  C_5
REMARK    4  A    between atoms: C_8  and  C_9
REMARK    5  A    between atoms: C_9  and  N_10
REMARK    6  A    between atoms: N_10  and  S_11
REMARK    7  A    between atoms: S_11  and  C_14
REMARK    8  A    between atoms: N_21  and  C_22
REMARK                            x       y       z     vdW  Elec       q    Type
REMARK                         _______ _______ _______ _____ _____    ______ ____
ROOT
ATOM      1  N   UNL     1       5.168   3.403  18.728  0.00  0.00    +0.000 NA
ATOM      2  H   UNL     1       5.371   3.703  19.682  0.00  0.00    +0.000 HD
ENDROOT
BRANCH   1   3
ATOM      3  S   UNL     1       3.535   3.272  18.388  0.00  0.00    +0.000 S 
ATOM      4  O   UNL     1       3.391   3.437  16.960  0.00  0.00    +0.000 OA
ATOM      5  O   UNL     1       3.039   2.097  19.071  0.00  0.00    +0.000 OA
BRANCH   3   6
ATOM      6  C   UNL     1       2.844   4.714  19.162  0.00  0.00    +0.000 A 
ATOM      7  C   UNL     1       2.127   4.576  20.355  0.00  0.00    +0.000 A 
ATOM      8  C   UNL     1       1.580   5.708  20.966  0.00  0.00    +0.000 A 
ATOM      9  C   UNL     1       1.763   6.965  20.387  0.00  0.00    +0.000 A 
ATOM     10 BR   UNL     1       0.998   8.492  21.199  0.00  0.00    +0.000 Br
ATOM     11  C   UNL     1       2.502   7.105  19.212  0.00  0.00    +0.000 A 
ATOM     12  C   UNL     1       3.051   5.978  18.597  0.00  0.00    +0.000 A 
ENDBRANCH   3   6
ENDBRANCH   1   3
BRANCH   1  13
ATOM     13  C   UNL     1       6.046   3.873  17.659  0.00  0.00    +0.000 C 
BRANCH  13  17
ATOM     14  C   UNL     1       7.568   7.165  18.052  0.00  0.00    +0.000 A 
ATOM     15  N   UNL     1       8.196   6.505  18.994  0.00  0.00    +0.000 NA
ATOM     16  N   UNL     1       7.688   5.224  19.016  0.00  0.00    +0.000 NA
ATOM     17  C   UNL     1       6.767   5.120  18.073  0.00  0.00    +0.000 A 
ATOM     18  N   UNL     1       6.630   6.353  17.468  0.00  0.00    +0.000 N 
ATOM     19  C   UNL     1       5.729   6.735  16.410  0.00  0.00    +0.000 C 
BRANCH  14  20
ATOM     20  S   UNL     1       7.835   8.806  17.574  0.00  0.00    +0.000 S 
BRANCH  20  21
ATOM     21  C   UNL     1       8.894   9.399  18.928  0.00  0.00    +0.000 C 
BRANCH  21  23
ATOM     22  C   UNL     1      10.022  11.744  18.303  0.00  0.00    +0.000 C 
ATOM     23  C   UNL     1       9.511  10.692  18.584  0.00  0.00    +0.000 C 
ENDBRANCH  21  23
ENDBRANCH  20  21
ENDBRANCH  14  20
ENDBRANCH  13  17
ENDBRANCH   1  13
TORSDOF 7
ENDMDL
MODEL 6
REMARK VINA RESULT:      -6.5      4.308      6.786
REMARK  Name = 
REMARK  8 active torsions:
REMARK  status: ('A' for Active; 'I' for Inactive)
REMARK    1  A    between atoms: C_2  and  C_3
REMARK    2  A    between atoms: C_3  and  S_4
REMARK    3  A    between atoms: S_4  and  C_5
REMARK    4  A    between atoms: C_8  and  C_9
REMARK    5  A    between atoms: C_9  and  N_10
REMARK    6  A    between atoms: N_10  and  S_11
REMARK    7  A    between atoms: S_11  and  C_14
REMARK    8  A    between atoms: N_21  and  C_22
REMARK                            x       y       z     vdW  Elec       q    Type
REMARK                         _______ _______ _______ _____ _____    ______ ____
ROOT
ATOM      1  N   UNL     1       4.473   6.280  19.076  0.00  0.00    +0.000 NA
ATOM      2  H   UNL     1       4.913   6.963  19.692  0.00  0.00    +0.000 HD
ENDROOT
BRANCH   1   3
ATOM      3  S   UNL     1       5.241   4.794  19.049  0.00  0.00    +0.000 S 
ATOM      4  O   UNL     1       6.485   4.953  19.767  0.00  0.00    +0.000 OA
ATOM      5  O   UNL     1       4.268   3.793  19.428  0.00  0.00    +0.000 OA
BRANCH   3   6
ATOM      6  C   UNL     1       5.641   4.577  17.333  0.00  0.00    +0.000 A 
ATOM      7  C   UNL     1       4.652   4.136  16.447  0.00  0.00    +0.000 A 
ATOM      8  C   UNL     1       4.965   3.962  15.096  0.00  0.00    +0.000 A 
ATOM      9  C   UNL     1       6.255   4.238  14.641  0.00  0.00    +0.000 A 
ATOM     10 BR   UNL     1       6.683   3.975  12.818  0.00  0.00    +0.000 Br
ATOM     11  C   UNL     1       7.233   4.705  15.519  0.00  0.00    +0.000 A 
ATOM     12  C   UNL     1       6.927   4.880  16.870  0.00  0.00    +0.000 A 
ENDBRANCH   3   6
ENDBRANCH   1   3
BRANCH   1  13
ATOM     13  C   UNL     1       3.015   6.290  18.969  0.00  0.00    +0.000 C 
BRANCH  13  17
ATOM     14  C   UNL     1       1.416   9.552  18.643  0.00  0.00    +0.000 A 
ATOM     15  N   UNL     1       1.935   9.428  17.446  0.00  0.00    +0.000 NA
ATOM     16  N   UNL     1       2.637   8.242  17.418  0.00  0.00    +0.000 NA
ATOM     17  C   UNL     1       2.520   7.655  18.596  0.00  0.00    +0.000 A 
ATOM     18  N   UNL     1       1.785   8.485  19.419  0.00  0.00    +0.000 N 
ATOM     19  C   UNL     1       1.427   8.284  20.801  0.00  0.00    +0.000 C 
BRANCH  14  20
ATOM     20  S   UNL     1       0.412  10.840  19.215  0.00  0.00    +0.000 S 
BRANCH  20  21
ATOM     21  C   UNL     1      -1.235  10.078  19.105  0.00  0.00    +0.000 C 
BRANCH  21  23
ATOM     22  C   UNL     1      -2.154  10.166  16.593  0.00  0.00    +0.000 C 
ATOM     23  C   UNL     1      -1.745  10.124  17.723  0.00  0.00    +0.000 C 
ENDBRANCH  21  23
ENDBRANCH  20  21
ENDBRANCH  14  20
ENDBRANCH  13  17
ENDBRANCH   1  13
TORSDOF 7
ENDMDL
MODEL 7
REMARK VINA RESULT:      -6.5      4.453      6.818
REMARK  Name = 
REMARK  8 active torsions:
REMARK  status: ('A' for Active; 'I' for Inactive)
REMARK    1  A    between atoms: C_2  and  C_3
REMARK    2  A    between atoms: C_3  and  S_4
REMARK    3  A    between atoms: S_4  and  C_5
REMARK    4  A    between atoms: C_8  and  C_9
REMARK    5  A    between atoms: C_9  and  N_10
REMARK    6  A    between atoms: N_10  and  S_11
REMARK    7  A    between atoms: S_11  and  C_14
REMARK    8  A    between atoms: N_21  and  C_22
REMARK                            x       y       z     vdW  Elec       q    Type
REMARK                         _______ _______ _______ _____ _____    ______ ____
ROOT
ATOM      1  N   UNL     1       4.382   6.063  19.103  0.00  0.00    +0.000 NA
ATOM      2  H   UNL     1       4.707   6.835  19.685  0.00  0.00    +0.000 HD
ENDROOT
BRANCH   1   3
ATOM      3  S   UNL     1       5.420   4.751  19.072  0.00  0.00    +0.000 S 
ATOM      4  O   UNL     1       6.646   5.173  19.710  0.00  0.00    +0.000 OA
ATOM      5  O   UNL     1       4.680   3.597  19.535  0.00  0.00    +0.000 OA
BRANCH   3   6
ATOM      6  C   UNL     1       5.764   4.548  17.341  0.00  0.00    +0.000 A 
ATOM      7  C   UNL     1       4.761   4.065  16.494  0.00  0.00    +0.000 A 
ATOM      8  C   UNL     1       5.029   3.902  15.132  0.00  0.00    +0.000 A 
ATOM      9  C   UNL     1       6.288   4.232  14.628  0.00  0.00    +0.000 A 
ATOM     10 BR   UNL     1       6.658   3.985  12.790  0.00  0.00    +0.000 Br
ATOM     11  C   UNL     1       7.279   4.741  15.469  0.00  0.00    +0.000 A 
ATOM     12  C   UNL     1       7.017   4.905  16.831  0.00  0.00    +0.000 A 
ENDBRANCH   3   6
ENDBRANCH   1   3
BRANCH   1  13
ATOM     13  C   UNL     1       2.947   5.790  19.061  0.00  0.00    +0.000 C 
BRANCH  13  17
ATOM     14  C   UNL     1       1.342   8.939  19.967  0.00  0.00    +0.000 A 
ATOM     15  N   UNL     1       1.139   8.251  21.064  0.00  0.00    +0.000 NA
ATOM     16  N   UNL     1       1.651   6.987  20.864  0.00  0.00    +0.000 NA
ATOM     17  C   UNL     1       2.173   6.931  19.651  0.00  0.00    +0.000 A 
ATOM     18  N   UNL     1       1.953   8.145  19.032  0.00  0.00    +0.000 N 
ATOM     19  C   UNL     1       2.313   8.544  17.694  0.00  0.00    +0.000 C 
BRANCH  14  20
ATOM     20  S   UNL     1       0.927  10.594  19.683  0.00  0.00    +0.000 S 
BRANCH  20  21
ATOM     21  C   UNL     1      -0.889  10.499  19.640  0.00  0.00    +0.000 C 
BRANCH  21  23
ATOM     22  C   UNL     1      -1.766   9.955  17.170  0.00  0.00    +0.000 C 
ATOM     23  C   UNL     1      -1.368  10.198  18.279  0.00  0.00    +0.000 C 
ENDBRANCH  21  23
ENDBRANCH  20  21
ENDBRANCH  14  20
ENDBRANCH  13  17
ENDBRANCH   1  13
TORSDOF 7
ENDMDL
MODEL 8
REMARK VINA RESULT:      -6.4      4.669      6.777
REMARK  Name = 
REMARK  8 active torsions:
REMARK  status: ('A' for Active; 'I' for Inactive)
REMARK    1  A    between atoms: C_2  and  C_3
REMARK    2  A    between atoms: C_3  and  S_4
REMARK    3  A    between atoms: S_4  and  C_5
REMARK    4  A    between atoms: C_8  and  C_9
REMARK    5  A    between atoms: C_9  and  N_10
REMARK    6  A    between atoms: N_10  and  S_11
REMARK    7  A    between atoms: S_11  and  C_14
REMARK    8  A    between atoms: N_21  and  C_22
REMARK                            x       y       z     vdW  Elec       q    Type
REMARK                         _______ _______ _______ _____ _____    ______ ____
ROOT
ATOM      1  N   UNL     1       2.461   5.757  20.647  0.00  0.00    +0.000 NA
ATOM      2  H   UNL     1       1.936   5.878  21.513  0.00  0.00    +0.000 HD
ENDROOT
BRANCH   1   3
ATOM      3  S   UNL     1       2.454   4.190  20.059  0.00  0.00    +0.000 S 
ATOM      4  O   UNL     1       2.984   3.349  21.107  0.00  0.00    +0.000 OA
ATOM      5  O   UNL     1       1.152   3.949  19.476  0.00  0.00    +0.000 OA
BRANCH   3   6
ATOM      6  C   UNL     1       3.660   4.241  18.757  0.00  0.00    +0.000 A 
ATOM      7  C   UNL     1       5.003   4.472  19.073  0.00  0.00    +0.000 A 
ATOM      8  C   UNL     1       5.954   4.516  18.050  0.00  0.00    +0.000 A 
ATOM      9  C   UNL     1       5.559   4.319  16.726  0.00  0.00    +0.000 A 
ATOM     10 BR   UNL     1       6.843   4.406  15.341  0.00  0.00    +0.000 Br
ATOM     11  C   UNL     1       4.224   4.061  16.414  0.00  0.00    +0.000 A 
ATOM     12  C   UNL     1       3.269   4.016  17.432  0.00  0.00    +0.000 A 
ENDBRANCH   3   6
ENDBRANCH   1   3
BRANCH   1  13
ATOM     13  C   UNL     1       2.436   6.845  19.671  0.00  0.00    +0.000 C 
BRANCH  13  17
ATOM     14  C   UNL     1       0.685   9.972  20.350  0.00  0.00    +0.000 A 
ATOM     15  N   UNL     1       0.422   9.316  21.453  0.00  0.00    +0.000 NA
ATOM     16  N   UNL     1       0.982   8.062  21.335  0.00  0.00    +0.000 NA
ATOM     17  C   UNL     1       1.591   7.981  20.164  0.00  0.00    +0.000 A 
ATOM     18  N   UNL     1       1.382   9.166  19.489  0.00  0.00    +0.000 N 
ATOM     19  C   UNL     1       1.827   9.532  18.167  0.00  0.00    +0.000 C 
BRANCH  14  20
ATOM     20  S   UNL     1       0.246  11.604  19.979  0.00  0.00    +0.000 S 
BRANCH  20  21
ATOM     21  C   UNL     1      -1.509  11.407  19.544  0.00  0.00    +0.000 C 
BRANCH  21  23
ATOM     22  C   UNL     1      -1.787   9.962  17.308  0.00  0.00    +0.000 C 
ATOM     23  C   UNL     1      -1.659  10.614  18.311  0.00  0.00    +0.000 C 
ENDBRANCH  21  23
ENDBRANCH  20  21
ENDBRANCH  14  20
ENDBRANCH  13  17
ENDBRANCH   1  13
TORSDOF 7
ENDMDL
MODEL 9
REMARK VINA RESULT:      -6.4      4.227      6.616
REMARK  Name = 
REMARK  8 active torsions:
REMARK  status: ('A' for Active; 'I' for Inactive)
REMARK    1  A    between atoms: C_2  and  C_3
REMARK    2  A    between atoms: C_3  and  S_4
REMARK    3  A    between atoms: S_4  and  C_5
REMARK    4  A    between atoms: C_8  and  C_9
REMARK    5  A    between atoms: C_9  and  N_10
REMARK    6  A    between atoms: N_10  and  S_11
REMARK    7  A    between atoms: S_11  and  C_14
REMARK    8  A    between atoms: N_21  and  C_22
REMARK                            x       y       z     vdW  Elec       q    Type
REMARK                         _______ _______ _______ _____ _____    ______ ____
ROOT
ATOM      1  N   UNL     1       3.310   4.737  18.860  0.00  0.00    +0.000 NA
ATOM      2  H   UNL     1       3.004   4.743  17.887  0.00  0.00    +0.000 HD
ENDROOT
BRANCH   1   3
ATOM      3  S   UNL     1       4.930   4.372  19.062  0.00  0.00    +0.000 S 
ATOM      4  O   UNL     1       5.515   5.462  19.809  0.00  0.00    +0.000 OA
ATOM      5  O   UNL     1       5.014   3.003  19.524  0.00  0.00    +0.000 OA
BRANCH   3   6
ATOM      6  C   UNL     1       5.573   4.454  17.409  0.00  0.00    +0.000 A 
ATOM      7  C   UNL     1       6.939   4.682  17.212  0.00  0.00    +0.000 A 
ATOM      8  C   UNL     1       7.447   4.751  15.912  0.00  0.00    +0.000 A 
ATOM      9  C   UNL     1       6.591   4.580  14.823  0.00  0.00    +0.000 A 
ATOM     10 BR   UNL     1       7.275   4.701  13.065  0.00  0.00    +0.000 Br
ATOM     11  C   UNL     1       5.234   4.324  15.019  0.00  0.00    +0.000 A 
ATOM     12  C   UNL     1       4.720   4.256  16.316  0.00  0.00    +0.000 A 
ENDBRANCH   3   6
ENDBRANCH   1   3
BRANCH   1  13
ATOM     13  C   UNL     1       2.718   5.714  19.772  0.00  0.00    +0.000 C 
BRANCH  13  17
ATOM     14  C   UNL     1       1.773   9.040  18.610  0.00  0.00    +0.000 A 
ATOM     15  N   UNL     1       2.426   8.604  17.560  0.00  0.00    +0.000 NA
ATOM     16  N   UNL     1       2.907   7.348  17.860  0.00  0.00    +0.000 NA
ATOM     17  C   UNL     1       2.525   7.032  19.086  0.00  0.00    +0.000 A 
ATOM     18  N   UNL     1       1.839   8.108  19.613  0.00  0.00    +0.000 N 
ATOM     19  C   UNL     1       1.261   8.243  20.927  0.00  0.00    +0.000 C 
BRANCH  14  20
ATOM     20  S   UNL     1       0.939  10.547  18.767  0.00  0.00    +0.000 S 
BRANCH  20  21
ATOM     21  C   UNL     1      -0.713  10.101  18.151  0.00  0.00    +0.000 C 
BRANCH  21  23
ATOM     22  C   UNL     1      -2.541  11.904  18.909  0.00  0.00    +0.000 C 
ATOM     23  C   UNL     1      -1.716  11.097  18.568  0.00  0.00    +0.000 C 
ENDBRANCH  21  23
ENDBRANCH  20  21
ENDBRANCH  14  20
ENDBRANCH  13  17
ENDBRANCH   1  13
TORSDOF 7
ENDMDL
