MODEL 1
REMARK VINA RESULT:      -8.2      0.000      0.000
REMARK  Name = 
REMARK  15 active torsions:
REMARK  status: ('A' for Active; 'I' for Inactive)
REMARK    1  A    between atoms: C_2  and  C_3
REMARK    2  A    between atoms: C_3  and  C_4
REMARK    3  A    between atoms: C_3  and  C_5
REMARK    4  A    between atoms: C_3  and  C_24
REMARK    5  A    between atoms: C_6  and  C_7
REMARK    6  A    between atoms: C_10  and  N_11
REMARK    7  A    between atoms: N_11  and  C_12
REMARK    8  A    between atoms: C_15  and  O_16
REMARK    9  A    between atoms: O_16  and  C_17
REMARK   10  A    between atoms: C_18  and  O_19
REMARK   11  A    between atoms: O_19  and  C_20
REMARK   12  A    between atoms: C_24  and  C_25
REMARK   13  A    between atoms: C_25  and  C_26
REMARK   14  A    between atoms: C_27  and  C_28
REMARK   15  A    between atoms: C_27  and  C_29
REMARK                            x       y       z     vdW  Elec       q    Type
REMARK                         _______ _______ _______ _____ _____    ______ ____
ROOT
ATOM      1  C   UNL     1       2.601   7.462  18.810  0.00  0.00    +0.000 A 
ATOM      2  C   UNL     1       2.399   8.294  17.705  0.00  0.00    +0.000 A 
ATOM      3  C   UNL     1       1.557   9.407  17.801  0.00  0.00    +0.000 A 
ATOM      4  C   UNL     1       0.907   9.705  19.003  0.00  0.00    +0.000 A 
ATOM      5  C   UNL     1       1.119   8.860  20.102  0.00  0.00    +0.000 A 
ATOM      6  C   UNL     1       1.962   7.752  20.014  0.00  0.00    +0.000 A 
ENDROOT
BRANCH   1   8
ATOM      7  C   UNL     1       3.594   5.618  17.564  0.00  0.00    +0.000 C 
ATOM      8  C   UNL     1       3.495   6.313  18.706  0.00  0.00    +0.000 C 
BRANCH   7   9
ATOM      9  C   UNL     1       4.443   4.365  17.364  0.00  0.00    +0.000 C 
ATOM     10  C   UNL     1       5.363   4.171  18.591  0.00  0.00    +0.000 C 
BRANCH   9  12
ATOM     11  C   UNL     1       6.373   5.206  15.873  0.00  0.00    +0.000 C 
ATOM     12  C   UNL     1       5.236   4.519  16.063  0.00  0.00    +0.000 C 
ENDBRANCH   9  12
BRANCH   9  13
ATOM     13  C   UNL     1       3.523   3.108  17.215  0.00  0.00    +0.000 C 
BRANCH  13  14
ATOM     14  C   UNL     1       2.155   3.230  17.912  0.00  0.00    +0.000 C 
BRANCH  14  15
ATOM     15  C   UNL     1       2.142   2.622  19.285  0.00  0.00    +0.000 C 
ATOM     16  C   UNL     1       1.593   3.157  20.392  0.00  0.00    +0.000 C 
ATOM     17  C   UNL     1       0.804   4.438  20.414  0.00  0.00    +0.000 C 
ATOM     18  C   UNL     1       1.728   2.484  21.731  0.00  0.00    +0.000 C 
ENDBRANCH  14  15
ENDBRANCH  13  14
ENDBRANCH   9  13
ENDBRANCH   7   9
ENDBRANCH   1   8
BRANCH   4  19
ATOM     19  N   UNL     1      -0.006  10.777  19.053  0.00  0.00    +0.000 N 
ATOM     20  H   UNL     1       0.278  11.544  19.647  0.00  0.00    +0.000 HD
BRANCH  19  21
ATOM     21  C   UNL     1      -1.323  10.823  18.568  0.00  0.00    +0.000 A 
ATOM     22  C   UNL     1      -2.283  11.645  19.160  0.00  0.00    +0.000 A 
ATOM     23  C   UNL     1      -3.543  11.790  18.593  0.00  0.00    +0.000 A 
ATOM     24  C   UNL     1      -3.888  11.110  17.421  0.00  0.00    +0.000 A 
ATOM     25  C   UNL     1      -2.950  10.246  16.826  0.00  0.00    +0.000 A 
ATOM     26  C   UNL     1      -1.676  10.117  17.407  0.00  0.00    +0.000 A 
BRANCH  24  27
ATOM     27  O   UNL     1      -5.158  11.423  17.014  0.00  0.00    +0.000 OA
ATOM     28  C   UNL     1      -6.083  11.920  17.967  0.00  0.00    +0.000 C 
ENDBRANCH  24  27
BRANCH  25  29
ATOM     29  O   UNL     1      -3.322   9.573  15.691  0.00  0.00    +0.000 OA
ATOM     30  C   UNL     1      -3.083  10.182  14.431  0.00  0.00    +0.000 C 
ENDBRANCH  25  29
ENDBRANCH  19  21
ENDBRANCH   4  19
TORSDOF 10
ENDMDL
MODEL 2
REMARK VINA RESULT:      -7.7      1.058      2.891
REMARK  Name = 
REMARK  15 active torsions:
REMARK  status: ('A' for Active; 'I' for Inactive)
REMARK    1  A    between atoms: C_2  and  C_3
REMARK    2  A    between atoms: C_3  and  C_4
REMARK    3  A    between atoms: C_3  and  C_5
REMARK    4  A    between atoms: C_3  and  C_24
REMARK    5  A    between atoms: C_6  and  C_7
REMARK    6  A    between atoms: C_10  and  N_11
REMARK    7  A    between atoms: N_11  and  C_12
REMARK    8  A    between atoms: C_15  and  O_16
REMARK    9  A    between atoms: O_16  and  C_17
REMARK   10  A    between atoms: C_18  and  O_19
REMARK   11  A    between atoms: O_19  and  C_20
REMARK   12  A    between atoms: C_24  and  C_25
REMARK   13  A    between atoms: C_25  and  C_26
REMARK   14  A    between atoms: C_27  and  C_28
REMARK   15  A    between atoms: C_27  and  C_29
REMARK                            x       y       z     vdW  Elec       q    Type
REMARK                         _______ _______ _______ _____ _____    ______ ____
ROOT
ATOM      1  C   UNL     1       2.273   7.313  19.478  0.00  0.00    +0.000 A 
ATOM      2  C   UNL     1       2.290   7.802  18.169  0.00  0.00    +0.000 A 
ATOM      3  C   UNL     1       1.613   8.983  17.846  0.00  0.00    +0.000 A 
ATOM      4  C   UNL     1       0.915   9.693  18.828  0.00  0.00    +0.000 A 
ATOM      5  C   UNL     1       0.907   9.190  20.137  0.00  0.00    +0.000 A 
ATOM      6  C   UNL     1       1.584   8.015  20.465  0.00  0.00    +0.000 A 
ENDROOT
BRANCH   1   8
ATOM      7  C   UNL     1       3.266   5.173  18.870  0.00  0.00    +0.000 C 
ATOM      8  C   UNL     1       2.996   6.089  19.810  0.00  0.00    +0.000 C 
BRANCH   7   9
ATOM      9  C   UNL     1       3.955   3.832  19.116  0.00  0.00    +0.000 C 
ATOM     10  C   UNL     1       3.246   3.102  20.280  0.00  0.00    +0.000 C 
BRANCH   9  12
ATOM     11  C   UNL     1       6.121   5.229  19.210  0.00  0.00    +0.000 C 
ATOM     12  C   UNL     1       5.435   4.094  19.411  0.00  0.00    +0.000 C 
ENDBRANCH   9  12
BRANCH   9  13
ATOM     13  C   UNL     1       3.874   2.940  17.833  0.00  0.00    +0.000 C 
BRANCH  13  14
ATOM     14  C   UNL     1       3.768   3.726  16.513  0.00  0.00    +0.000 C 
BRANCH  14  15
ATOM     15  C   UNL     1       5.086   3.864  15.806  0.00  0.00    +0.000 C 
ATOM     16  C   UNL     1       5.698   5.015  15.471  0.00  0.00    +0.000 C 
ATOM     17  C   UNL     1       5.193   6.384  15.840  0.00  0.00    +0.000 C 
ATOM     18  C   UNL     1       6.979   5.015  14.681  0.00  0.00    +0.000 C 
ENDBRANCH  14  15
ENDBRANCH  13  14
ENDBRANCH   9  13
ENDBRANCH   7   9
ENDBRANCH   1   8
BRANCH   4  19
ATOM     19  N   UNL     1       0.166  10.830  18.464  0.00  0.00    +0.000 N 
ATOM     20  H   UNL     1       0.670  11.705  18.533  0.00  0.00    +0.000 HD
BRANCH  19  21
ATOM     21  C   UNL     1      -1.215  10.927  18.232  0.00  0.00    +0.000 A 
ATOM     22  C   UNL     1      -2.030  11.726  19.036  0.00  0.00    +0.000 A 
ATOM     23  C   UNL     1      -3.367  11.926  18.719  0.00  0.00    +0.000 A 
ATOM     24  C   UNL     1      -3.938  11.325  17.592  0.00  0.00    +0.000 A 
ATOM     25  C   UNL     1      -3.147  10.485  16.786  0.00  0.00    +0.000 A 
ATOM     26  C   UNL     1      -1.792  10.300  17.116  0.00  0.00    +0.000 A 
BRANCH  24  27
ATOM     27  O   UNL     1      -5.251  11.682  17.443  0.00  0.00    +0.000 OA
ATOM     28  C   UNL     1      -6.240  10.997  18.195  0.00  0.00    +0.000 C 
ENDBRANCH  24  27
BRANCH  25  29
ATOM     29  O   UNL     1      -3.736   9.889  15.702  0.00  0.00    +0.000 OA
ATOM     30  C   UNL     1      -3.250  10.205  14.405  0.00  0.00    +0.000 C 
ENDBRANCH  25  29
ENDBRANCH  19  21
ENDBRANCH   4  19
TORSDOF 10
ENDMDL
MODEL 3
REMARK VINA RESULT:      -7.6      1.209      3.425
REMARK  Name = 
REMARK  15 active torsions:
REMARK  status: ('A' for Active; 'I' for Inactive)
REMARK    1  A    between atoms: C_2  and  C_3
REMARK    2  A    between atoms: C_3  and  C_4
REMARK    3  A    between atoms: C_3  and  C_5
REMARK    4  A    between atoms: C_3  and  C_24
REMARK    5  A    between atoms: C_6  and  C_7
REMARK    6  A    between atoms: C_10  and  N_11
REMARK    7  A    between atoms: N_11  and  C_12
REMARK    8  A    between atoms: C_15  and  O_16
REMARK    9  A    between atoms: O_16  and  C_17
REMARK   10  A    between atoms: C_18  and  O_19
REMARK   11  A    between atoms: O_19  and  C_20
REMARK   12  A    between atoms: C_24  and  C_25
REMARK   13  A    between atoms: C_25  and  C_26
REMARK   14  A    between atoms: C_27  and  C_28
REMARK   15  A    between atoms: C_27  and  C_29
REMARK                            x       y       z     vdW  Elec       q    Type
REMARK                         _______ _______ _______ _____ _____    ______ ____
ROOT
ATOM      1  C   UNL     1       2.258   7.650  19.143  0.00  0.00    +0.000 A 
ATOM      2  C   UNL     1       1.556   8.080  20.273  0.00  0.00    +0.000 A 
ATOM      3  C   UNL     1       0.696   9.181  20.194  0.00  0.00    +0.000 A 
ATOM      4  C   UNL     1       0.523   9.863  18.986  0.00  0.00    +0.000 A 
ATOM      5  C   UNL     1       1.234   9.419  17.861  0.00  0.00    +0.000 A 
ATOM      6  C   UNL     1       2.090   8.319  17.933  0.00  0.00    +0.000 A 
ENDROOT
BRANCH   1   8
ATOM      7  C   UNL     1       2.749   5.292  18.771  0.00  0.00    +0.000 C 
ATOM      8  C   UNL     1       3.140   6.490  19.229  0.00  0.00    +0.000 C 
BRANCH   7   9
ATOM      9  C   UNL     1       3.560   4.002  18.870  0.00  0.00    +0.000 C 
ATOM     10  C   UNL     1       3.662   3.356  17.470  0.00  0.00    +0.000 C 
BRANCH   9  12
ATOM     11  C   UNL     1       2.462   3.391  21.123  0.00  0.00    +0.000 C 
ATOM     12  C   UNL     1       2.882   3.080  19.887  0.00  0.00    +0.000 C 
ENDBRANCH   9  12
BRANCH   9  13
ATOM     13  C   UNL     1       5.002   4.311  19.394  0.00  0.00    +0.000 C 
BRANCH  13  14
ATOM     14  C   UNL     1       6.089   4.331  18.302  0.00  0.00    +0.000 C 
BRANCH  14  15
ATOM     15  C   UNL     1       6.891   5.600  18.300  0.00  0.00    +0.000 C 
ATOM     16  C   UNL     1       6.704   6.664  17.497  0.00  0.00    +0.000 C 
ATOM     17  C   UNL     1       5.575   6.795  16.511  0.00  0.00    +0.000 C 
ATOM     18  C   UNL     1       7.639   7.842  17.535  0.00  0.00    +0.000 C 
ENDBRANCH  14  15
ENDBRANCH  13  14
ENDBRANCH   9  13
ENDBRANCH   7   9
ENDBRANCH   1   8
BRANCH   4  19
ATOM     19  N   UNL     1      -0.278  11.022  18.950  0.00  0.00    +0.000 N 
ATOM     20  H   UNL     1       0.073  11.793  19.504  0.00  0.00    +0.000 HD
BRANCH  19  21
ATOM     21  C   UNL     1      -1.575  11.170  18.432  0.00  0.00    +0.000 A 
ATOM     22  C   UNL     1      -2.646  11.524  19.255  0.00  0.00    +0.000 A 
ATOM     23  C   UNL     1      -3.895  11.803  18.716  0.00  0.00    +0.000 A 
ATOM     24  C   UNL     1      -4.118  11.727  17.338  0.00  0.00    +0.000 A 
ATOM     25  C   UNL     1      -3.065  11.336  16.491  0.00  0.00    +0.000 A 
ATOM     26  C   UNL     1      -1.802  11.065  17.052  0.00  0.00    +0.000 A 
BRANCH  24  27
ATOM     27  O   UNL     1      -5.403  12.076  17.017  0.00  0.00    +0.000 OA
ATOM     28  C   UNL     1      -6.460  11.670  17.871  0.00  0.00    +0.000 C 
ENDBRANCH  24  27
BRANCH  25  29
ATOM     29  O   UNL     1      -3.316  11.245  15.147  0.00  0.00    +0.000 OA
ATOM     30  C   UNL     1      -3.622   9.972  14.597  0.00  0.00    +0.000 C 
ENDBRANCH  25  29
ENDBRANCH  19  21
ENDBRANCH   4  19
TORSDOF 10
ENDMDL
MODEL 4
REMARK VINA RESULT:      -7.6      1.202      2.435
REMARK  Name = 
REMARK  15 active torsions:
REMARK  status: ('A' for Active; 'I' for Inactive)
REMARK    1  A    between atoms: C_2  and  C_3
REMARK    2  A    between atoms: C_3  and  C_4
REMARK    3  A    between atoms: C_3  and  C_5
REMARK    4  A    between atoms: C_3  and  C_24
REMARK    5  A    between atoms: C_6  and  C_7
REMARK    6  A    between atoms: C_10  and  N_11
REMARK    7  A    between atoms: N_11  and  C_12
REMARK    8  A    between atoms: C_15  and  O_16
REMARK    9  A    between atoms: O_16  and  C_17
REMARK   10  A    between atoms: C_18  and  O_19
REMARK   11  A    between atoms: O_19  and  C_20
REMARK   12  A    between atoms: C_24  and  C_25
REMARK   13  A    between atoms: C_25  and  C_26
REMARK   14  A    between atoms: C_27  and  C_28
REMARK   15  A    between atoms: C_27  and  C_29
REMARK                            x       y       z     vdW  Elec       q    Type
REMARK                         _______ _______ _______ _____ _____    ______ ____
ROOT
ATOM      1  C   UNL     1       2.650   7.421  18.955  0.00  0.00    +0.000 A 
ATOM      2  C   UNL     1       1.902   7.791  20.077  0.00  0.00    +0.000 A 
ATOM      3  C   UNL     1       1.088   8.928  20.040  0.00  0.00    +0.000 A 
ATOM      4  C   UNL     1       1.007   9.708  18.882  0.00  0.00    +0.000 A 
ATOM      5  C   UNL     1       1.763   9.323  17.765  0.00  0.00    +0.000 A 
ATOM      6  C   UNL     1       2.573   8.188  17.794  0.00  0.00    +0.000 A 
ENDROOT
BRANCH   1   8
ATOM      7  C   UNL     1       4.558   6.105  18.201  0.00  0.00    +0.000 C 
ATOM      8  C   UNL     1       3.483   6.223  18.995  0.00  0.00    +0.000 C 
BRANCH   7   9
ATOM      9  C   UNL     1       5.458   4.875  18.113  0.00  0.00    +0.000 C 
ATOM     10  C   UNL     1       6.936   5.315  18.221  0.00  0.00    +0.000 C 
BRANCH   9  12
ATOM     11  C   UNL     1       5.128   4.679  15.562  0.00  0.00    +0.000 C 
ATOM     12  C   UNL     1       5.163   4.152  16.795  0.00  0.00    +0.000 C 
ENDBRANCH   9  12
BRANCH   9  13
ATOM     13  C   UNL     1       5.136   3.886  19.282  0.00  0.00    +0.000 C 
BRANCH  13  14
ATOM     14  C   UNL     1       4.195   2.727  18.899  0.00  0.00    +0.000 C 
BRANCH  14  15
ATOM     15  C   UNL     1       2.932   2.708  19.710  0.00  0.00    +0.000 C 
ATOM     16  C   UNL     1       1.728   3.171  19.326  0.00  0.00    +0.000 C 
ATOM     17  C   UNL     1       1.423   3.711  17.955  0.00  0.00    +0.000 C 
ATOM     18  C   UNL     1       0.557   3.174  20.272  0.00  0.00    +0.000 C 
ENDBRANCH  14  15
ENDBRANCH  13  14
ENDBRANCH   9  13
ENDBRANCH   7   9
ENDBRANCH   1   8
BRANCH   4  19
ATOM     19  N   UNL     1       0.252  10.897  18.896  0.00  0.00    +0.000 N 
ATOM     20  H   UNL     1       0.728  11.693  19.301  0.00  0.00    +0.000 HD
BRANCH  19  21
ATOM     21  C   UNL     1      -1.116  11.065  18.626  0.00  0.00    +0.000 A 
ATOM     22  C   UNL     1      -1.763  10.289  17.663  0.00  0.00    +0.000 A 
ATOM     23  C   UNL     1      -3.140  10.363  17.497  0.00  0.00    +0.000 A 
ATOM     24  C   UNL     1      -3.915  11.222  18.283  0.00  0.00    +0.000 A 
ATOM     25  C   UNL     1      -3.281  12.042  19.235  0.00  0.00    +0.000 A 
ATOM     26  C   UNL     1      -1.887  11.949  19.396  0.00  0.00    +0.000 A 
BRANCH  24  27
ATOM     27  O   UNL     1      -5.247  11.111  17.984  0.00  0.00    +0.000 OA
ATOM     28  C   UNL     1      -5.851  12.096  17.162  0.00  0.00    +0.000 C 
ENDBRANCH  24  27
BRANCH  25  29
ATOM     29  O   UNL     1      -4.060  12.893  19.974  0.00  0.00    +0.000 OA
ATOM     30  C   UNL     1      -4.044  12.772  21.389  0.00  0.00    +0.000 C 
ENDBRANCH  25  29
ENDBRANCH  19  21
ENDBRANCH   4  19
TORSDOF 10
ENDMDL
MODEL 5
REMARK VINA RESULT:      -7.6      1.340      3.449
REMARK  Name = 
REMARK  15 active torsions:
REMARK  status: ('A' for Active; 'I' for Inactive)
REMARK    1  A    between atoms: C_2  and  C_3
REMARK    2  A    between atoms: C_3  and  C_4
REMARK    3  A    between atoms: C_3  and  C_5
REMARK    4  A    between atoms: C_3  and  C_24
REMARK    5  A    between atoms: C_6  and  C_7
REMARK    6  A    between atoms: C_10  and  N_11
REMARK    7  A    between atoms: N_11  and  C_12
REMARK    8  A    between atoms: C_15  and  O_16
REMARK    9  A    between atoms: O_16  and  C_17
REMARK   10  A    between atoms: C_18  and  O_19
REMARK   11  A    between atoms: O_19  and  C_20
REMARK   12  A    between atoms: C_24  and  C_25
REMARK   13  A    between atoms: C_25  and  C_26
REMARK   14  A    between atoms: C_27  and  C_28
REMARK   15  A    between atoms: C_27  and  C_29
REMARK                            x       y       z     vdW  Elec       q    Type
REMARK                         _______ _______ _______ _____ _____    ______ ____
ROOT
ATOM      1  C   UNL     1       2.629   7.380  18.588  0.00  0.00    +0.000 A 
ATOM      2  C   UNL     1       2.452   8.427  17.679  0.00  0.00    +0.000 A 
ATOM      3  C   UNL     1       1.654   9.526  18.013  0.00  0.00    +0.000 A 
ATOM      4  C   UNL     1       1.025   9.596  19.260  0.00  0.00    +0.000 A 
ATOM      5  C   UNL     1       1.212   8.537  20.161  0.00  0.00    +0.000 A 
ATOM      6  C   UNL     1       2.011   7.441  19.835  0.00  0.00    +0.000 A 
ENDROOT
BRANCH   1   8
ATOM      7  C   UNL     1       3.605   5.200  19.069  0.00  0.00    +0.000 C 
ATOM      8  C   UNL     1       3.478   6.245  18.239  0.00  0.00    +0.000 C 
BRANCH   7   9
ATOM      9  C   UNL     1       4.514   3.995  18.837  0.00  0.00    +0.000 C 
ATOM     10  C   UNL     1       4.539   3.657  17.329  0.00  0.00    +0.000 C 
BRANCH   9  12
ATOM     11  C   UNL     1       2.885   2.788  20.432  0.00  0.00    +0.000 C 
ATOM     12  C   UNL     1       3.998   2.828  19.685  0.00  0.00    +0.000 C 
ENDBRANCH   9  12
BRANCH   9  13
ATOM     13  C   UNL     1       5.971   4.319  19.308  0.00  0.00    +0.000 C 
BRANCH  13  14
ATOM     14  C   UNL     1       6.953   4.652  18.170  0.00  0.00    +0.000 C 
BRANCH  14  15
ATOM     15  C   UNL     1       7.545   6.026  18.291  0.00  0.00    +0.000 C 
ATOM     16  C   UNL     1       7.246   7.096  17.530  0.00  0.00    +0.000 C 
ATOM     17  C   UNL     1       6.178   7.113  16.470  0.00  0.00    +0.000 C 
ATOM     18  C   UNL     1       7.980   8.399  17.697  0.00  0.00    +0.000 C 
ENDBRANCH  14  15
ENDBRANCH  13  14
ENDBRANCH   9  13
ENDBRANCH   7   9
ENDBRANCH   1   8
BRANCH   4  19
ATOM     19  N   UNL     1       0.154  10.667  19.541  0.00  0.00    +0.000 N 
ATOM     20  H   UNL     1       0.461  11.274  20.289  0.00  0.00    +0.000 HD
BRANCH  19  21
ATOM     21  C   UNL     1      -1.155  10.871  19.075  0.00  0.00    +0.000 A 
ATOM     22  C   UNL     1      -1.994  11.816  19.668  0.00  0.00    +0.000 A 
ATOM     23  C   UNL     1      -3.236  12.110  19.117  0.00  0.00    +0.000 A 
ATOM     24  C   UNL     1      -3.683  11.462  17.961  0.00  0.00    +0.000 A 
ATOM     25  C   UNL     1      -2.871  10.479  17.367  0.00  0.00    +0.000 A 
ATOM     26  C   UNL     1      -1.613  10.198  17.932  0.00  0.00    +0.000 A 
BRANCH  24  27
ATOM     27  O   UNL     1      -4.910  11.926  17.569  0.00  0.00    +0.000 OA
ATOM     28  C   UNL     1      -6.075  11.263  18.029  0.00  0.00    +0.000 C 
ENDBRANCH  24  27
BRANCH  25  29
ATOM     29  O   UNL     1      -3.343   9.841  16.250  0.00  0.00    +0.000 OA
ATOM     30  C   UNL     1      -3.019  10.376  14.974  0.00  0.00    +0.000 C 
ENDBRANCH  25  29
ENDBRANCH  19  21
ENDBRANCH   4  19
TORSDOF 10
ENDMDL
MODEL 6
REMARK VINA RESULT:      -7.5      1.512      3.910
REMARK  Name = 
REMARK  15 active torsions:
REMARK  status: ('A' for Active; 'I' for Inactive)
REMARK    1  A    between atoms: C_2  and  C_3
REMARK    2  A    between atoms: C_3  and  C_4
REMARK    3  A    between atoms: C_3  and  C_5
REMARK    4  A    between atoms: C_3  and  C_24
REMARK    5  A    between atoms: C_6  and  C_7
REMARK    6  A    between atoms: C_10  and  N_11
REMARK    7  A    between atoms: N_11  and  C_12
REMARK    8  A    between atoms: C_15  and  O_16
REMARK    9  A    between atoms: O_16  and  C_17
REMARK   10  A    between atoms: C_18  and  O_19
REMARK   11  A    between atoms: O_19  and  C_20
REMARK   12  A    between atoms: C_24  and  C_25
REMARK   13  A    between atoms: C_25  and  C_26
REMARK   14  A    between atoms: C_27  and  C_28
REMARK   15  A    between atoms: C_27  and  C_29
REMARK                            x       y       z     vdW  Elec       q    Type
REMARK                         _______ _______ _______ _____ _____    ______ ____
ROOT
ATOM      1  C   UNL     1       2.096   7.155  19.435  0.00  0.00    +0.000 A 
ATOM      2  C   UNL     1       2.192   7.779  18.187  0.00  0.00    +0.000 A 
ATOM      3  C   UNL     1       1.718   9.083  18.010  0.00  0.00    +0.000 A 
ATOM      4  C   UNL     1       1.145   9.782  19.077  0.00  0.00    +0.000 A 
ATOM      5  C   UNL     1       1.055   9.143  20.322  0.00  0.00    +0.000 A 
ATOM      6  C   UNL     1       1.531   7.844  20.506  0.00  0.00    +0.000 A 
ENDROOT
BRANCH   1   8
ATOM      7  C   UNL     1       2.021   4.756  19.017  0.00  0.00    +0.000 C 
ATOM      8  C   UNL     1       2.609   5.801  19.616  0.00  0.00    +0.000 C 
BRANCH   7   9
ATOM      9  C   UNL     1       2.430   3.295  19.189  0.00  0.00    +0.000 C 
ATOM     10  C   UNL     1       1.247   2.383  18.791  0.00  0.00    +0.000 C 
BRANCH   9  12
ATOM     11  C   UNL     1       2.086   2.796  21.696  0.00  0.00    +0.000 C 
ATOM     12  C   UNL     1       2.865   3.081  20.642  0.00  0.00    +0.000 C 
ENDBRANCH   9  12
BRANCH   9  13
ATOM     13  C   UNL     1       3.655   2.967  18.272  0.00  0.00    +0.000 C 
BRANCH  13  14
ATOM     14  C   UNL     1       3.672   3.725  16.931  0.00  0.00    +0.000 C 
BRANCH  14  15
ATOM     15  C   UNL     1       5.051   3.859  16.353  0.00  0.00    +0.000 C 
ATOM     16  C   UNL     1       5.655   5.002  15.979  0.00  0.00    +0.000 C 
ATOM     17  C   UNL     1       5.067   6.375  16.170  0.00  0.00    +0.000 C 
ATOM     18  C   UNL     1       7.011   4.990  15.327  0.00  0.00    +0.000 C 
ENDBRANCH  14  15
ENDBRANCH  13  14
ENDBRANCH   9  13
ENDBRANCH   7   9
ENDBRANCH   1   8
BRANCH   4  19
ATOM     19  N   UNL     1       0.593  11.060  18.854  0.00  0.00    +0.000 N 
ATOM     20  H   UNL     1       1.265  11.816  18.865  0.00  0.00    +0.000 HD
BRANCH  19  21
ATOM     21  C   UNL     1      -0.760  11.433  18.836  0.00  0.00    +0.000 A 
ATOM     22  C   UNL     1      -1.608  11.029  17.803  0.00  0.00    +0.000 A 
ATOM     23  C   UNL     1      -2.972  11.285  17.860  0.00  0.00    +0.000 A 
ATOM     24  C   UNL     1      -3.533  11.960  18.949  0.00  0.00    +0.000 A 
ATOM     25  C   UNL     1      -2.694  12.410  19.985  0.00  0.00    +0.000 A 
ATOM     26  C   UNL     1      -1.316  12.136  19.916  0.00  0.00    +0.000 A 
BRANCH  24  27
ATOM     27  O   UNL     1      -4.892  12.073  18.824  0.00  0.00    +0.000 OA
ATOM     28  C   UNL     1      -5.638  10.949  18.387  0.00  0.00    +0.000 C 
ENDBRANCH  24  27
BRANCH  25  29
ATOM     29  O   UNL     1      -3.265  13.091  21.028  0.00  0.00    +0.000 OA
ATOM     30  C   UNL     1      -3.331  14.508  20.960  0.00  0.00    +0.000 C 
ENDBRANCH  25  29
ENDBRANCH  19  21
ENDBRANCH   4  19
TORSDOF 10
ENDMDL
MODEL 7
REMARK VINA RESULT:      -7.5      1.130      2.180
REMARK  Name = 
REMARK  15 active torsions:
REMARK  status: ('A' for Active; 'I' for Inactive)
REMARK    1  A    between atoms: C_2  and  C_3
REMARK    2  A    between atoms: C_3  and  C_4
REMARK    3  A    between atoms: C_3  and  C_5
REMARK    4  A    between atoms: C_3  and  C_24
REMARK    5  A    between atoms: C_6  and  C_7
REMARK    6  A    between atoms: C_10  and  N_11
REMARK    7  A    between atoms: N_11  and  C_12
REMARK    8  A    between atoms: C_15  and  O_16
REMARK    9  A    between atoms: O_16  and  C_17
REMARK   10  A    between atoms: C_18  and  O_19
REMARK   11  A    between atoms: O_19  and  C_20
REMARK   12  A    between atoms: C_24  and  C_25
REMARK   13  A    between atoms: C_25  and  C_26
REMARK   14  A    between atoms: C_27  and  C_28
REMARK   15  A    between atoms: C_27  and  C_29
REMARK                            x       y       z     vdW  Elec       q    Type
REMARK                         _______ _______ _______ _____ _____    ______ ____
ROOT
ATOM      1  C   UNL     1       2.497   7.628  18.760  0.00  0.00    +0.000 A 
ATOM      2  C   UNL     1       2.428   8.583  17.742  0.00  0.00    +0.000 A 
ATOM      3  C   UNL     1       1.693   9.760  17.925  0.00  0.00    +0.000 A 
ATOM      4  C   UNL     1       1.022   9.999  19.128  0.00  0.00    +0.000 A 
ATOM      5  C   UNL     1       1.100   9.031  20.139  0.00  0.00    +0.000 A 
ATOM      6  C   UNL     1       1.835   7.857  19.964  0.00  0.00    +0.000 A 
ENDROOT
BRANCH   1   8
ATOM      7  C   UNL     1       4.089   6.273  17.507  0.00  0.00    +0.000 C 
ATOM      8  C   UNL     1       3.280   6.411  18.568  0.00  0.00    +0.000 C 
BRANCH   7   9
ATOM      9  C   UNL     1       4.899   5.023  17.173  0.00  0.00    +0.000 C 
ATOM     10  C   UNL     1       5.604   4.514  18.451  0.00  0.00    +0.000 C 
BRANCH   9  12
ATOM     11  C   UNL     1       6.792   4.562  15.481  0.00  0.00    +0.000 C 
ATOM     12  C   UNL     1       5.894   5.373  16.062  0.00  0.00    +0.000 C 
ENDBRANCH   9  12
BRANCH   9  13
ATOM     13  C   UNL     1       3.956   3.898  16.631  0.00  0.00    +0.000 C 
BRANCH  13  14
ATOM     14  C   UNL     1       3.606   2.806  17.659  0.00  0.00    +0.000 C 
BRANCH  14  15
ATOM     15  C   UNL     1       2.267   3.018  18.305  0.00  0.00    +0.000 C 
ATOM     16  C   UNL     1       2.009   3.038  19.626  0.00  0.00    +0.000 C 
ATOM     17  C   UNL     1       3.061   2.942  20.697  0.00  0.00    +0.000 C 
ATOM     18  C   UNL     1       0.602   3.172  20.143  0.00  0.00    +0.000 C 
ENDBRANCH  14  15
ENDBRANCH  13  14
ENDBRANCH   9  13
ENDBRANCH   7   9
ENDBRANCH   1   8
BRANCH   4  19
ATOM     19  N   UNL     1       0.215  11.147  19.258  0.00  0.00    +0.000 N 
ATOM     20  H   UNL     1       0.624  11.888  19.811  0.00  0.00    +0.000 HD
BRANCH  19  21
ATOM     21  C   UNL     1      -1.136  11.307  18.909  0.00  0.00    +0.000 A 
ATOM     22  C   UNL     1      -1.665  10.703  17.767  0.00  0.00    +0.000 A 
ATOM     23  C   UNL     1      -3.028  10.751  17.503  0.00  0.00    +0.000 A 
ATOM     24  C   UNL     1      -3.906  11.412  18.367  0.00  0.00    +0.000 A 
ATOM     25  C   UNL     1      -3.392  12.060  19.505  0.00  0.00    +0.000 A 
ATOM     26  C   UNL     1      -2.011  11.996  19.763  0.00  0.00    +0.000 A 
BRANCH  24  27
ATOM     27  O   UNL     1      -5.203  11.306  17.941  0.00  0.00    +0.000 OA
ATOM     28  C   UNL     1      -5.744  12.330  17.123  0.00  0.00    +0.000 C 
ENDBRANCH  24  27
BRANCH  25  29
ATOM     29  O   UNL     1      -4.271  12.722  20.322  0.00  0.00    +0.000 OA
ATOM     30  C   UNL     1      -3.955  14.046  20.729  0.00  0.00    +0.000 C 
ENDBRANCH  25  29
ENDBRANCH  19  21
ENDBRANCH   4  19
TORSDOF 10
ENDMDL
MODEL 8
REMARK VINA RESULT:      -7.5      3.579      5.449
REMARK  Name = 
REMARK  15 active torsions:
REMARK  status: ('A' for Active; 'I' for Inactive)
REMARK    1  A    between atoms: C_2  and  C_3
REMARK    2  A    between atoms: C_3  and  C_4
REMARK    3  A    between atoms: C_3  and  C_5
REMARK    4  A    between atoms: C_3  and  C_24
REMARK    5  A    between atoms: C_6  and  C_7
REMARK    6  A    between atoms: C_10  and  N_11
REMARK    7  A    between atoms: N_11  and  C_12
REMARK    8  A    between atoms: C_15  and  O_16
REMARK    9  A    between atoms: O_16  and  C_17
REMARK   10  A    between atoms: C_18  and  O_19
REMARK   11  A    between atoms: O_19  and  C_20
REMARK   12  A    between atoms: C_24  and  C_25
REMARK   13  A    between atoms: C_25  and  C_26
REMARK   14  A    between atoms: C_27  and  C_28
REMARK   15  A    between atoms: C_27  and  C_29
REMARK                            x       y       z     vdW  Elec       q    Type
REMARK                         _______ _______ _______ _____ _____    ______ ____
ROOT
ATOM      1  C   UNL     1       2.220   7.583  19.175  0.00  0.00    +0.000 A 
ATOM      2  C   UNL     1       2.379   8.213  17.937  0.00  0.00    +0.000 A 
ATOM      3  C   UNL     1       1.867   9.498  17.725  0.00  0.00    +0.000 A 
ATOM      4  C   UNL     1       1.194  10.172  18.748  0.00  0.00    +0.000 A 
ATOM      5  C   UNL     1       1.042   9.527  19.985  0.00  0.00    +0.000 A 
ATOM      6  C   UNL     1       1.554   8.248  20.203  0.00  0.00    +0.000 A 
ENDROOT
BRANCH   1   8
ATOM      7  C   UNL     1       2.406   5.219  18.618  0.00  0.00    +0.000 C 
ATOM      8  C   UNL     1       2.772   6.250  19.393  0.00  0.00    +0.000 C 
BRANCH   7   9
ATOM      9  C   UNL     1       2.867   3.774  18.797  0.00  0.00    +0.000 C 
ATOM     10  C   UNL     1       2.590   2.985  17.498  0.00  0.00    +0.000 C 
BRANCH   9  12
ATOM     11  C   UNL     1       0.875   3.410  20.395  0.00  0.00    +0.000 C 
ATOM     12  C   UNL     1       2.138   3.179  20.005  0.00  0.00    +0.000 C 
ENDBRANCH   9  12
BRANCH   9  13
ATOM     13  C   UNL     1       4.402   3.731  19.099  0.00  0.00    +0.000 C 
BRANCH  13  14
ATOM     14  C   UNL     1       5.303   3.955  17.870  0.00  0.00    +0.000 C 
BRANCH  14  15
ATOM     15  C   UNL     1       6.217   5.136  18.022  0.00  0.00    +0.000 C 
ATOM     16  C   UNL     1       6.204   6.259  17.281  0.00  0.00    +0.000 C 
ATOM     17  C   UNL     1       5.186   6.560  16.214  0.00  0.00    +0.000 C 
ATOM     18  C   UNL     1       7.238   7.335  17.478  0.00  0.00    +0.000 C 
ENDBRANCH  14  15
ENDBRANCH  13  14
ENDBRANCH   9  13
ENDBRANCH   7   9
ENDBRANCH   1   8
BRANCH   4  19
ATOM     19  N   UNL     1       0.609  11.427  18.487  0.00  0.00    +0.000 N 
ATOM     20  H   UNL     1      -0.259  11.387  17.968  0.00  0.00    +0.000 HD
BRANCH  19  21
ATOM     21  C   UNL     1       1.169  12.703  18.660  0.00  0.00    +0.000 A 
ATOM     22  C   UNL     1       2.453  12.998  18.198  0.00  0.00    +0.000 A 
ATOM     23  C   UNL     1       2.947  14.295  18.249  0.00  0.00    +0.000 A 
ATOM     24  C   UNL     1       2.177  15.339  18.773  0.00  0.00    +0.000 A 
ATOM     25  C   UNL     1       0.894  15.060  19.279  0.00  0.00    +0.000 A 
ATOM     26  C   UNL     1       0.405  13.742  19.213  0.00  0.00    +0.000 A 
BRANCH  24  27
ATOM     27  O   UNL     1       2.836  16.537  18.694  0.00  0.00    +0.000 OA
ATOM     28  C   UNL     1       4.224  16.541  18.407  0.00  0.00    +0.000 C 
ENDBRANCH  24  27
BRANCH  25  29
ATOM     29  O   UNL     1       0.171  16.096  19.809  0.00  0.00    +0.000 OA
ATOM     30  C   UNL     1      -1.212  15.896  20.069  0.00  0.00    +0.000 C 
ENDBRANCH  25  29
ENDBRANCH  19  21
ENDBRANCH   4  19
TORSDOF 10
ENDMDL
MODEL 9
REMARK VINA RESULT:      -7.4      1.881      4.268
REMARK  Name = 
REMARK  15 active torsions:
REMARK  status: ('A' for Active; 'I' for Inactive)
REMARK    1  A    between atoms: C_2  and  C_3
REMARK    2  A    between atoms: C_3  and  C_4
REMARK    3  A    between atoms: C_3  and  C_5
REMARK    4  A    between atoms: C_3  and  C_24
REMARK    5  A    between atoms: C_6  and  C_7
REMARK    6  A    between atoms: C_10  and  N_11
REMARK    7  A    between atoms: N_11  and  C_12
REMARK    8  A    between atoms: C_15  and  O_16
REMARK    9  A    between atoms: O_16  and  C_17
REMARK   10  A    between atoms: C_18  and  O_19
REMARK   11  A    between atoms: O_19  and  C_20
REMARK   12  A    between atoms: C_24  and  C_25
REMARK   13  A    between atoms: C_25  and  C_26
REMARK   14  A    between atoms: C_27  and  C_28
REMARK   15  A    between atoms: C_27  and  C_29
REMARK                            x       y       z     vdW  Elec       q    Type
REMARK                         _______ _______ _______ _____ _____    ______ ____
ROOT
ATOM      1  C   UNL     1       2.655   7.421  18.873  0.00  0.00    +0.000 A 
ATOM      2  C   UNL     1       1.865   7.700  19.992  0.00  0.00    +0.000 A 
ATOM      3  C   UNL     1       1.064   8.846  20.024  0.00  0.00    +0.000 A 
ATOM      4  C   UNL     1       1.039   9.727  18.938  0.00  0.00    +0.000 A 
ATOM      5  C   UNL     1       1.837   9.433  17.822  0.00  0.00    +0.000 A 
ATOM      6  C   UNL     1       2.635   8.289  17.783  0.00  0.00    +0.000 A 
ENDROOT
BRANCH   1   8
ATOM      7  C   UNL     1       4.490   6.094  17.973  0.00  0.00    +0.000 C 
ATOM      8  C   UNL     1       3.474   6.213  18.840  0.00  0.00    +0.000 C 
BRANCH   7   9
ATOM      9  C   UNL     1       5.367   4.855  17.806  0.00  0.00    +0.000 C 
ATOM     10  C   UNL     1       5.101   3.881  18.977  0.00  0.00    +0.000 C 
BRANCH   9  12
ATOM     11  C   UNL     1       7.311   6.549  17.847  0.00  0.00    +0.000 C 
ATOM     12  C   UNL     1       6.830   5.301  17.744  0.00  0.00    +0.000 C 
ENDBRANCH   9  12
BRANCH   9  13
ATOM     13  C   UNL     1       5.031   4.133  16.459  0.00  0.00    +0.000 C 
BRANCH  13  14
ATOM     14  C   UNL     1       5.556   4.849  15.201  0.00  0.00    +0.000 C 
BRANCH  14  15
ATOM     15  C   UNL     1       5.681   3.935  14.016  0.00  0.00    +0.000 C 
ATOM     16  C   UNL     1       6.573   4.041  13.014  0.00  0.00    +0.000 C 
ATOM     17  C   UNL     1       7.677   5.062  12.964  0.00  0.00    +0.000 C 
ATOM     18  C   UNL     1       6.533   3.107  11.834  0.00  0.00    +0.000 C 
ENDBRANCH  14  15
ENDBRANCH  13  14
ENDBRANCH   9  13
ENDBRANCH   7   9
ENDBRANCH   1   8
BRANCH   4  19
ATOM     19  N   UNL     1       0.295  10.920  19.027  0.00  0.00    +0.000 N 
ATOM     20  H   UNL     1       0.768  11.676  19.505  0.00  0.00    +0.000 HD
BRANCH  19  21
ATOM     21  C   UNL     1      -1.063  11.125  18.736  0.00  0.00    +0.000 A 
ATOM     22  C   UNL     1      -1.692  10.436  17.698  0.00  0.00    +0.000 A 
ATOM     23  C   UNL     1      -3.064  10.538  17.504  0.00  0.00    +0.000 A 
ATOM     24  C   UNL     1      -3.851  11.341  18.336  0.00  0.00    +0.000 A 
ATOM     25  C   UNL     1      -3.234  12.075  19.366  0.00  0.00    +0.000 A 
ATOM     26  C   UNL     1      -1.845  11.954  19.555  0.00  0.00    +0.000 A 
BRANCH  24  27
ATOM     27  O   UNL     1      -5.175  11.271  17.995  0.00  0.00    +0.000 OA
ATOM     28  C   UNL     1      -5.725  12.274  17.157  0.00  0.00    +0.000 C 
ENDBRANCH  24  27
BRANCH  25  29
ATOM     29  O   UNL     1      -4.024  12.874  20.151  0.00  0.00    +0.000 OA
ATOM     30  C   UNL     1      -3.830  12.849  21.558  0.00  0.00    +0.000 C 
ENDBRANCH  25  29
ENDBRANCH  19  21
ENDBRANCH   4  19
TORSDOF 10
ENDMDL
