MODEL 1
REMARK VINA RESULT:      -7.2      0.000      0.000
REMARK  Name = 
REMARK  6 active torsions:
REMARK  status: ('A' for Active; 'I' for Inactive)
REMARK    1  A    between atoms: C_1  and  N_2
REMARK    2  A    between atoms: N_2  and  C_3
REMARK    3  A    between atoms: C_4  and  C_6
REMARK    4  A    between atoms: C_6  and  N_7
REMARK    5  A    between atoms: N_11  and  C_12
REMARK    6  A    between atoms: C_12  and  C_13
REMARK                            x       y       z     vdW  Elec       q    Type
REMARK                         _______ _______ _______ _____ _____    ______ ____
ROOT
ATOM      1  N   UNL     1       1.408   4.065  20.767  0.00  0.00    +0.000 NA
ATOM      2  C   UNL     1       1.026   4.113  19.345  0.00  0.00    +0.000 C 
ATOM      3  C   UNL     1       1.583   2.872  18.647  0.00  0.00    +0.000 C 
ATOM      4  C   UNL     1       2.484   3.125  17.442  0.00  0.00    +0.000 C 
ATOM      5  N   UNL     1       3.832   2.967  17.932  0.00  0.00    +0.000 N 
ATOM      6  C   UNL     1       3.884   2.568  19.255  0.00  0.00    +0.000 C 
ATOM      7  O   UNL     1       4.887   2.459  19.940  0.00  0.00    +0.000 OA
ATOM      8  C   UNL     1       2.480   2.210  19.676  0.00  0.00    +0.000 C 
ATOM      9  C   UNL     1       2.084   2.782  21.017  0.00  0.00    +0.000 C 
ENDROOT
BRANCH   1  10
ATOM     10  C   UNL     1       2.215   5.246  21.140  0.00  0.00    +0.000 C 
BRANCH  10  14
ATOM     11  C   UNL     1       1.941   8.558  19.192  0.00  0.00    +0.000 C 
ATOM     12  N   UNL     1       1.618   7.480  20.111  0.00  0.00    +0.000 N 
ATOM     13  C   UNL     1       0.817   7.843  21.272  0.00  0.00    +0.000 C 
ATOM     14  C   UNL     1       2.345   6.292  20.018  0.00  0.00    +0.000 C 
ATOM     15  O   UNL     1       3.060   6.027  19.043  0.00  0.00    +0.000 OA
ENDBRANCH  10  14
ENDBRANCH   1  10
BRANCH   5  16
ATOM     16  C   UNL     1       5.009   3.207  17.113  0.00  0.00    +0.000 C 
BRANCH  16  17
ATOM     17  C   UNL     1       5.627   4.584  17.265  0.00  0.00    +0.000 A 
ATOM     18  C   UNL     1       5.238   5.647  16.438  0.00  0.00    +0.000 A 
ATOM     19  C   UNL     1       5.918   6.878  16.472  0.00  0.00    +0.000 A 
ATOM     20  C   UNL     1       6.990   7.055  17.344  0.00  0.00    +0.000 A 
ATOM     21  C   UNL     1       7.362   6.011  18.183  0.00  0.00    +0.000 A 
ATOM     22  F   UNL     1       8.400   6.171  19.015  0.00  0.00    +0.000 F 
ATOM     23  C   UNL     1       6.694   4.788  18.154  0.00  0.00    +0.000 A 
ENDBRANCH  16  17
ENDBRANCH   5  16
TORSDOF 4
ENDMDL
MODEL 2
REMARK VINA RESULT:      -7.2      2.500      5.477
REMARK  Name = 
REMARK  6 active torsions:
REMARK  status: ('A' for Active; 'I' for Inactive)
REMARK    1  A    between atoms: C_1  and  N_2
REMARK    2  A    between atoms: N_2  and  C_3
REMARK    3  A    between atoms: C_4  and  C_6
REMARK    4  A    between atoms: C_6  and  N_7
REMARK    5  A    between atoms: N_11  and  C_12
REMARK    6  A    between atoms: C_12  and  C_13
REMARK                            x       y       z     vdW  Elec       q    Type
REMARK                         _______ _______ _______ _____ _____    ______ ____
ROOT
ATOM      1  N   UNL     1       2.208   1.646  19.343  0.00  0.00    +0.000 NA
ATOM      2  C   UNL     1       2.422   2.268  20.662  0.00  0.00    +0.000 C 
ATOM      3  C   UNL     1       1.453   3.440  20.814  0.00  0.00    +0.000 C 
ATOM      4  C   UNL     1       2.081   4.796  21.121  0.00  0.00    +0.000 C 
ATOM      5  N   UNL     1       2.108   5.499  19.861  0.00  0.00    +0.000 N 
ATOM      6  C   UNL     1       1.508   4.795  18.835  0.00  0.00    +0.000 C 
ATOM      7  O   UNL     1       1.481   5.110  17.658  0.00  0.00    +0.000 OA
ATOM      8  C   UNL     1       0.814   3.603  19.448  0.00  0.00    +0.000 C 
ATOM      9  C   UNL     1       1.058   2.310  18.707  0.00  0.00    +0.000 C 
ENDROOT
BRANCH   1  10
ATOM     10  C   UNL     1       3.442   1.684  18.531  0.00  0.00    +0.000 C 
BRANCH  10  14
ATOM     11  C   UNL     1       5.753   4.751  18.841  0.00  0.00    +0.000 C 
ATOM     12  N   UNL     1       4.949   3.697  18.244  0.00  0.00    +0.000 N 
ATOM     13  C   UNL     1       4.376   3.987  16.937  0.00  0.00    +0.000 C 
ATOM     14  C   UNL     1       4.509   2.657  19.064  0.00  0.00    +0.000 C 
ATOM     15  O   UNL     1       4.976   2.461  20.194  0.00  0.00    +0.000 OA
ENDBRANCH  10  14
ENDBRANCH   1  10
BRANCH   5  16
ATOM     16  C   UNL     1       2.712   6.811  19.696  0.00  0.00    +0.000 C 
BRANCH  16  17
ATOM     17  C   UNL     1       1.790   7.983  19.975  0.00  0.00    +0.000 A 
ATOM     18  C   UNL     1       1.136   8.111  21.209  0.00  0.00    +0.000 A 
ATOM     19  C   UNL     1       0.164   9.108  21.413  0.00  0.00    +0.000 A 
ATOM     20  C   UNL     1      -0.154   9.989  20.382  0.00  0.00    +0.000 A 
ATOM     21  C   UNL     1       0.512   9.881  19.167  0.00  0.00    +0.000 A 
ATOM     22  F   UNL     1       0.202  10.719  18.168  0.00  0.00    +0.000 F 
ATOM     23  C   UNL     1       1.475   8.895  18.957  0.00  0.00    +0.000 A 
ENDBRANCH  16  17
ENDBRANCH   5  16
TORSDOF 4
ENDMDL
MODEL 3
REMARK VINA RESULT:      -7.1      1.203      1.566
REMARK  Name = 
REMARK  6 active torsions:
REMARK  status: ('A' for Active; 'I' for Inactive)
REMARK    1  A    between atoms: C_1  and  N_2
REMARK    2  A    between atoms: N_2  and  C_3
REMARK    3  A    between atoms: C_4  and  C_6
REMARK    4  A    between atoms: C_6  and  N_7
REMARK    5  A    between atoms: N_11  and  C_12
REMARK    6  A    between atoms: C_12  and  C_13
REMARK                            x       y       z     vdW  Elec       q    Type
REMARK                         _______ _______ _______ _____ _____    ______ ____
ROOT
ATOM      1  N   UNL     1       1.454   4.234  20.914  0.00  0.00    +0.000 NA
ATOM      2  C   UNL     1       0.992   4.143  19.517  0.00  0.00    +0.000 C 
ATOM      3  C   UNL     1       1.447   2.804  18.937  0.00  0.00    +0.000 C 
ATOM      4  C   UNL     1       2.286   2.873  17.665  0.00  0.00    +0.000 C 
ATOM      5  N   UNL     1       3.652   2.698  18.097  0.00  0.00    +0.000 N 
ATOM      6  C   UNL     1       3.763   2.447  19.452  0.00  0.00    +0.000 C 
ATOM      7  O   UNL     1       4.798   2.361  20.090  0.00  0.00    +0.000 OA
ATOM      8  C   UNL     1       2.371   2.214  19.986  0.00  0.00    +0.000 C 
ATOM      9  C   UNL     1       2.082   2.952  21.272  0.00  0.00    +0.000 C 
ENDROOT
BRANCH   1  10
ATOM     10  C   UNL     1       2.337   5.404  21.106  0.00  0.00    +0.000 C 
BRANCH  10  14
ATOM     11  C   UNL     1       2.001   8.544  18.901  0.00  0.00    +0.000 C 
ATOM     12  N   UNL     1       1.725   7.563  19.937  0.00  0.00    +0.000 N 
ATOM     13  C   UNL     1       1.044   8.057  21.125  0.00  0.00    +0.000 C 
ATOM     14  C   UNL     1       2.401   6.343  19.887  0.00  0.00    +0.000 C 
ATOM     15  O   UNL     1       3.017   5.967  18.882  0.00  0.00    +0.000 OA
ENDBRANCH  10  14
ENDBRANCH   1  10
BRANCH   5  16
ATOM     16  C   UNL     1       4.788   2.782  17.194  0.00  0.00    +0.000 C 
BRANCH  16  17
ATOM     17  C   UNL     1       5.383   4.169  17.037  0.00  0.00    +0.000 A 
ATOM     18  C   UNL     1       6.340   4.652  17.940  0.00  0.00    +0.000 A 
ATOM     19  C   UNL     1       6.776   5.989  17.888  0.00  0.00    +0.000 A 
ATOM     20  C   UNL     1       6.259   6.850  16.922  0.00  0.00    +0.000 A 
ATOM     21  C   UNL     1       5.330   6.366  16.010  0.00  0.00    +0.000 A 
ATOM     22  F   UNL     1       4.821   7.193  15.085  0.00  0.00    +0.000 F 
ATOM     23  C   UNL     1       4.892   5.044  16.056  0.00  0.00    +0.000 A 
ENDBRANCH  16  17
ENDBRANCH   5  16
TORSDOF 4
ENDMDL
MODEL 4
REMARK VINA RESULT:      -7.1      3.341      6.662
REMARK  Name = 
REMARK  6 active torsions:
REMARK  status: ('A' for Active; 'I' for Inactive)
REMARK    1  A    between atoms: C_1  and  N_2
REMARK    2  A    between atoms: N_2  and  C_3
REMARK    3  A    between atoms: C_4  and  C_6
REMARK    4  A    between atoms: C_6  and  N_7
REMARK    5  A    between atoms: N_11  and  C_12
REMARK    6  A    between atoms: C_12  and  C_13
REMARK                            x       y       z     vdW  Elec       q    Type
REMARK                         _______ _______ _______ _____ _____    ______ ____
ROOT
ATOM      1  N   UNL     1       6.720   6.310  15.727  0.00  0.00    +0.000 NA
ATOM      2  C   UNL     1       5.267   6.074  15.795  0.00  0.00    +0.000 C 
ATOM      3  C   UNL     1       4.796   6.329  17.226  0.00  0.00    +0.000 C 
ATOM      4  C   UNL     1       4.064   5.178  17.910  0.00  0.00    +0.000 C 
ATOM      5  N   UNL     1       5.044   4.555  18.766  0.00  0.00    +0.000 N 
ATOM      6  C   UNL     1       6.259   5.216  18.769  0.00  0.00    +0.000 C 
ATOM      7  O   UNL     1       7.282   4.849  19.321  0.00  0.00    +0.000 OA
ATOM      8  C   UNL     1       6.068   6.519  18.032  0.00  0.00    +0.000 C 
ATOM      9  C   UNL     1       7.162   6.819  17.035  0.00  0.00    +0.000 C 
ENDROOT
BRANCH   1  10
ATOM     10  C   UNL     1       7.436   5.093  15.289  0.00  0.00    +0.000 C 
BRANCH  10  14
ATOM     11  C   UNL     1       6.028   3.161  12.269  0.00  0.00    +0.000 C 
ATOM     12  N   UNL     1       6.633   4.225  13.051  0.00  0.00    +0.000 N 
ATOM     13  C   UNL     1       7.546   5.108  12.339  0.00  0.00    +0.000 C 
ATOM     14  C   UNL     1       6.577   4.135  14.443  0.00  0.00    +0.000 C 
ATOM     15  O   UNL     1       5.829   3.340  15.027  0.00  0.00    +0.000 OA
ENDBRANCH  10  14
ENDBRANCH   1  10
BRANCH   5  16
ATOM     16  C   UNL     1       4.775   3.355  19.540  0.00  0.00    +0.000 C 
BRANCH  16  17
ATOM     17  C   UNL     1       3.309   2.988  19.670  0.00  0.00    +0.000 A 
ATOM     18  C   UNL     1       2.497   2.844  18.535  0.00  0.00    +0.000 A 
ATOM     19  C   UNL     1       1.108   2.658  18.658  0.00  0.00    +0.000 A 
ATOM     20  C   UNL     1       0.523   2.608  19.922  0.00  0.00    +0.000 A 
ATOM     21  C   UNL     1       1.329   2.725  21.047  0.00  0.00    +0.000 A 
ATOM     22  F   UNL     1       0.771   2.688  22.265  0.00  0.00    +0.000 F 
ATOM     23  C   UNL     1       2.706   2.910  20.934  0.00  0.00    +0.000 A 
ENDBRANCH  16  17
ENDBRANCH   5  16
TORSDOF 4
ENDMDL
MODEL 5
REMARK VINA RESULT:      -7.0      0.865      1.110
REMARK  Name = 
REMARK  6 active torsions:
REMARK  status: ('A' for Active; 'I' for Inactive)
REMARK    1  A    between atoms: C_1  and  N_2
REMARK    2  A    between atoms: N_2  and  C_3
REMARK    3  A    between atoms: C_4  and  C_6
REMARK    4  A    between atoms: C_6  and  N_7
REMARK    5  A    between atoms: N_11  and  C_12
REMARK    6  A    between atoms: C_12  and  C_13
REMARK                            x       y       z     vdW  Elec       q    Type
REMARK                         _______ _______ _______ _____ _____    ______ ____
ROOT
ATOM      1  N   UNL     1       1.401   4.233  20.601  0.00  0.00    +0.000 NA
ATOM      2  C   UNL     1       1.074   4.315  19.167  0.00  0.00    +0.000 C 
ATOM      3  C   UNL     1       1.576   3.048  18.477  0.00  0.00    +0.000 C 
ATOM      4  C   UNL     1       2.534   3.254  17.306  0.00  0.00    +0.000 C 
ATOM      5  N   UNL     1       3.851   3.008  17.840  0.00  0.00    +0.000 N 
ATOM      6  C   UNL     1       3.832   2.597  19.160  0.00  0.00    +0.000 C 
ATOM      7  O   UNL     1       4.801   2.421  19.879  0.00  0.00    +0.000 OA
ATOM      8  C   UNL     1       2.394   2.324  19.530  0.00  0.00    +0.000 C 
ATOM      9  C   UNL     1       1.988   2.908  20.861  0.00  0.00    +0.000 C 
ENDROOT
BRANCH   1  10
ATOM     10  C   UNL     1       2.267   5.359  21.013  0.00  0.00    +0.000 C 
BRANCH  10  14
ATOM     11  C   UNL     1       1.659   8.574  18.981  0.00  0.00    +0.000 C 
ATOM     12  N   UNL     1       2.329   7.405  19.526  0.00  0.00    +0.000 N 
ATOM     13  C   UNL     1       3.371   6.816  18.695  0.00  0.00    +0.000 C 
ATOM     14  C   UNL     1       1.732   6.741  20.598  0.00  0.00    +0.000 C 
ATOM     15  O   UNL     1       0.811   7.241  21.258  0.00  0.00    +0.000 OA
ENDBRANCH  10  14
ENDBRANCH   1  10
BRANCH   5  16
ATOM     16  C   UNL     1       5.068   3.181  17.065  0.00  0.00    +0.000 C 
BRANCH  16  17
ATOM     17  C   UNL     1       5.728   4.540  17.199  0.00  0.00    +0.000 A 
ATOM     18  C   UNL     1       5.510   5.547  16.247  0.00  0.00    +0.000 A 
ATOM     19  C   UNL     1       6.240   6.749  16.285  0.00  0.00    +0.000 A 
ATOM     20  C   UNL     1       7.189   6.954  17.285  0.00  0.00    +0.000 A 
ATOM     21  C   UNL     1       7.388   5.969  18.244  0.00  0.00    +0.000 A 
ATOM     22  F   UNL     1       8.308   6.155  19.201  0.00  0.00    +0.000 F 
ATOM     23  C   UNL     1       6.670   4.775  18.212  0.00  0.00    +0.000 A 
ENDBRANCH  16  17
ENDBRANCH   5  16
TORSDOF 4
ENDMDL
MODEL 6
REMARK VINA RESULT:      -7.0      3.431      6.803
REMARK  Name = 
REMARK  6 active torsions:
REMARK  status: ('A' for Active; 'I' for Inactive)
REMARK    1  A    between atoms: C_1  and  N_2
REMARK    2  A    between atoms: N_2  and  C_3
REMARK    3  A    between atoms: C_4  and  C_6
REMARK    4  A    between atoms: C_6  and  N_7
REMARK    5  A    between atoms: N_11  and  C_12
REMARK    6  A    between atoms: C_12  and  C_13
REMARK                            x       y       z     vdW  Elec       q    Type
REMARK                         _______ _______ _______ _____ _____    ______ ____
ROOT
ATOM      1  N   UNL     1       6.835   6.204  15.495  0.00  0.00    +0.000 NA
ATOM      2  C   UNL     1       5.367   6.107  15.583  0.00  0.00    +0.000 C 
ATOM      3  C   UNL     1       4.940   6.423  17.016  0.00  0.00    +0.000 C 
ATOM      4  C   UNL     1       4.111   5.353  17.721  0.00  0.00    +0.000 C 
ATOM      5  N   UNL     1       5.038   4.651  18.575  0.00  0.00    +0.000 N 
ATOM      6  C   UNL     1       6.310   5.193  18.555  0.00  0.00    +0.000 C 
ATOM      7  O   UNL     1       7.300   4.738  19.101  0.00  0.00    +0.000 OA
ATOM      8  C   UNL     1       6.234   6.500  17.804  0.00  0.00    +0.000 C 
ATOM      9  C   UNL     1       7.339   6.684  16.792  0.00  0.00    +0.000 C 
ENDROOT
BRANCH   1  10
ATOM     10  C   UNL     1       7.427   4.920  15.065  0.00  0.00    +0.000 C 
BRANCH  10  14
ATOM     11  C   UNL     1       5.731   3.003  12.186  0.00  0.00    +0.000 C 
ATOM     12  N   UNL     1       6.460   4.039  12.898  0.00  0.00    +0.000 N 
ATOM     13  C   UNL     1       7.420   4.804  12.114  0.00  0.00    +0.000 C 
ATOM     14  C   UNL     1       6.452   4.012  14.294  0.00  0.00    +0.000 C 
ATOM     15  O   UNL     1       5.659   3.313  14.939  0.00  0.00    +0.000 OA
ENDBRANCH  10  14
ENDBRANCH   1  10
BRANCH   5  16
ATOM     16  C   UNL     1       4.666   3.490  19.366  0.00  0.00    +0.000 C 
BRANCH  16  17
ATOM     17  C   UNL     1       3.186   3.370  19.676  0.00  0.00    +0.000 A 
ATOM     18  C   UNL     1       2.659   3.851  20.883  0.00  0.00    +0.000 A 
ATOM     19  C   UNL     1       1.320   3.603  21.239  0.00  0.00    +0.000 A 
ATOM     20  C   UNL     1       0.498   2.876  20.381  0.00  0.00    +0.000 A 
ATOM     21  C   UNL     1       1.011   2.420  19.173  0.00  0.00    +0.000 A 
ATOM     22  F   UNL     1       0.227   1.710  18.349  0.00  0.00    +0.000 F 
ATOM     23  C   UNL     1       2.336   2.661  18.814  0.00  0.00    +0.000 A 
ENDBRANCH  16  17
ENDBRANCH   5  16
TORSDOF 4
ENDMDL
MODEL 7
REMARK VINA RESULT:      -7.0      1.882      2.164
REMARK  Name = 
REMARK  6 active torsions:
REMARK  status: ('A' for Active; 'I' for Inactive)
REMARK    1  A    between atoms: C_1  and  N_2
REMARK    2  A    between atoms: N_2  and  C_3
REMARK    3  A    between atoms: C_4  and  C_6
REMARK    4  A    between atoms: C_6  and  N_7
REMARK    5  A    between atoms: N_11  and  C_12
REMARK    6  A    between atoms: C_12  and  C_13
REMARK                            x       y       z     vdW  Elec       q    Type
REMARK                         _______ _______ _______ _____ _____    ______ ____
ROOT
ATOM      1  N   UNL     1       1.646   5.183  20.797  0.00  0.00    +0.000 NA
ATOM      2  C   UNL     1       0.912   4.572  19.675  0.00  0.00    +0.000 C 
ATOM      3  C   UNL     1       1.375   3.124  19.518  0.00  0.00    +0.000 C 
ATOM      4  C   UNL     1       1.914   2.736  18.144  0.00  0.00    +0.000 C 
ATOM      5  N   UNL     1       3.351   2.763  18.275  0.00  0.00    +0.000 N 
ATOM      6  C   UNL     1       3.772   3.034  19.563  0.00  0.00    +0.000 C 
ATOM      7  O   UNL     1       4.922   3.214  19.928  0.00  0.00    +0.000 OA
ATOM      8  C   UNL     1       2.557   2.984  20.458  0.00  0.00    +0.000 C 
ATOM      9  C   UNL     1       2.469   4.139  21.427  0.00  0.00    +0.000 C 
ENDROOT
BRANCH   1  10
ATOM     10  C   UNL     1       2.419   6.360  20.347  0.00  0.00    +0.000 C 
BRANCH  10  14
ATOM     11  C   UNL     1       0.766   9.688  19.331  0.00  0.00    +0.000 C 
ATOM     12  N   UNL     1       1.700   8.575  19.355  0.00  0.00    +0.000 N 
ATOM     13  C   UNL     1       2.376   8.275  18.100  0.00  0.00    +0.000 C 
ATOM     14  C   UNL     1       1.640   7.686  20.429  0.00  0.00    +0.000 C 
ATOM     15  O   UNL     1       1.015   7.941  21.467  0.00  0.00    +0.000 OA
ENDBRANCH  10  14
ENDBRANCH   1  10
BRANCH   5  16
ATOM     16  C   UNL     1       4.255   2.533  17.160  0.00  0.00    +0.000 C 
BRANCH  16  17
ATOM     17  C   UNL     1       4.875   3.783  16.566  0.00  0.00    +0.000 A 
ATOM     18  C   UNL     1       4.418   5.059  16.929  0.00  0.00    +0.000 A 
ATOM     19  C   UNL     1       4.883   6.209  16.266  0.00  0.00    +0.000 A 
ATOM     20  C   UNL     1       5.816   6.089  15.238  0.00  0.00    +0.000 A 
ATOM     21  C   UNL     1       6.289   4.829  14.895  0.00  0.00    +0.000 A 
ATOM     22  F   UNL     1       7.178   4.706  13.899  0.00  0.00    +0.000 F 
ATOM     23  C   UNL     1       5.833   3.684  15.546  0.00  0.00    +0.000 A 
ENDBRANCH  16  17
ENDBRANCH   5  16
TORSDOF 4
ENDMDL
MODEL 8
REMARK VINA RESULT:      -7.0      3.660      6.817
REMARK  Name = 
REMARK  6 active torsions:
REMARK  status: ('A' for Active; 'I' for Inactive)
REMARK    1  A    between atoms: C_1  and  N_2
REMARK    2  A    between atoms: N_2  and  C_3
REMARK    3  A    between atoms: C_4  and  C_6
REMARK    4  A    between atoms: C_6  and  N_7
REMARK    5  A    between atoms: N_11  and  C_12
REMARK    6  A    between atoms: C_12  and  C_13
REMARK                            x       y       z     vdW  Elec       q    Type
REMARK                         _______ _______ _______ _____ _____    ______ ____
ROOT
ATOM      1  N   UNL     1       6.436   6.189  15.589  0.00  0.00    +0.000 NA
ATOM      2  C   UNL     1       5.016   6.172  15.982  0.00  0.00    +0.000 C 
ATOM      3  C   UNL     1       4.919   6.467  17.478  0.00  0.00    +0.000 C 
ATOM      4  C   UNL     1       4.191   5.425  18.323  0.00  0.00    +0.000 C 
ATOM      5  N   UNL     1       5.230   4.645  18.949  0.00  0.00    +0.000 N 
ATOM      6  C   UNL     1       6.501   5.114  18.672  0.00  0.00    +0.000 C 
ATOM      7  O   UNL     1       7.553   4.586  18.988  0.00  0.00    +0.000 OA
ATOM      8  C   UNL     1       6.351   6.446  17.978  0.00  0.00    +0.000 C 
ATOM      9  C   UNL     1       7.229   6.598  16.759  0.00  0.00    +0.000 C 
ENDROOT
BRANCH   1  10
ATOM     10  C   UNL     1       6.844   4.887  15.019  0.00  0.00    +0.000 C 
BRANCH  10  14
ATOM     11  C   UNL     1       7.309   4.495  11.216  0.00  0.00    +0.000 C 
ATOM     12  N   UNL     1       6.911   4.206  12.583  0.00  0.00    +0.000 N 
ATOM     13  C   UNL     1       5.729   3.370  12.745  0.00  0.00    +0.000 C 
ATOM     14  C   UNL     1       7.448   4.987  13.607  0.00  0.00    +0.000 C 
ATOM     15  O   UNL     1       8.423   5.729  13.432  0.00  0.00    +0.000 OA
ENDBRANCH  10  14
ENDBRANCH   1  10
BRANCH   5  16
ATOM     16  C   UNL     1       4.961   3.482  19.780  0.00  0.00    +0.000 C 
BRANCH  16  17
ATOM     17  C   UNL     1       3.525   2.995  19.757  0.00  0.00    +0.000 A 
ATOM     18  C   UNL     1       2.884   2.690  18.548  0.00  0.00    +0.000 A 
ATOM     19  C   UNL     1       1.510   2.389  18.512  0.00  0.00    +0.000 A 
ATOM     20  C   UNL     1       0.770   2.383  19.693  0.00  0.00    +0.000 A 
ATOM     21  C   UNL     1       1.408   2.659  20.895  0.00  0.00    +0.000 A 
ATOM     22  F   UNL     1       0.699   2.667  22.033  0.00  0.00    +0.000 F 
ATOM     23  C   UNL     1       2.769   2.960  20.938  0.00  0.00    +0.000 A 
ENDBRANCH  16  17
ENDBRANCH   5  16
TORSDOF 4
ENDMDL
MODEL 9
REMARK VINA RESULT:      -6.9      3.663      6.917
REMARK  Name = 
REMARK  6 active torsions:
REMARK  status: ('A' for Active; 'I' for Inactive)
REMARK    1  A    between atoms: C_1  and  N_2
REMARK    2  A    between atoms: N_2  and  C_3
REMARK    3  A    between atoms: C_4  and  C_6
REMARK    4  A    between atoms: C_6  and  N_7
REMARK    5  A    between atoms: N_11  and  C_12
REMARK    6  A    between atoms: C_12  and  C_13
REMARK                            x       y       z     vdW  Elec       q    Type
REMARK                         _______ _______ _______ _____ _____    ______ ____
ROOT
ATOM      1  N   UNL     1       7.529   5.141  16.215  0.00  0.00    +0.000 NA
ATOM      2  C   UNL     1       7.019   6.512  16.391  0.00  0.00    +0.000 C 
ATOM      3  C   UNL     1       6.387   6.625  17.778  0.00  0.00    +0.000 C 
ATOM      4  C   UNL     1       4.933   7.087  17.819  0.00  0.00    +0.000 C 
ATOM      5  N   UNL     1       4.154   5.885  17.999  0.00  0.00    +0.000 N 
ATOM      6  C   UNL     1       4.933   4.754  18.158  0.00  0.00    +0.000 C 
ATOM      7  O   UNL     1       4.535   3.604  18.226  0.00  0.00    +0.000 OA
ATOM      8  C   UNL     1       6.364   5.208  18.317  0.00  0.00    +0.000 C 
ATOM      9  C   UNL     1       7.347   4.419  17.485  0.00  0.00    +0.000 C 
ENDROOT
BRANCH   1  10
ATOM     10  C   UNL     1       6.889   4.480  15.058  0.00  0.00    +0.000 C 
BRANCH  10  14
ATOM     11  C   UNL     1       7.361   4.872  11.255  0.00  0.00    +0.000 C 
ATOM     12  N   UNL     1       6.998   4.291  12.537  0.00  0.00    +0.000 N 
ATOM     13  C   UNL     1       5.895   3.340  12.522  0.00  0.00    +0.000 C 
ATOM     14  C   UNL     1       7.473   4.903  13.698  0.00  0.00    +0.000 C 
ATOM     15  O   UNL     1       8.378   5.747  13.680  0.00  0.00    +0.000 OA
ENDBRANCH  10  14
ENDBRANCH   1  10
BRANCH   5  16
ATOM     16  C   UNL     1       2.701   5.874  18.006  0.00  0.00    +0.000 C 
BRANCH  16  17
ATOM     17  C   UNL     1       2.070   4.864  18.945  0.00  0.00    +0.000 A 
ATOM     18  C   UNL     1       2.268   4.944  20.331  0.00  0.00    +0.000 A 
ATOM     19  C   UNL     1       1.816   3.923  21.187  0.00  0.00    +0.000 A 
ATOM     20  C   UNL     1       1.153   2.816  20.659  0.00  0.00    +0.000 A 
ATOM     21  C   UNL     1       0.934   2.748  19.289  0.00  0.00    +0.000 A 
ATOM     22  F   UNL     1       0.307   1.681  18.774  0.00  0.00    +0.000 F 
ATOM     23  C   UNL     1       1.380   3.754  18.434  0.00  0.00    +0.000 A 
ENDBRANCH  16  17
ENDBRANCH   5  16
TORSDOF 4
ENDMDL
