MODEL 1
REMARK VINA RESULT:      -7.9      0.000      0.000
REMARK  Name = 
REMARK  5 active torsions:
REMARK  status: ('A' for Active; 'I' for Inactive)
REMARK    1  A    between atoms: C_2  and  C_10
REMARK    2  A    between atoms: N_3  and  C_4
REMARK    3  A    between atoms: C_15  and  O_16
REMARK    4  A    between atoms: O_16  and  C_17
REMARK    5  A    between atoms: C_17  and  C_18
REMARK                            x       y       z     vdW  Elec       q    Type
REMARK                         _______ _______ _______ _____ _____    ______ ____
ROOT
ATOM      1  C   UNL     1       5.232   5.676  16.298  0.00  0.00    +0.000 A 
ATOM      2  C   UNL     1       5.712   6.042  15.022  0.00  0.00    +0.000 A 
ATOM      3  C   UNL     1       6.253   5.091  14.158  0.00  0.00    +0.000 A 
ATOM      4  C   UNL     1       6.258   3.755  14.526  0.00  0.00    +0.000 A 
ATOM      5  C   UNL     1       5.731   3.369  15.759  0.00  0.00    +0.000 A 
ATOM      6  C   UNL     1       5.244   4.319  16.674  0.00  0.00    +0.000 A 
ENDROOT
BRANCH   1   8
ATOM      7  O   UNL     1       5.477   7.642  17.601  0.00  0.00    +0.000 OA
ATOM      8  C   UNL     1       4.725   6.765  17.203  0.00  0.00    +0.000 C 
ATOM      9  N   UNL     1       3.381   6.627  17.548  0.00  0.00    +0.000 N 
ATOM     10  H   UNL     1       2.871   5.883  17.093  0.00  0.00    +0.000 HD
BRANCH   9  11
ATOM     11  C   UNL     1       2.626   7.403  18.452  0.00  0.00    +0.000 A 
ATOM     12  C   UNL     1       2.341   7.045  19.764  0.00  0.00    +0.000 A 
ATOM     13  C   UNL     1       1.590   7.906  20.570  0.00  0.00    +0.000 A 
ATOM     14  C   UNL     1       1.140   9.101  20.028  0.00  0.00    +0.000 A 
ATOM     15  N   UNL     1       1.381   9.483  18.760  0.00  0.00    +0.000 NA
ATOM     16  C   UNL     1       2.117   8.627  18.009  0.00  0.00    +0.000 A 
ENDBRANCH   9  11
ENDBRANCH   1   8
BRANCH   6  17
ATOM     17  O   UNL     1       4.795   3.974  17.924  0.00  0.00    +0.000 OA
BRANCH  17  18
ATOM     18  C   UNL     1       3.968   2.808  18.007  0.00  0.00    +0.000 C 
BRANCH  18  19
ATOM     19  C   UNL     1       3.018   2.954  19.168  0.00  0.00    +0.000 A 
ATOM     20  C   UNL     1       1.753   3.554  19.027  0.00  0.00    +0.000 A 
ATOM     21 CL   UNL     1       1.157   4.116  17.502  0.00  0.00    +0.000 Cl
ATOM     22  C   UNL     1       0.902   3.707  20.128  0.00  0.00    +0.000 A 
ATOM     23  C   UNL     1       1.293   3.263  21.388  0.00  0.00    +0.000 A 
ATOM     24  C   UNL     1       2.532   2.652  21.546  0.00  0.00    +0.000 A 
ATOM     25  C   UNL     1       3.386   2.499  20.449  0.00  0.00    +0.000 A 
ATOM     26 CL   UNL     1       4.897   1.703  20.740  0.00  0.00    +0.000 Cl
ENDBRANCH  18  19
ENDBRANCH  17  18
ENDBRANCH   6  17
TORSDOF 5
ENDMDL
MODEL 2
REMARK VINA RESULT:      -7.7      0.562      2.068
REMARK  Name = 
REMARK  5 active torsions:
REMARK  status: ('A' for Active; 'I' for Inactive)
REMARK    1  A    between atoms: C_2  and  C_10
REMARK    2  A    between atoms: N_3  and  C_4
REMARK    3  A    between atoms: C_15  and  O_16
REMARK    4  A    between atoms: O_16  and  C_17
REMARK    5  A    between atoms: C_17  and  C_18
REMARK                            x       y       z     vdW  Elec       q    Type
REMARK                         _______ _______ _______ _____ _____    ______ ____
ROOT
ATOM      1  C   UNL     1       5.274   5.685  16.266  0.00  0.00    +0.000 A 
ATOM      2  C   UNL     1       5.780   6.029  14.994  0.00  0.00    +0.000 A 
ATOM      3  C   UNL     1       6.314   5.059  14.147  0.00  0.00    +0.000 A 
ATOM      4  C   UNL     1       6.288   3.726  14.529  0.00  0.00    +0.000 A 
ATOM      5  C   UNL     1       5.736   3.363  15.758  0.00  0.00    +0.000 A 
ATOM      6  C   UNL     1       5.255   4.332  16.656  0.00  0.00    +0.000 A 
ENDROOT
BRANCH   1   8
ATOM      7  O   UNL     1       5.555   7.606  17.628  0.00  0.00    +0.000 OA
ATOM      8  C   UNL     1       4.776   6.793  17.153  0.00  0.00    +0.000 C 
ATOM      9  N   UNL     1       3.402   6.748  17.388  0.00  0.00    +0.000 N 
ATOM     10  H   UNL     1       2.878   6.051  16.877  0.00  0.00    +0.000 HD
BRANCH   9  11
ATOM     11  C   UNL     1       2.634   7.562  18.247  0.00  0.00    +0.000 A 
ATOM     12  C   UNL     1       2.063   8.779  17.892  0.00  0.00    +0.000 A 
ATOM     13  C   UNL     1       1.312   9.491  18.830  0.00  0.00    +0.000 A 
ATOM     14  C   UNL     1       1.162   8.962  20.103  0.00  0.00    +0.000 A 
ATOM     15  N   UNL     1       1.707   7.794  20.495  0.00  0.00    +0.000 NA
ATOM     16  C   UNL     1       2.424   7.127  19.558  0.00  0.00    +0.000 A 
ENDBRANCH   9  11
ENDBRANCH   1   8
BRANCH   6  17
ATOM     17  O   UNL     1       4.781   4.009  17.903  0.00  0.00    +0.000 OA
BRANCH  17  18
ATOM     18  C   UNL     1       3.938   2.854  17.987  0.00  0.00    +0.000 C 
BRANCH  18  19
ATOM     19  C   UNL     1       3.019   2.994  19.173  0.00  0.00    +0.000 A 
ATOM     20  C   UNL     1       3.372   2.522  20.451  0.00  0.00    +0.000 A 
ATOM     21 CL   UNL     1       4.911   1.802  20.782  0.00  0.00    +0.000 Cl
ATOM     22  C   UNL     1       2.488   2.634  21.530  0.00  0.00    +0.000 A 
ATOM     23  C   UNL     1       1.237   3.221  21.357  0.00  0.00    +0.000 A 
ATOM     24  C   UNL     1       0.874   3.708  20.106  0.00  0.00    +0.000 A 
ATOM     25  C   UNL     1       1.755   3.596  19.025  0.00  0.00    +0.000 A 
ATOM     26 CL   UNL     1       1.225   4.257  17.513  0.00  0.00    +0.000 Cl
ENDBRANCH  18  19
ENDBRANCH  17  18
ENDBRANCH   6  17
TORSDOF 5
ENDMDL
MODEL 3
REMARK VINA RESULT:      -7.3      2.508      6.416
REMARK  Name = 
REMARK  5 active torsions:
REMARK  status: ('A' for Active; 'I' for Inactive)
REMARK    1  A    between atoms: C_2  and  C_10
REMARK    2  A    between atoms: N_3  and  C_4
REMARK    3  A    between atoms: C_15  and  O_16
REMARK    4  A    between atoms: O_16  and  C_17
REMARK    5  A    between atoms: C_17  and  C_18
REMARK                            x       y       z     vdW  Elec       q    Type
REMARK                         _______ _______ _______ _____ _____    ______ ____
ROOT
ATOM      1  C   UNL     1       3.396   3.911  19.878  0.00  0.00    +0.000 A 
ATOM      2  C   UNL     1       3.560   2.642  20.472  0.00  0.00    +0.000 A 
ATOM      3  C   UNL     1       2.590   2.116  21.323  0.00  0.00    +0.000 A 
ATOM      4  C   UNL     1       1.414   2.817  21.538  0.00  0.00    +0.000 A 
ATOM      5  C   UNL     1       1.210   4.046  20.909  0.00  0.00    +0.000 A 
ATOM      6  C   UNL     1       2.204   4.626  20.102  0.00  0.00    +0.000 A 
ENDROOT
BRANCH   1   8
ATOM      7  O   UNL     1       5.244   5.331  19.441  0.00  0.00    +0.000 OA
ATOM      8  C   UNL     1       4.514   4.444  19.025  0.00  0.00    +0.000 C 
ATOM      9  N   UNL     1       4.577   3.866  17.757  0.00  0.00    +0.000 N 
ATOM     10  H   UNL     1       3.942   3.101  17.577  0.00  0.00    +0.000 HD
BRANCH   9  11
ATOM     11  C   UNL     1       5.426   4.204  16.682  0.00  0.00    +0.000 A 
ATOM     12  C   UNL     1       5.017   4.365  15.364  0.00  0.00    +0.000 A 
ATOM     13  C   UNL     1       5.952   4.713  14.386  0.00  0.00    +0.000 A 
ATOM     14  C   UNL     1       7.276   4.884  14.762  0.00  0.00    +0.000 A 
ATOM     15  N   UNL     1       7.720   4.727  16.024  0.00  0.00    +0.000 NA
ATOM     16  C   UNL     1       6.785   4.395  16.947  0.00  0.00    +0.000 A 
ENDBRANCH   9  11
ENDBRANCH   1   8
BRANCH   6  17
ATOM     17  O   UNL     1       2.061   5.869  19.537  0.00  0.00    +0.000 OA
BRANCH  17  18
ATOM     18  C   UNL     1       2.199   6.991  20.417  0.00  0.00    +0.000 C 
BRANCH  18  19
ATOM     19  C   UNL     1       1.678   8.228  19.732  0.00  0.00    +0.000 A 
ATOM     20  C   UNL     1       0.727   9.071  20.335  0.00  0.00    +0.000 A 
ATOM     21 CL   UNL     1       0.124   8.796  21.934  0.00  0.00    +0.000 Cl
ATOM     22  C   UNL     1       0.234  10.197  19.665  0.00  0.00    +0.000 A 
ATOM     23  C   UNL     1       0.682  10.506  18.383  0.00  0.00    +0.000 A 
ATOM     24  C   UNL     1       1.634   9.694  17.775  0.00  0.00    +0.000 A 
ATOM     25  C   UNL     1       2.127   8.567  18.441  0.00  0.00    +0.000 A 
ATOM     26 CL   UNL     1       3.329   7.634  17.613  0.00  0.00    +0.000 Cl
ENDBRANCH  18  19
ENDBRANCH  17  18
ENDBRANCH   6  17
TORSDOF 5
ENDMDL
MODEL 4
REMARK VINA RESULT:      -7.2      1.025      1.346
REMARK  Name = 
REMARK  5 active torsions:
REMARK  status: ('A' for Active; 'I' for Inactive)
REMARK    1  A    between atoms: C_2  and  C_10
REMARK    2  A    between atoms: N_3  and  C_4
REMARK    3  A    between atoms: C_15  and  O_16
REMARK    4  A    between atoms: O_16  and  C_17
REMARK    5  A    between atoms: C_17  and  C_18
REMARK                            x       y       z     vdW  Elec       q    Type
REMARK                         _______ _______ _______ _____ _____    ______ ____
ROOT
ATOM      1  C   UNL     1       5.200   5.516  17.082  0.00  0.00    +0.000 A 
ATOM      2  C   UNL     1       6.420   6.105  16.688  0.00  0.00    +0.000 A 
ATOM      3  C   UNL     1       7.244   5.490  15.747  0.00  0.00    +0.000 A 
ATOM      4  C   UNL     1       6.831   4.315  15.138  0.00  0.00    +0.000 A 
ATOM      5  C   UNL     1       5.599   3.752  15.472  0.00  0.00    +0.000 A 
ATOM      6  C   UNL     1       4.784   4.319  16.468  0.00  0.00    +0.000 A 
ENDROOT
BRANCH   1   8
ATOM      7  O   UNL     1       4.493   5.859  19.320  0.00  0.00    +0.000 OA
ATOM      8  C   UNL     1       4.394   6.202  18.151  0.00  0.00    +0.000 C 
ATOM      9  N   UNL     1       3.538   7.188  17.662  0.00  0.00    +0.000 N 
ATOM     10  H   UNL     1       3.610   7.402  16.677  0.00  0.00    +0.000 HD
BRANCH   9  11
ATOM     11  C   UNL     1       2.578   7.943  18.369  0.00  0.00    +0.000 A 
ATOM     12  C   UNL     1       1.931   9.070  17.877  0.00  0.00    +0.000 A 
ATOM     13  C   UNL     1       0.987   9.728  18.670  0.00  0.00    +0.000 A 
ATOM     14  C   UNL     1       0.726   9.237  19.941  0.00  0.00    +0.000 A 
ATOM     15  N   UNL     1       1.338   8.157  20.463  0.00  0.00    +0.000 NA
ATOM     16  C   UNL     1       2.243   7.539  19.664  0.00  0.00    +0.000 A 
ENDBRANCH   9  11
ENDBRANCH   1   8
BRANCH   6  17
ATOM     17  O   UNL     1       3.606   3.742  16.872  0.00  0.00    +0.000 OA
BRANCH  17  18
ATOM     18  C   UNL     1       3.713   2.631  17.770  0.00  0.00    +0.000 C 
BRANCH  18  19
ATOM     19  C   UNL     1       2.924   2.924  19.020  0.00  0.00    +0.000 A 
ATOM     20  C   UNL     1       1.723   3.658  18.989  0.00  0.00    +0.000 A 
ATOM     21 CL   UNL     1       1.022   4.229  17.514  0.00  0.00    +0.000 Cl
ATOM     22  C   UNL     1       1.025   3.944  20.168  0.00  0.00    +0.000 A 
ATOM     23  C   UNL     1       1.506   3.504  21.398  0.00  0.00    +0.000 A 
ATOM     24  C   UNL     1       2.683   2.763  21.448  0.00  0.00    +0.000 A 
ATOM     25  C   UNL     1       3.385   2.476  20.273  0.00  0.00    +0.000 A 
ATOM     26 CL   UNL     1       4.824   1.525  20.434  0.00  0.00    +0.000 Cl
ENDBRANCH  18  19
ENDBRANCH  17  18
ENDBRANCH   6  17
TORSDOF 5
ENDMDL
MODEL 5
REMARK VINA RESULT:      -7.2      2.536      6.444
REMARK  Name = 
REMARK  5 active torsions:
REMARK  status: ('A' for Active; 'I' for Inactive)
REMARK    1  A    between atoms: C_2  and  C_10
REMARK    2  A    between atoms: N_3  and  C_4
REMARK    3  A    between atoms: C_15  and  O_16
REMARK    4  A    between atoms: O_16  and  C_17
REMARK    5  A    between atoms: C_17  and  C_18
REMARK                            x       y       z     vdW  Elec       q    Type
REMARK                         _______ _______ _______ _____ _____    ______ ____
ROOT
ATOM      1  C   UNL     1       2.497   3.444  19.003  0.00  0.00    +0.000 A 
ATOM      2  C   UNL     1       2.413   2.138  19.530  0.00  0.00    +0.000 A 
ATOM      3  C   UNL     1       1.908   1.910  20.810  0.00  0.00    +0.000 A 
ATOM      4  C   UNL     1       1.417   2.974  21.552  0.00  0.00    +0.000 A 
ATOM      5  C   UNL     1       1.437   4.263  21.020  0.00  0.00    +0.000 A 
ATOM      6  C   UNL     1       2.004   4.525  19.761  0.00  0.00    +0.000 A 
ENDROOT
BRANCH   1   8
ATOM      7  O   UNL     1       2.520   3.259  16.639  0.00  0.00    +0.000 OA
ATOM      8  C   UNL     1       3.115   3.621  17.644  0.00  0.00    +0.000 C 
ATOM      9  N   UNL     1       4.394   4.174  17.677  0.00  0.00    +0.000 N 
ATOM     10  H   UNL     1       4.732   4.479  18.579  0.00  0.00    +0.000 HD
BRANCH   9  11
ATOM     11  C   UNL     1       5.289   4.375  16.604  0.00  0.00    +0.000 A 
ATOM     12  C   UNL     1       4.941   4.341  15.260  0.00  0.00    +0.000 A 
ATOM     13  C   UNL     1       5.916   4.568  14.285  0.00  0.00    +0.000 A 
ATOM     14  C   UNL     1       7.219   4.816  14.692  0.00  0.00    +0.000 A 
ATOM     15  N   UNL     1       7.605   4.845  15.982  0.00  0.00    +0.000 NA
ATOM     16  C   UNL     1       6.631   4.628  16.901  0.00  0.00    +0.000 A 
ENDBRANCH   9  11
ENDBRANCH   1   8
BRANCH   6  17
ATOM     17  O   UNL     1       2.109   5.794  19.250  0.00  0.00    +0.000 OA
BRANCH  17  18
ATOM     18  C   UNL     1       2.341   6.846  20.194  0.00  0.00    +0.000 C 
BRANCH  18  19
ATOM     19  C   UNL     1       1.864   8.152  19.611  0.00  0.00    +0.000 A 
ATOM     20  C   UNL     1       0.965   8.990  20.296  0.00  0.00    +0.000 A 
ATOM     21 CL   UNL     1       0.382   8.627  21.885  0.00  0.00    +0.000 Cl
ATOM     22  C   UNL     1       0.511  10.183  19.720  0.00  0.00    +0.000 A 
ATOM     23  C   UNL     1       0.946  10.563  18.453  0.00  0.00    +0.000 A 
ATOM     24  C   UNL     1       1.847   9.757  17.766  0.00  0.00    +0.000 A 
ATOM     25  C   UNL     1       2.302   8.564  18.338  0.00  0.00    +0.000 A 
ATOM     26 CL   UNL     1       3.443   7.641  17.417  0.00  0.00    +0.000 Cl
ENDBRANCH  18  19
ENDBRANCH  17  18
ENDBRANCH   6  17
TORSDOF 5
ENDMDL
MODEL 6
REMARK VINA RESULT:      -7.1      2.516      6.417
REMARK  Name = 
REMARK  5 active torsions:
REMARK  status: ('A' for Active; 'I' for Inactive)
REMARK    1  A    between atoms: C_2  and  C_10
REMARK    2  A    between atoms: N_3  and  C_4
REMARK    3  A    between atoms: C_15  and  O_16
REMARK    4  A    between atoms: O_16  and  C_17
REMARK    5  A    between atoms: C_17  and  C_18
REMARK                            x       y       z     vdW  Elec       q    Type
REMARK                         _______ _______ _______ _____ _____    ______ ____
ROOT
ATOM      1  C   UNL     1       2.497   3.579  18.958  0.00  0.00    +0.000 A 
ATOM      2  C   UNL     1       2.330   2.256  19.420  0.00  0.00    +0.000 A 
ATOM      3  C   UNL     1       1.824   1.998  20.694  0.00  0.00    +0.000 A 
ATOM      4  C   UNL     1       1.416   3.053  21.495  0.00  0.00    +0.000 A 
ATOM      5  C   UNL     1       1.519   4.364  21.030  0.00  0.00    +0.000 A 
ATOM      6  C   UNL     1       2.089   4.650  19.776  0.00  0.00    +0.000 A 
ENDROOT
BRANCH   1   8
ATOM      7  O   UNL     1       2.484   3.507  16.588  0.00  0.00    +0.000 OA
ATOM      8  C   UNL     1       3.110   3.783  17.601  0.00  0.00    +0.000 C 
ATOM      9  N   UNL     1       4.422   4.253  17.643  0.00  0.00    +0.000 N 
ATOM     10  H   UNL     1       4.788   4.493  18.553  0.00  0.00    +0.000 HD
BRANCH   9  11
ATOM     11  C   UNL     1       5.316   4.451  16.569  0.00  0.00    +0.000 A 
ATOM     12  C   UNL     1       5.302   3.733  15.379  0.00  0.00    +0.000 A 
ATOM     13  C   UNL     1       6.234   4.029  14.380  0.00  0.00    +0.000 A 
ATOM     14  C   UNL     1       7.160   5.035  14.611  0.00  0.00    +0.000 A 
ATOM     15  N   UNL     1       7.220   5.747  15.753  0.00  0.00    +0.000 NA
ATOM     16  C   UNL     1       6.297   5.438  16.697  0.00  0.00    +0.000 A 
ENDBRANCH   9  11
ENDBRANCH   1   8
BRANCH   6  17
ATOM     17  O   UNL     1       2.275   5.934  19.329  0.00  0.00    +0.000 OA
BRANCH  17  18
ATOM     18  C   UNL     1       2.206   6.971  20.314  0.00  0.00    +0.000 C 
BRANCH  18  19
ATOM     19  C   UNL     1       1.717   8.241  19.668  0.00  0.00    +0.000 A 
ATOM     20  C   UNL     1       2.190   8.671  18.414  0.00  0.00    +0.000 A 
ATOM     21 CL   UNL     1       3.321   7.749  17.483  0.00  0.00    +0.000 Cl
ATOM     22  C   UNL     1       1.744   9.871  17.849  0.00  0.00    +0.000 A 
ATOM     23  C   UNL     1       0.818  10.665  18.520  0.00  0.00    +0.000 A 
ATOM     24  C   UNL     1       0.325  10.251  19.753  0.00  0.00    +0.000 A 
ATOM     25  C   UNL     1       0.770   9.052  20.322  0.00  0.00    +0.000 A 
ATOM     26 CL   UNL     1       0.079   8.608  21.847  0.00  0.00    +0.000 Cl
ENDBRANCH  18  19
ENDBRANCH  17  18
ENDBRANCH   6  17
TORSDOF 5
ENDMDL
MODEL 7
REMARK VINA RESULT:      -7.1      2.519      6.300
REMARK  Name = 
REMARK  5 active torsions:
REMARK  status: ('A' for Active; 'I' for Inactive)
REMARK    1  A    between atoms: C_2  and  C_10
REMARK    2  A    between atoms: N_3  and  C_4
REMARK    3  A    between atoms: C_15  and  O_16
REMARK    4  A    between atoms: O_16  and  C_17
REMARK    5  A    between atoms: C_17  and  C_18
REMARK                            x       y       z     vdW  Elec       q    Type
REMARK                         _______ _______ _______ _____ _____    ______ ____
ROOT
ATOM      1  C   UNL     1       3.422   3.612  19.782  0.00  0.00    +0.000 A 
ATOM      2  C   UNL     1       3.314   2.380  20.462  0.00  0.00    +0.000 A 
ATOM      3  C   UNL     1       2.218   2.103  21.278  0.00  0.00    +0.000 A 
ATOM      4  C   UNL     1       1.184   3.022  21.370  0.00  0.00    +0.000 A 
ATOM      5  C   UNL     1       1.247   4.219  20.656  0.00  0.00    +0.000 A 
ATOM      6  C   UNL     1       2.375   4.547  19.883  0.00  0.00    +0.000 A 
ENDROOT
BRANCH   1   8
ATOM      7  O   UNL     1       5.747   4.008  19.526  0.00  0.00    +0.000 OA
ATOM      8  C   UNL     1       4.664   3.868  18.974  0.00  0.00    +0.000 C 
ATOM      9  N   UNL     1       4.431   3.969  17.603  0.00  0.00    +0.000 N 
ATOM     10  H   UNL     1       3.492   3.771  17.288  0.00  0.00    +0.000 HD
BRANCH   9  11
ATOM     11  C   UNL     1       5.345   4.305  16.582  0.00  0.00    +0.000 A 
ATOM     12  C   UNL     1       5.493   3.612  15.386  0.00  0.00    +0.000 A 
ATOM     13  C   UNL     1       6.428   4.050  14.444  0.00  0.00    +0.000 A 
ATOM     14  C   UNL     1       7.194   5.169  14.735  0.00  0.00    +0.000 A 
ATOM     15  N   UNL     1       7.094   5.862  15.885  0.00  0.00    +0.000 NA
ATOM     16  C   UNL     1       6.173   5.414  16.774  0.00  0.00    +0.000 A 
ENDBRANCH   9  11
ENDBRANCH   1   8
BRANCH   6  17
ATOM     17  O   UNL     1       2.497   5.751  19.235  0.00  0.00    +0.000 OA
BRANCH  17  18
ATOM     18  C   UNL     1       2.714   6.902  20.060  0.00  0.00    +0.000 C 
BRANCH  18  19
ATOM     19  C   UNL     1       1.994   8.084  19.465  0.00  0.00    +0.000 A 
ATOM     20  C   UNL     1       2.276   8.556  18.170  0.00  0.00    +0.000 A 
ATOM     21 CL   UNL     1       3.424   7.783  17.130  0.00  0.00    +0.000 Cl
ATOM     22  C   UNL     1       1.616   9.677  17.652  0.00  0.00    +0.000 A 
ATOM     23  C   UNL     1       0.662  10.347  18.413  0.00  0.00    +0.000 A 
ATOM     24  C   UNL     1       0.357   9.887  19.689  0.00  0.00    +0.000 A 
ATOM     25  C   UNL     1       1.015   8.769  20.211  0.00  0.00    +0.000 A 
ATOM     26 CL   UNL     1       0.547   8.257  21.799  0.00  0.00    +0.000 Cl
ENDBRANCH  18  19
ENDBRANCH  17  18
ENDBRANCH   6  17
TORSDOF 5
ENDMDL
MODEL 8
REMARK VINA RESULT:      -7.1      1.271      2.330
REMARK  Name = 
REMARK  5 active torsions:
REMARK  status: ('A' for Active; 'I' for Inactive)
REMARK    1  A    between atoms: C_2  and  C_10
REMARK    2  A    between atoms: N_3  and  C_4
REMARK    3  A    between atoms: C_15  and  O_16
REMARK    4  A    between atoms: O_16  and  C_17
REMARK    5  A    between atoms: C_17  and  C_18
REMARK                            x       y       z     vdW  Elec       q    Type
REMARK                         _______ _______ _______ _____ _____    ______ ____
ROOT
ATOM      1  C   UNL     1       4.973   6.315  17.379  0.00  0.00    +0.000 A 
ATOM      2  C   UNL     1       6.214   6.985  17.422  0.00  0.00    +0.000 A 
ATOM      3  C   UNL     1       7.411   6.293  17.246  0.00  0.00    +0.000 A 
ATOM      4  C   UNL     1       7.382   4.937  16.956  0.00  0.00    +0.000 A 
ATOM      5  C   UNL     1       6.160   4.273  16.849  0.00  0.00    +0.000 A 
ATOM      6  C   UNL     1       4.945   4.937  17.091  0.00  0.00    +0.000 A 
ENDROOT
BRANCH   1   8
ATOM      7  O   UNL     1       3.227   7.798  16.762  0.00  0.00    +0.000 OA
ATOM      8  C   UNL     1       3.727   7.114  17.644  0.00  0.00    +0.000 C 
ATOM      9  N   UNL     1       3.270   7.020  18.958  0.00  0.00    +0.000 N 
ATOM     10  H   UNL     1       3.753   6.369  19.560  0.00  0.00    +0.000 HD
BRANCH   9  11
ATOM     11  C   UNL     1       2.203   7.716  19.566  0.00  0.00    +0.000 A 
ATOM     12  C   UNL     1       1.604   7.363  20.769  0.00  0.00    +0.000 A 
ATOM     13  C   UNL     1       0.559   8.139  21.277  0.00  0.00    +0.000 A 
ATOM     14  C   UNL     1       0.141   9.247  20.555  0.00  0.00    +0.000 A 
ATOM     15  N   UNL     1       0.682   9.619  19.379  0.00  0.00    +0.000 NA
ATOM     16  C   UNL     1       1.698   8.848  18.919  0.00  0.00    +0.000 A 
ENDBRANCH   9  11
ENDBRANCH   1   8
BRANCH   6  17
ATOM     17  O   UNL     1       3.735   4.289  17.071  0.00  0.00    +0.000 OA
BRANCH  17  18
ATOM     18  C   UNL     1       3.684   3.012  17.718  0.00  0.00    +0.000 C 
BRANCH  18  19
ATOM     19  C   UNL     1       2.888   3.131  18.992  0.00  0.00    +0.000 A 
ATOM     20  C   UNL     1       3.348   2.600  20.211  0.00  0.00    +0.000 A 
ATOM     21 CL   UNL     1       4.889   1.826  20.365  0.00  0.00    +0.000 Cl
ATOM     22  C   UNL     1       2.576   2.695  21.375  0.00  0.00    +0.000 A 
ATOM     23  C   UNL     1       1.333   3.321  21.347  0.00  0.00    +0.000 A 
ATOM     24  C   UNL     1       0.866   3.866  20.155  0.00  0.00    +0.000 A 
ATOM     25  C   UNL     1       1.634   3.772  18.990  0.00  0.00    +0.000 A 
ATOM     26 CL   UNL     1       0.981   4.504  17.562  0.00  0.00    +0.000 Cl
ENDBRANCH  18  19
ENDBRANCH  17  18
ENDBRANCH   6  17
TORSDOF 5
ENDMDL
MODEL 9
REMARK VINA RESULT:      -7.1      2.196      5.089
REMARK  Name = 
REMARK  5 active torsions:
REMARK  status: ('A' for Active; 'I' for Inactive)
REMARK    1  A    between atoms: C_2  and  C_10
REMARK    2  A    between atoms: N_3  and  C_4
REMARK    3  A    between atoms: C_15  and  O_16
REMARK    4  A    between atoms: O_16  and  C_17
REMARK    5  A    between atoms: C_17  and  C_18
REMARK                            x       y       z     vdW  Elec       q    Type
REMARK                         _______ _______ _______ _____ _____    ______ ____
ROOT
ATOM      1  C   UNL     1       2.190   5.235  20.094  0.00  0.00    +0.000 A 
ATOM      2  C   UNL     1       1.034   4.547  20.519  0.00  0.00    +0.000 A 
ATOM      3  C   UNL     1       1.082   3.191  20.840  0.00  0.00    +0.000 A 
ATOM      4  C   UNL     1       2.296   2.522  20.808  0.00  0.00    +0.000 A 
ATOM      5  C   UNL     1       3.459   3.203  20.448  0.00  0.00    +0.000 A 
ATOM      6  C   UNL     1       3.421   4.553  20.055  0.00  0.00    +0.000 A 
ENDROOT
BRANCH   1   8
ATOM      7  O   UNL     1       2.562   7.095  18.671  0.00  0.00    +0.000 OA
ATOM      8  C   UNL     1       2.050   6.679  19.700  0.00  0.00    +0.000 C 
ATOM      9  N   UNL     1       1.345   7.448  20.626  0.00  0.00    +0.000 N 
ATOM     10  H   UNL     1       0.929   6.953  21.401  0.00  0.00    +0.000 HD
BRANCH   9  11
ATOM     11  C   UNL     1       1.124   8.841  20.619  0.00  0.00    +0.000 A 
ATOM     12  C   UNL     1       0.961   9.616  19.477  0.00  0.00    +0.000 A 
ATOM     13  C   UNL     1       0.735  10.990  19.599  0.00  0.00    +0.000 A 
ATOM     14  C   UNL     1       0.687  11.547  20.868  0.00  0.00    +0.000 A 
ATOM     15  N   UNL     1       0.852  10.838  22.001  0.00  0.00    +0.000 NA
ATOM     16  C   UNL     1       1.062   9.508  21.846  0.00  0.00    +0.000 A 
ENDBRANCH   9  11
ENDBRANCH   1   8
BRANCH   6  17
ATOM     17  O   UNL     1       4.537   5.224  19.620  0.00  0.00    +0.000 OA
BRANCH  17  18
ATOM     18  C   UNL     1       5.629   4.418  19.160  0.00  0.00    +0.000 C 
BRANCH  18  19
ATOM     19  C   UNL     1       5.843   4.664  17.689  0.00  0.00    +0.000 A 
ATOM     20  C   UNL     1       5.079   4.009  16.704  0.00  0.00    +0.000 A 
ATOM     21 CL   UNL     1       3.793   2.921  17.098  0.00  0.00    +0.000 Cl
ATOM     22  C   UNL     1       5.320   4.229  15.343  0.00  0.00    +0.000 A 
ATOM     23  C   UNL     1       6.322   5.106  14.937  0.00  0.00    +0.000 A 
ATOM     24  C   UNL     1       7.077   5.775  15.894  0.00  0.00    +0.000 A 
ATOM     25  C   UNL     1       6.842   5.557  17.255  0.00  0.00    +0.000 A 
ATOM     26 CL   UNL     1       7.815   6.456  18.371  0.00  0.00    +0.000 Cl
ENDBRANCH  18  19
ENDBRANCH  17  18
ENDBRANCH   6  17
TORSDOF 5
ENDMDL
