MODEL 1
REMARK VINA RESULT:      -6.5      0.000      0.000
REMARK  Name = 
REMARK  7 active torsions:
REMARK  status: ('A' for Active; 'I' for Inactive)
REMARK    1  A    between atoms: C_1  and  C_2
REMARK    2  A    between atoms: C_2  and  C_3
REMARK    3  A    between atoms: C_3  and  C_4
REMARK    4  A    between atoms: C_4  and  C_5
REMARK    5  A    between atoms: N_7  and  C_8
REMARK    6  A    between atoms: C_13  and  C_14
REMARK    7  A    between atoms: C_14  and  C_15
REMARK                            x       y       z     vdW  Elec       q    Type
REMARK                         _______ _______ _______ _____ _____    ______ ____
ROOT
ATOM      1  C   UNL     1       6.552   4.311  14.215  0.00  0.00    +0.000 C 
ATOM      2  O   UNL     1       7.153   5.378  14.105  0.00  0.00    +0.000 OA
ATOM      3  N   UNL     1       6.149   3.709  15.405  0.00  0.00    +0.000 N 
ATOM      4  H   UNL     1       5.910   2.728  15.363  0.00  0.00    +0.000 HD
ENDROOT
BRANCH   3   5
ATOM      5  C   UNL     1       6.227   4.305  16.690  0.00  0.00    +0.000 A 
ATOM      6  C   UNL     1       7.461   4.753  17.186  0.00  0.00    +0.000 A 
ATOM      7  C   UNL     1       7.591   5.279  18.473  0.00  0.00    +0.000 A 
ATOM      8  C   UNL     1       6.479   5.385  19.288  0.00  0.00    +0.000 A 
ATOM      9  C   UNL     1       5.230   5.001  18.795  0.00  0.00    +0.000 A 
ATOM     10  C   UNL     1       5.072   4.483  17.489  0.00  0.00    +0.000 A 
BRANCH  10  11
ATOM     11  C   UNL     1       3.663   4.152  17.066  0.00  0.00    +0.000 C 
ATOM     12  C   UNL     1       3.135   2.860  17.674  0.00  0.00    +0.000 C 
ENDBRANCH  10  11
ENDBRANCH   3   5
BRANCH   1  13
ATOM     13  C   UNL     1       6.229   3.519  12.966  0.00  0.00    +0.000 C 
BRANCH  13  14
ATOM     14  C   UNL     1       4.811   3.737  12.447  0.00  0.00    +0.000 C 
BRANCH  14  16
ATOM     15  C   UNL     1       3.354   3.528  10.404  0.00  0.00    +0.000 C 
ATOM     16  C   UNL     1       4.480   2.896  11.210  0.00  0.00    +0.000 C 
ENDBRANCH  14  16
ENDBRANCH  13  14
ENDBRANCH   1  13
TORSDOF 5
ENDMDL
MODEL 2
REMARK VINA RESULT:      -6.4      2.660      5.641
REMARK  Name = 
REMARK  7 active torsions:
REMARK  status: ('A' for Active; 'I' for Inactive)
REMARK    1  A    between atoms: C_1  and  C_2
REMARK    2  A    between atoms: C_2  and  C_3
REMARK    3  A    between atoms: C_3  and  C_4
REMARK    4  A    between atoms: C_4  and  C_5
REMARK    5  A    between atoms: N_7  and  C_8
REMARK    6  A    between atoms: C_13  and  C_14
REMARK    7  A    between atoms: C_14  and  C_15
REMARK                            x       y       z     vdW  Elec       q    Type
REMARK                         _______ _______ _______ _____ _____    ______ ____
ROOT
ATOM      1  C   UNL     1       2.718   4.296  18.116  0.00  0.00    +0.000 C 
ATOM      2  O   UNL     1       2.435   5.470  17.889  0.00  0.00    +0.000 OA
ATOM      3  N   UNL     1       3.995   3.741  18.127  0.00  0.00    +0.000 N 
ATOM      4  H   UNL     1       4.056   2.734  18.064  0.00  0.00    +0.000 HD
ENDROOT
BRANCH   3   5
ATOM      5  C   UNL     1       5.206   4.473  18.030  0.00  0.00    +0.000 A 
ATOM      6  C   UNL     1       5.853   4.922  19.193  0.00  0.00    +0.000 A 
ATOM      7  C   UNL     1       7.007   5.706  19.137  0.00  0.00    +0.000 A 
ATOM      8  C   UNL     1       7.550   6.045  17.912  0.00  0.00    +0.000 A 
ATOM      9  C   UNL     1       6.958   5.560  16.743  0.00  0.00    +0.000 A 
ATOM     10  C   UNL     1       5.800   4.750  16.776  0.00  0.00    +0.000 A 
BRANCH  10  11
ATOM     11  C   UNL     1       5.291   4.256  15.446  0.00  0.00    +0.000 C 
ATOM     12  C   UNL     1       6.370   4.174  14.375  0.00  0.00    +0.000 C 
ENDBRANCH  10  11
ENDBRANCH   3   5
BRANCH   1  13
ATOM     13  C   UNL     1       1.598   3.311  18.379  0.00  0.00    +0.000 C 
BRANCH  13  14
ATOM     14  C   UNL     1       0.839   3.572  19.676  0.00  0.00    +0.000 C 
BRANCH  14  16
ATOM     15  C   UNL     1       2.218   2.732  21.608  0.00  0.00    +0.000 C 
ATOM     16  C   UNL     1       1.748   3.963  20.846  0.00  0.00    +0.000 C 
ENDBRANCH  14  16
ENDBRANCH  13  14
ENDBRANCH   1  13
TORSDOF 5
ENDMDL
MODEL 3
REMARK VINA RESULT:      -6.4      2.703      4.471
REMARK  Name = 
REMARK  7 active torsions:
REMARK  status: ('A' for Active; 'I' for Inactive)
REMARK    1  A    between atoms: C_1  and  C_2
REMARK    2  A    between atoms: C_2  and  C_3
REMARK    3  A    between atoms: C_3  and  C_4
REMARK    4  A    between atoms: C_4  and  C_5
REMARK    5  A    between atoms: N_7  and  C_8
REMARK    6  A    between atoms: C_13  and  C_14
REMARK    7  A    between atoms: C_14  and  C_15
REMARK                            x       y       z     vdW  Elec       q    Type
REMARK                         _______ _______ _______ _____ _____    ______ ____
ROOT
ATOM      1  C   UNL     1       6.385   4.666  18.623  0.00  0.00    +0.000 C 
ATOM      2  O   UNL     1       6.613   5.245  19.683  0.00  0.00    +0.000 OA
ATOM      3  N   UNL     1       5.223   3.972  18.295  0.00  0.00    +0.000 N 
ATOM      4  H   UNL     1       5.277   3.332  17.514  0.00  0.00    +0.000 HD
ENDROOT
BRANCH   3   5
ATOM      5  C   UNL     1       4.037   3.948  19.074  0.00  0.00    +0.000 A 
ATOM      6  C   UNL     1       3.831   2.927  20.014  0.00  0.00    +0.000 A 
ATOM      7  C   UNL     1       2.647   2.829  20.748  0.00  0.00    +0.000 A 
ATOM      8  C   UNL     1       1.646   3.766  20.567  0.00  0.00    +0.000 A 
ATOM      9  C   UNL     1       1.853   4.825  19.681  0.00  0.00    +0.000 A 
ATOM     10  C   UNL     1       3.051   4.954  18.941  0.00  0.00    +0.000 A 
BRANCH  10  11
ATOM     11  C   UNL     1       3.163   6.170  18.056  0.00  0.00    +0.000 C 
ATOM     12  C   UNL     1       2.427   7.387  18.600  0.00  0.00    +0.000 C 
ENDBRANCH  10  11
ENDBRANCH   3   5
BRANCH   1  13
ATOM     13  C   UNL     1       7.457   4.645  17.554  0.00  0.00    +0.000 C 
BRANCH  13  14
ATOM     14  C   UNL     1       7.124   5.494  16.331  0.00  0.00    +0.000 C 
BRANCH  14  16
ATOM     15  C   UNL     1       5.494   4.444  14.724  0.00  0.00    +0.000 C 
ATOM     16  C   UNL     1       6.963   4.675  15.046  0.00  0.00    +0.000 C 
ENDBRANCH  14  16
ENDBRANCH  13  14
ENDBRANCH   1  13
TORSDOF 5
ENDMDL
MODEL 4
REMARK VINA RESULT:      -6.4      2.825      5.472
REMARK  Name = 
REMARK  7 active torsions:
REMARK  status: ('A' for Active; 'I' for Inactive)
REMARK    1  A    between atoms: C_1  and  C_2
REMARK    2  A    between atoms: C_2  and  C_3
REMARK    3  A    between atoms: C_3  and  C_4
REMARK    4  A    between atoms: C_4  and  C_5
REMARK    5  A    between atoms: N_7  and  C_8
REMARK    6  A    between atoms: C_13  and  C_14
REMARK    7  A    between atoms: C_14  and  C_15
REMARK                            x       y       z     vdW  Elec       q    Type
REMARK                         _______ _______ _______ _____ _____    ______ ____
ROOT
ATOM      1  C   UNL     1       3.456   2.600  18.523  0.00  0.00    +0.000 C 
ATOM      2  O   UNL     1       4.156   1.928  19.278  0.00  0.00    +0.000 OA
ATOM      3  N   UNL     1       3.800   3.819  17.945  0.00  0.00    +0.000 N 
ATOM      4  H   UNL     1       3.045   4.378  17.571  0.00  0.00    +0.000 HD
ENDROOT
BRANCH   3   5
ATOM      5  C   UNL     1       5.085   4.420  18.004  0.00  0.00    +0.000 A 
ATOM      6  C   UNL     1       5.578   4.910  19.224  0.00  0.00    +0.000 A 
ATOM      7  C   UNL     1       6.805   5.570  19.310  0.00  0.00    +0.000 A 
ATOM      8  C   UNL     1       7.576   5.739  18.175  0.00  0.00    +0.000 A 
ATOM      9  C   UNL     1       7.134   5.207  16.961  0.00  0.00    +0.000 A 
ATOM     10  C   UNL     1       5.903   4.519  16.854  0.00  0.00    +0.000 A 
BRANCH  10  11
ATOM     11  C   UNL     1       5.568   3.955  15.497  0.00  0.00    +0.000 C 
ATOM     12  C   UNL     1       6.614   4.267  14.435  0.00  0.00    +0.000 C 
ENDBRANCH  10  11
ENDBRANCH   3   5
BRANCH   1  13
ATOM     13  C   UNL     1       2.061   2.115  18.191  0.00  0.00    +0.000 C 
BRANCH  13  14
ATOM     14  C   UNL     1       0.952   3.006  18.739  0.00  0.00    +0.000 C 
BRANCH  14  16
ATOM     15  C   UNL     1       1.334   4.654  20.605  0.00  0.00    +0.000 C 
ATOM     16  C   UNL     1       1.025   3.206  20.257  0.00  0.00    +0.000 C 
ENDBRANCH  14  16
ENDBRANCH  13  14
ENDBRANCH   1  13
TORSDOF 5
ENDMDL
MODEL 5
REMARK VINA RESULT:      -6.4      2.560      5.564
REMARK  Name = 
REMARK  7 active torsions:
REMARK  status: ('A' for Active; 'I' for Inactive)
REMARK    1  A    between atoms: C_1  and  C_2
REMARK    2  A    between atoms: C_2  and  C_3
REMARK    3  A    between atoms: C_3  and  C_4
REMARK    4  A    between atoms: C_4  and  C_5
REMARK    5  A    between atoms: N_7  and  C_8
REMARK    6  A    between atoms: C_13  and  C_14
REMARK    7  A    between atoms: C_14  and  C_15
REMARK                            x       y       z     vdW  Elec       q    Type
REMARK                         _______ _______ _______ _____ _____    ______ ____
ROOT
ATOM      1  C   UNL     1       3.818   3.436  18.578  0.00  0.00    +0.000 C 
ATOM      2  O   UNL     1       3.105   4.263  18.012  0.00  0.00    +0.000 OA
ATOM      3  N   UNL     1       5.209   3.440  18.623  0.00  0.00    +0.000 N 
ATOM      4  H   UNL     1       5.660   2.574  18.887  0.00  0.00    +0.000 HD
ENDROOT
BRANCH   3   5
ATOM      5  C   UNL     1       6.041   4.489  18.155  0.00  0.00    +0.000 A 
ATOM      6  C   UNL     1       6.642   5.372  19.065  0.00  0.00    +0.000 A 
ATOM      7  C   UNL     1       7.408   6.460  18.641  0.00  0.00    +0.000 A 
ATOM      8  C   UNL     1       7.604   6.677  17.289  0.00  0.00    +0.000 A 
ATOM      9  C   UNL     1       7.065   5.778  16.366  0.00  0.00    +0.000 A 
ATOM     10  C   UNL     1       6.301   4.660  16.774  0.00  0.00    +0.000 A 
BRANCH  10  11
ATOM     11  C   UNL     1       5.819   3.743  15.679  0.00  0.00    +0.000 C 
ATOM     12  C   UNL     1       5.919   4.355  14.288  0.00  0.00    +0.000 C 
ENDBRANCH  10  11
ENDBRANCH   3   5
BRANCH   1  13
ATOM     13  C   UNL     1       3.165   2.261  19.274  0.00  0.00    +0.000 C 
BRANCH  13  14
ATOM     14  C   UNL     1       1.641   2.319  19.284  0.00  0.00    +0.000 C 
BRANCH  14  16
ATOM     15  C   UNL     1       1.994   2.919  21.704  0.00  0.00    +0.000 C 
ATOM     16  C   UNL     1       1.067   3.046  20.504  0.00  0.00    +0.000 C 
ENDBRANCH  14  16
ENDBRANCH  13  14
ENDBRANCH   1  13
TORSDOF 5
ENDMDL
MODEL 6
REMARK VINA RESULT:      -6.4      3.249      5.789
REMARK  Name = 
REMARK  7 active torsions:
REMARK  status: ('A' for Active; 'I' for Inactive)
REMARK    1  A    between atoms: C_1  and  C_2
REMARK    2  A    between atoms: C_2  and  C_3
REMARK    3  A    between atoms: C_3  and  C_4
REMARK    4  A    between atoms: C_4  and  C_5
REMARK    5  A    between atoms: N_7  and  C_8
REMARK    6  A    between atoms: C_13  and  C_14
REMARK    7  A    between atoms: C_14  and  C_15
REMARK                            x       y       z     vdW  Elec       q    Type
REMARK                         _______ _______ _______ _____ _____    ______ ____
ROOT
ATOM      1  C   UNL     1       2.430   3.055  17.864  0.00  0.00    +0.000 C 
ATOM      2  O   UNL     1       1.741   3.483  16.941  0.00  0.00    +0.000 OA
ATOM      3  N   UNL     1       3.788   3.294  18.061  0.00  0.00    +0.000 N 
ATOM      4  H   UNL     1       4.274   2.674  18.695  0.00  0.00    +0.000 HD
ENDROOT
BRANCH   3   5
ATOM      5  C   UNL     1       4.576   4.204  17.310  0.00  0.00    +0.000 A 
ATOM      6  C   UNL     1       5.323   3.751  16.212  0.00  0.00    +0.000 A 
ATOM      7  C   UNL     1       6.166   4.601  15.493  0.00  0.00    +0.000 A 
ATOM      8  C   UNL     1       6.264   5.934  15.848  0.00  0.00    +0.000 A 
ATOM      9  C   UNL     1       5.484   6.421  16.899  0.00  0.00    +0.000 A 
ATOM     10  C   UNL     1       4.611   5.582  17.630  0.00  0.00    +0.000 A 
BRANCH  10  11
ATOM     11  C   UNL     1       3.792   6.246  18.708  0.00  0.00    +0.000 C 
ATOM     12  C   UNL     1       2.469   6.808  18.206  0.00  0.00    +0.000 C 
ENDBRANCH  10  11
ENDBRANCH   3   5
BRANCH   1  13
ATOM     13  C   UNL     1       1.794   2.144  18.892  0.00  0.00    +0.000 C 
BRANCH  13  14
ATOM     14  C   UNL     1       0.679   2.806  19.696  0.00  0.00    +0.000 C 
BRANCH  14  16
ATOM     15  C   UNL     1       2.157   3.532  21.601  0.00  0.00    +0.000 C 
ATOM     16  C   UNL     1       1.159   3.987  20.546  0.00  0.00    +0.000 C 
ENDBRANCH  14  16
ENDBRANCH  13  14
ENDBRANCH   1  13
TORSDOF 5
ENDMDL
MODEL 7
REMARK VINA RESULT:      -6.3      2.780      4.725
REMARK  Name = 
REMARK  7 active torsions:
REMARK  status: ('A' for Active; 'I' for Inactive)
REMARK    1  A    between atoms: C_1  and  C_2
REMARK    2  A    between atoms: C_2  and  C_3
REMARK    3  A    between atoms: C_3  and  C_4
REMARK    4  A    between atoms: C_4  and  C_5
REMARK    5  A    between atoms: N_7  and  C_8
REMARK    6  A    between atoms: C_13  and  C_14
REMARK    7  A    between atoms: C_14  and  C_15
REMARK                            x       y       z     vdW  Elec       q    Type
REMARK                         _______ _______ _______ _____ _____    ______ ____
ROOT
ATOM      1  C   UNL     1       5.653   4.938  18.654  0.00  0.00    +0.000 C 
ATOM      2  O   UNL     1       5.896   3.999  19.408  0.00  0.00    +0.000 OA
ATOM      3  N   UNL     1       4.394   5.452  18.355  0.00  0.00    +0.000 N 
ATOM      4  H   UNL     1       4.322   6.035  17.531  0.00  0.00    +0.000 HD
ENDROOT
BRANCH   3   5
ATOM      5  C   UNL     1       3.184   5.078  18.995  0.00  0.00    +0.000 A 
ATOM      6  C   UNL     1       2.659   5.871  20.027  0.00  0.00    +0.000 A 
ATOM      7  C   UNL     1       1.511   5.500  20.730  0.00  0.00    +0.000 A 
ATOM      8  C   UNL     1       0.851   4.330  20.400  0.00  0.00    +0.000 A 
ATOM      9  C   UNL     1       1.320   3.556  19.336  0.00  0.00    +0.000 A 
ATOM     10  C   UNL     1       2.471   3.922  18.600  0.00  0.00    +0.000 A 
BRANCH  10  11
ATOM     11  C   UNL     1       2.841   3.023  17.448  0.00  0.00    +0.000 C 
ATOM     12  C   UNL     1       3.549   1.746  17.878  0.00  0.00    +0.000 C 
ENDBRANCH  10  11
ENDBRANCH   3   5
BRANCH   1  13
ATOM     13  C   UNL     1       6.799   5.609  17.925  0.00  0.00    +0.000 C 
BRANCH  13  14
ATOM     14  C   UNL     1       7.479   4.716  16.892  0.00  0.00    +0.000 C 
BRANCH  14  16
ATOM     15  C   UNL     1       5.964   3.851  15.076  0.00  0.00    +0.000 C 
ATOM     16  C   UNL     1       6.962   4.932  15.466  0.00  0.00    +0.000 C 
ENDBRANCH  14  16
ENDBRANCH  13  14
ENDBRANCH   1  13
TORSDOF 5
ENDMDL
MODEL 8
REMARK VINA RESULT:      -6.3      3.906      5.463
REMARK  Name = 
REMARK  7 active torsions:
REMARK  status: ('A' for Active; 'I' for Inactive)
REMARK    1  A    between atoms: C_1  and  C_2
REMARK    2  A    between atoms: C_2  and  C_3
REMARK    3  A    between atoms: C_3  and  C_4
REMARK    4  A    between atoms: C_4  and  C_5
REMARK    5  A    between atoms: N_7  and  C_8
REMARK    6  A    between atoms: C_13  and  C_14
REMARK    7  A    between atoms: C_14  and  C_15
REMARK                            x       y       z     vdW  Elec       q    Type
REMARK                         _______ _______ _______ _____ _____    ______ ____
ROOT
ATOM      1  C   UNL     1       5.581   4.832  17.910  0.00  0.00    +0.000 C 
ATOM      2  O   UNL     1       4.878   4.714  16.908  0.00  0.00    +0.000 OA
ATOM      3  N   UNL     1       5.134   4.915  19.226  0.00  0.00    +0.000 N 
ATOM      4  H   UNL     1       5.787   5.273  19.909  0.00  0.00    +0.000 HD
ENDROOT
BRANCH   3   5
ATOM      5  C   UNL     1       3.794   4.718  19.649  0.00  0.00    +0.000 A 
ATOM      6  C   UNL     1       2.955   5.822  19.868  0.00  0.00    +0.000 A 
ATOM      7  C   UNL     1       1.654   5.673  20.352  0.00  0.00    +0.000 A 
ATOM      8  C   UNL     1       1.157   4.409  20.612  0.00  0.00    +0.000 A 
ATOM      9  C   UNL     1       1.952   3.293  20.345  0.00  0.00    +0.000 A 
ATOM     10  C   UNL     1       3.266   3.419  19.838  0.00  0.00    +0.000 A 
BRANCH  10  11
ATOM     11  C   UNL     1       3.998   2.133  19.550  0.00  0.00    +0.000 C 
ATOM     12  C   UNL     1       3.673   1.542  18.185  0.00  0.00    +0.000 C 
ENDBRANCH  10  11
ENDBRANCH   3   5
BRANCH   1  13
ATOM     13  C   UNL     1       7.082   4.941  17.744  0.00  0.00    +0.000 C 
BRANCH  13  14
ATOM     14  C   UNL     1       7.675   6.219  18.328  0.00  0.00    +0.000 C 
BRANCH  14  16
ATOM     15  C   UNL     1       8.200   8.654  17.955  0.00  0.00    +0.000 C 
ATOM     16  C   UNL     1       7.355   7.471  17.505  0.00  0.00    +0.000 C 
ENDBRANCH  14  16
ENDBRANCH  13  14
ENDBRANCH   1  13
TORSDOF 5
ENDMDL
MODEL 9
REMARK VINA RESULT:      -6.2      3.268      5.184
REMARK  Name = 
REMARK  7 active torsions:
REMARK  status: ('A' for Active; 'I' for Inactive)
REMARK    1  A    between atoms: C_1  and  C_2
REMARK    2  A    between atoms: C_2  and  C_3
REMARK    3  A    between atoms: C_3  and  C_4
REMARK    4  A    between atoms: C_4  and  C_5
REMARK    5  A    between atoms: N_7  and  C_8
REMARK    6  A    between atoms: C_13  and  C_14
REMARK    7  A    between atoms: C_14  and  C_15
REMARK                            x       y       z     vdW  Elec       q    Type
REMARK                         _______ _______ _______ _____ _____    ______ ____
ROOT
ATOM      1  C   UNL     1       5.696   4.402  16.953  0.00  0.00    +0.000 C 
ATOM      2  O   UNL     1       5.052   4.804  15.987  0.00  0.00    +0.000 OA
ATOM      3  N   UNL     1       5.175   3.856  18.123  0.00  0.00    +0.000 N 
ATOM      4  H   UNL     1       5.790   3.818  18.925  0.00  0.00    +0.000 HD
ENDROOT
BRANCH   3   5
ATOM      5  C   UNL     1       3.812   3.525  18.335  0.00  0.00    +0.000 A 
ATOM      6  C   UNL     1       3.359   2.217  18.100  0.00  0.00    +0.000 A 
ATOM      7  C   UNL     1       2.013   1.870  18.227  0.00  0.00    +0.000 A 
ATOM      8  C   UNL     1       1.089   2.824  18.612  0.00  0.00    +0.000 A 
ATOM      9  C   UNL     1       1.525   4.117  18.910  0.00  0.00    +0.000 A 
ATOM     10  C   UNL     1       2.886   4.487  18.805  0.00  0.00    +0.000 A 
BRANCH  10  11
ATOM     11  C   UNL     1       3.228   5.900  19.202  0.00  0.00    +0.000 C 
ATOM     12  C   UNL     1       3.071   6.904  18.067  0.00  0.00    +0.000 C 
ENDBRANCH  10  11
ENDBRANCH   3   5
BRANCH   1  13
ATOM     13  C   UNL     1       7.205   4.526  16.932  0.00  0.00    +0.000 C 
BRANCH  13  14
ATOM     14  C   UNL     1       7.766   5.410  18.042  0.00  0.00    +0.000 C 
BRANCH  14  16
ATOM     15  C   UNL     1       7.853   7.879  17.554  0.00  0.00    +0.000 C 
ATOM     16  C   UNL     1       7.040   6.753  18.176  0.00  0.00    +0.000 C 
ENDBRANCH  14  16
ENDBRANCH  13  14
ENDBRANCH   1  13
TORSDOF 5
ENDMDL
