MODEL 1
REMARK VINA RESULT:      -8.1      0.000      0.000
REMARK  Name = 
REMARK  11 active torsions:
REMARK  status: ('A' for Active; 'I' for Inactive)
REMARK    1  A    between atoms: C_1  and  C_2
REMARK    2  A    between atoms: C_2  and  C_3
REMARK    3  A    between atoms: C_3  and  C_4
REMARK    4  A    between atoms: C_4  and  C_5
REMARK    5  A    between atoms: C_8  and  N_9
REMARK    6  A    between atoms: C_10  and  C_12
REMARK    7  A    between atoms: C_16  and  N_17
REMARK    8  A    between atoms: N_17  and  S_18
REMARK    9  A    between atoms: S_18  and  C_21
REMARK   10  A    between atoms: C_21  and  C_22
REMARK   11  A    between atoms: C_21  and  C_23
REMARK                            x       y       z     vdW  Elec       q    Type
REMARK                         _______ _______ _______ _____ _____    ______ ____
ROOT
ATOM      1  N   UNL     1       1.886   7.665  19.552  0.00  0.00    +0.000 N 
ATOM      2  C   UNL     1       1.961   6.353  19.990  0.00  0.00    +0.000 C 
ATOM      3  O   UNL     1       1.467   5.909  21.023  0.00  0.00    +0.000 OA
ATOM      4  H   UNL     1       2.119   7.861  18.588  0.00  0.00    +0.000 HD
ENDROOT
BRANCH   1   8
ATOM      5  C   UNL     1       0.018  10.831  21.677  0.00  0.00    +0.000 A 
ATOM      6  C   UNL     1       0.423   9.679  22.351  0.00  0.00    +0.000 A 
ATOM      7  C   UNL     1       1.055   8.641  21.667  0.00  0.00    +0.000 A 
ATOM      8  C   UNL     1       1.282   8.717  20.288  0.00  0.00    +0.000 A 
ATOM      9  C   UNL     1       0.897   9.878  19.613  0.00  0.00    +0.000 A 
ATOM     10  C   UNL     1       0.259  10.922  20.301  0.00  0.00    +0.000 A 
BRANCH   5  11
ATOM     11  C   UNL     1      -0.655  11.957  22.422  0.00  0.00    +0.000 C 
BRANCH  11  12
ATOM     12  C   UNL     1      -1.886  11.521  23.226  0.00  0.00    +0.000 C 
BRANCH  12  14
ATOM     13  C   UNL     1      -3.991  12.409  24.277  0.00  0.00    +0.000 C 
ATOM     14  C   UNL     1      -3.076  12.471  23.065  0.00  0.00    +0.000 C 
ENDBRANCH  12  14
ENDBRANCH  11  12
ENDBRANCH   5  11
ENDBRANCH   1   8
BRANCH   2  15
ATOM     15  C   UNL     1       2.652   5.372  19.109  0.00  0.00    +0.000 A 
ATOM     16  C   UNL     1       1.832   4.601  18.268  0.00  0.00    +0.000 A 
ATOM     17  C   UNL     1       2.370   3.584  17.486  0.00  0.00    +0.000 A 
ATOM     18  C   UNL     1       3.734   3.319  17.549  0.00  0.00    +0.000 A 
ATOM     19  C   UNL     1       4.556   4.068  18.396  0.00  0.00    +0.000 A 
ATOM     20  C   UNL     1       4.029   5.114  19.164  0.00  0.00    +0.000 A 
BRANCH  19  21
ATOM     21  N   UNL     1       5.959   3.759  18.419  0.00  0.00    +0.000 N 
ATOM     22  H   UNL     1       6.389   3.991  19.317  0.00  0.00    +0.000 HD
BRANCH  21  23
ATOM     23  S   UNL     1       6.877   4.490  17.188  0.00  0.00    +0.000 S 
ATOM     24  O   UNL     1       8.283   4.433  17.527  0.00  0.00    +0.000 OA
ATOM     25  O   UNL     1       6.372   3.914  15.961  0.00  0.00    +0.000 OA
BRANCH  23  26
ATOM     26  C   UNL     1       6.333   6.216  17.277  0.00  0.00    +0.000 C 
ATOM     27  C   UNL     1       7.502   7.185  17.405  0.00  0.00    +0.000 C 
ATOM     28  C   UNL     1       5.498   6.551  16.043  0.00  0.00    +0.000 C 
ENDBRANCH  23  26
ENDBRANCH  21  23
ENDBRANCH  19  21
ENDBRANCH   2  15
TORSDOF 8
ENDMDL
MODEL 2
REMARK VINA RESULT:      -8.1      1.351      1.807
REMARK  Name = 
REMARK  11 active torsions:
REMARK  status: ('A' for Active; 'I' for Inactive)
REMARK    1  A    between atoms: C_1  and  C_2
REMARK    2  A    between atoms: C_2  and  C_3
REMARK    3  A    between atoms: C_3  and  C_4
REMARK    4  A    between atoms: C_4  and  C_5
REMARK    5  A    between atoms: C_8  and  N_9
REMARK    6  A    between atoms: C_10  and  C_12
REMARK    7  A    between atoms: C_16  and  N_17
REMARK    8  A    between atoms: N_17  and  S_18
REMARK    9  A    between atoms: S_18  and  C_21
REMARK   10  A    between atoms: C_21  and  C_22
REMARK   11  A    between atoms: C_21  and  C_23
REMARK                            x       y       z     vdW  Elec       q    Type
REMARK                         _______ _______ _______ _____ _____    ______ ____
ROOT
ATOM      1  N   UNL     1       1.479   7.521  21.155  0.00  0.00    +0.000 N 
ATOM      2  C   UNL     1       2.067   7.225  19.936  0.00  0.00    +0.000 C 
ATOM      3  O   UNL     1       2.172   7.991  18.982  0.00  0.00    +0.000 OA
ATOM      4  H   UNL     1       1.662   6.905  21.935  0.00  0.00    +0.000 HD
ENDROOT
BRANCH   1   8
ATOM      5  C   UNL     1      -0.428  11.186  22.135  0.00  0.00    +0.000 A 
ATOM      6  C   UNL     1       0.298  11.070  20.949  0.00  0.00    +0.000 A 
ATOM      7  C   UNL     1       0.912   9.865  20.608  0.00  0.00    +0.000 A 
ATOM      8  C   UNL     1       0.835   8.751  21.450  0.00  0.00    +0.000 A 
ATOM      9  C   UNL     1       0.091   8.856  22.628  0.00  0.00    +0.000 A 
ATOM     10  C   UNL     1      -0.527  10.069  22.972  0.00  0.00    +0.000 A 
BRANCH   5  11
ATOM     11  C   UNL     1      -1.102  12.487  22.496  0.00  0.00    +0.000 C 
BRANCH  11  12
ATOM     12  C   UNL     1      -2.632  12.445  22.383  0.00  0.00    +0.000 C 
BRANCH  12  14
ATOM     13  C   UNL     1      -3.916  13.721  24.128  0.00  0.00    +0.000 C 
ATOM     14  C   UNL     1      -3.332  12.372  23.743  0.00  0.00    +0.000 C 
ENDBRANCH  12  14
ENDBRANCH  11  12
ENDBRANCH   5  11
ENDBRANCH   1   8
BRANCH   2  15
ATOM     15  C   UNL     1       2.681   5.878  19.777  0.00  0.00    +0.000 A 
ATOM     16  C   UNL     1       2.149   4.850  20.571  0.00  0.00    +0.000 A 
ATOM     17  C   UNL     1       2.723   3.582  20.575  0.00  0.00    +0.000 A 
ATOM     18  C   UNL     1       3.845   3.337  19.791  0.00  0.00    +0.000 A 
ATOM     19  C   UNL     1       4.394   4.358  19.010  0.00  0.00    +0.000 A 
ATOM     20  C   UNL     1       3.805   5.628  18.977  0.00  0.00    +0.000 A 
BRANCH  19  21
ATOM     21  N   UNL     1       5.550   4.050  18.214  0.00  0.00    +0.000 N 
ATOM     22  H   UNL     1       5.845   3.077  18.324  0.00  0.00    +0.000 HD
BRANCH  21  23
ATOM     23  S   UNL     1       6.901   5.046  18.490  0.00  0.00    +0.000 S 
ATOM     24  O   UNL     1       6.964   5.406  19.891  0.00  0.00    +0.000 OA
ATOM     25  O   UNL     1       7.998   4.368  17.835  0.00  0.00    +0.000 OA
BRANCH  23  26
ATOM     26  C   UNL     1       6.488   6.527  17.533  0.00  0.00    +0.000 C 
ATOM     27  C   UNL     1       7.626   7.540  17.515  0.00  0.00    +0.000 C 
ATOM     28  C   UNL     1       6.114   6.124  16.108  0.00  0.00    +0.000 C 
ENDBRANCH  23  26
ENDBRANCH  21  23
ENDBRANCH  19  21
ENDBRANCH   2  15
TORSDOF 8
ENDMDL
MODEL 3
REMARK VINA RESULT:      -8.0      1.111      1.528
REMARK  Name = 
REMARK  11 active torsions:
REMARK  status: ('A' for Active; 'I' for Inactive)
REMARK    1  A    between atoms: C_1  and  C_2
REMARK    2  A    between atoms: C_2  and  C_3
REMARK    3  A    between atoms: C_3  and  C_4
REMARK    4  A    between atoms: C_4  and  C_5
REMARK    5  A    between atoms: C_8  and  N_9
REMARK    6  A    between atoms: C_10  and  C_12
REMARK    7  A    between atoms: C_16  and  N_17
REMARK    8  A    between atoms: N_17  and  S_18
REMARK    9  A    between atoms: S_18  and  C_21
REMARK   10  A    between atoms: C_21  and  C_22
REMARK   11  A    between atoms: C_21  and  C_23
REMARK                            x       y       z     vdW  Elec       q    Type
REMARK                         _______ _______ _______ _____ _____    ______ ____
ROOT
ATOM      1  N   UNL     1       2.397   7.135  19.939  0.00  0.00    +0.000 N 
ATOM      2  C   UNL     1       2.005   5.833  20.203  0.00  0.00    +0.000 C 
ATOM      3  O   UNL     1       0.946   5.491  20.722  0.00  0.00    +0.000 OA
ATOM      4  H   UNL     1       3.168   7.282  19.303  0.00  0.00    +0.000 HD
ENDROOT
BRANCH   1   8
ATOM      5  C   UNL     1       0.111  10.566  20.956  0.00  0.00    +0.000 A 
ATOM      6  C   UNL     1       0.406   9.608  21.927  0.00  0.00    +0.000 A 
ATOM      7  C   UNL     1       1.173   8.487  21.609  0.00  0.00    +0.000 A 
ATOM      8  C   UNL     1       1.648   8.282  20.309  0.00  0.00    +0.000 A 
ATOM      9  C   UNL     1       1.372   9.249  19.338  0.00  0.00    +0.000 A 
ATOM     10  C   UNL     1       0.600  10.377  19.659  0.00  0.00    +0.000 A 
BRANCH   5  11
ATOM     11  C   UNL     1      -0.708  11.784  21.306  0.00  0.00    +0.000 C 
BRANCH  11  12
ATOM     12  C   UNL     1      -0.973  11.942  22.809  0.00  0.00    +0.000 C 
BRANCH  12  14
ATOM     13  C   UNL     1      -3.381  12.325  23.423  0.00  0.00    +0.000 C 
ATOM     14  C   UNL     1      -2.047  12.987  23.122  0.00  0.00    +0.000 C 
ENDBRANCH  12  14
ENDBRANCH  11  12
ENDBRANCH   5  11
ENDBRANCH   1   8
BRANCH   2  15
ATOM     15  C   UNL     1       2.917   4.739  19.771  0.00  0.00    +0.000 A 
ATOM     16  C   UNL     1       2.807   3.523  20.465  0.00  0.00    +0.000 A 
ATOM     17  C   UNL     1       3.686   2.474  20.209  0.00  0.00    +0.000 A 
ATOM     18  C   UNL     1       4.692   2.639  19.263  0.00  0.00    +0.000 A 
ATOM     19  C   UNL     1       4.821   3.851  18.579  0.00  0.00    +0.000 A 
ATOM     20  C   UNL     1       3.923   4.902  18.808  0.00  0.00    +0.000 A 
BRANCH  19  21
ATOM     21  N   UNL     1       5.873   3.968  17.607  0.00  0.00    +0.000 N 
ATOM     22  H   UNL     1       6.214   3.055  17.298  0.00  0.00    +0.000 HD
BRANCH  21  23
ATOM     23  S   UNL     1       7.211   4.893  18.102  0.00  0.00    +0.000 S 
ATOM     24  O   UNL     1       7.019   5.340  19.466  0.00  0.00    +0.000 OA
ATOM     25  O   UNL     1       8.364   4.105  17.723  0.00  0.00    +0.000 OA
BRANCH  23  26
ATOM     26  C   UNL     1       7.113   6.330  17.005  0.00  0.00    +0.000 C 
ATOM     27  C   UNL     1       5.702   6.557  16.474  0.00  0.00    +0.000 C 
ATOM     28  C   UNL     1       7.607   7.571  17.745  0.00  0.00    +0.000 C 
ENDBRANCH  23  26
ENDBRANCH  21  23
ENDBRANCH  19  21
ENDBRANCH   2  15
TORSDOF 8
ENDMDL
MODEL 4
REMARK VINA RESULT:      -8.0      1.031      1.264
REMARK  Name = 
REMARK  11 active torsions:
REMARK  status: ('A' for Active; 'I' for Inactive)
REMARK    1  A    between atoms: C_1  and  C_2
REMARK    2  A    between atoms: C_2  and  C_3
REMARK    3  A    between atoms: C_3  and  C_4
REMARK    4  A    between atoms: C_4  and  C_5
REMARK    5  A    between atoms: C_8  and  N_9
REMARK    6  A    between atoms: C_10  and  C_12
REMARK    7  A    between atoms: C_16  and  N_17
REMARK    8  A    between atoms: N_17  and  S_18
REMARK    9  A    between atoms: S_18  and  C_21
REMARK   10  A    between atoms: C_21  and  C_22
REMARK   11  A    between atoms: C_21  and  C_23
REMARK                            x       y       z     vdW  Elec       q    Type
REMARK                         _______ _______ _______ _____ _____    ______ ____
ROOT
ATOM      1  N   UNL     1       1.973   7.670  19.679  0.00  0.00    +0.000 N 
ATOM      2  C   UNL     1       1.942   6.328  20.021  0.00  0.00    +0.000 C 
ATOM      3  O   UNL     1       1.287   5.833  20.934  0.00  0.00    +0.000 OA
ATOM      4  H   UNL     1       2.351   7.924  18.777  0.00  0.00    +0.000 HD
ENDROOT
BRANCH   1   8
ATOM      5  C   UNL     1      -0.120  10.723  21.758  0.00  0.00    +0.000 A 
ATOM      6  C   UNL     1       0.564   9.735  22.468  0.00  0.00    +0.000 A 
ATOM      7  C   UNL     1       1.270   8.739  21.795  0.00  0.00    +0.000 A 
ATOM      8  C   UNL     1       1.297   8.690  20.397  0.00  0.00    +0.000 A 
ATOM      9  C   UNL     1       0.631   9.690  19.683  0.00  0.00    +0.000 A 
ATOM     10  C   UNL     1      -0.081  10.693  20.360  0.00  0.00    +0.000 A 
BRANCH   5  11
ATOM     11  C   UNL     1      -0.874  11.807  22.489  0.00  0.00    +0.000 C 
BRANCH  11  12
ATOM     12  C   UNL     1      -1.555  12.822  21.562  0.00  0.00    +0.000 C 
BRANCH  12  14
ATOM     13  C   UNL     1      -1.976  13.858  23.815  0.00  0.00    +0.000 C 
ATOM     14  C   UNL     1      -2.231  13.968  22.321  0.00  0.00    +0.000 C 
ENDBRANCH  12  14
ENDBRANCH  11  12
ENDBRANCH   5  11
ENDBRANCH   1   8
BRANCH   2  15
ATOM     15  C   UNL     1       2.726   5.384  19.178  0.00  0.00    +0.000 A 
ATOM     16  C   UNL     1       1.988   4.546  18.326  0.00  0.00    +0.000 A 
ATOM     17  C   UNL     1       2.619   3.557  17.578  0.00  0.00    +0.000 A 
ATOM     18  C   UNL     1       3.995   3.390  17.686  0.00  0.00    +0.000 A 
ATOM     19  C   UNL     1       4.737   4.207  18.544  0.00  0.00    +0.000 A 
ATOM     20  C   UNL     1       4.115   5.225  19.278  0.00  0.00    +0.000 A 
BRANCH  19  21
ATOM     21  N   UNL     1       6.157   3.997  18.614  0.00  0.00    +0.000 N 
ATOM     22  H   UNL     1       6.515   4.104  19.565  0.00  0.00    +0.000 HD
BRANCH  21  23
ATOM     23  S   UNL     1       7.081   4.988  17.585  0.00  0.00    +0.000 S 
ATOM     24  O   UNL     1       7.239   6.298  18.181  0.00  0.00    +0.000 OA
ATOM     25  O   UNL     1       8.226   4.179  17.227  0.00  0.00    +0.000 OA
BRANCH  23  26
ATOM     26  C   UNL     1       6.010   5.141  16.133  0.00  0.00    +0.000 C 
ATOM     27  C   UNL     1       5.403   6.533  16.006  0.00  0.00    +0.000 C 
ATOM     28  C   UNL     1       6.803   4.791  14.876  0.00  0.00    +0.000 C 
ENDBRANCH  23  26
ENDBRANCH  21  23
ENDBRANCH  19  21
ENDBRANCH   2  15
TORSDOF 8
ENDMDL
MODEL 5
REMARK VINA RESULT:      -7.9      0.924      1.519
REMARK  Name = 
REMARK  11 active torsions:
REMARK  status: ('A' for Active; 'I' for Inactive)
REMARK    1  A    between atoms: C_1  and  C_2
REMARK    2  A    between atoms: C_2  and  C_3
REMARK    3  A    between atoms: C_3  and  C_4
REMARK    4  A    between atoms: C_4  and  C_5
REMARK    5  A    between atoms: C_8  and  N_9
REMARK    6  A    between atoms: C_10  and  C_12
REMARK    7  A    between atoms: C_16  and  N_17
REMARK    8  A    between atoms: N_17  and  S_18
REMARK    9  A    between atoms: S_18  and  C_21
REMARK   10  A    between atoms: C_21  and  C_22
REMARK   11  A    between atoms: C_21  and  C_23
REMARK                            x       y       z     vdW  Elec       q    Type
REMARK                         _______ _______ _______ _____ _____    ______ ____
ROOT
ATOM      1  N   UNL     1       2.010   7.739  19.393  0.00  0.00    +0.000 N 
ATOM      2  C   UNL     1       1.984   6.427  19.837  0.00  0.00    +0.000 C 
ATOM      3  O   UNL     1       1.353   6.005  20.802  0.00  0.00    +0.000 OA
ATOM      4  H   UNL     1       2.364   7.921  18.464  0.00  0.00    +0.000 HD
ENDROOT
BRANCH   1   8
ATOM      5  C   UNL     1       0.115  10.937  21.444  0.00  0.00    +0.000 A 
ATOM      6  C   UNL     1       0.401  11.050  20.083  0.00  0.00    +0.000 A 
ATOM      7  C   UNL     1       1.006   9.998  19.395  0.00  0.00    +0.000 A 
ATOM      8  C   UNL     1       1.358   8.814  20.050  0.00  0.00    +0.000 A 
ATOM      9  C   UNL     1       1.054   8.688  21.409  0.00  0.00    +0.000 A 
ATOM     10  C   UNL     1       0.447   9.748  22.102  0.00  0.00    +0.000 A 
BRANCH   5  11
ATOM     11  C   UNL     1      -0.551  12.072  22.182  0.00  0.00    +0.000 C 
BRANCH  11  12
ATOM     12  C   UNL     1      -1.787  11.649  22.987  0.00  0.00    +0.000 C 
BRANCH  12  14
ATOM     13  C   UNL     1      -3.564  13.267  22.249  0.00  0.00    +0.000 C 
ATOM     14  C   UNL     1      -2.669  12.831  23.397  0.00  0.00    +0.000 C 
ENDBRANCH  12  14
ENDBRANCH  11  12
ENDBRANCH   5  11
ENDBRANCH   1   8
BRANCH   2  15
ATOM     15  C   UNL     1       2.741   5.417  19.047  0.00  0.00    +0.000 A 
ATOM     16  C   UNL     1       1.976   4.494  18.315  0.00  0.00    +0.000 A 
ATOM     17  C   UNL     1       2.585   3.447  17.631  0.00  0.00    +0.000 A 
ATOM     18  C   UNL     1       3.968   3.307  17.684  0.00  0.00    +0.000 A 
ATOM     19  C   UNL     1       4.737   4.209  18.424  0.00  0.00    +0.000 A 
ATOM     20  C   UNL     1       4.136   5.284  19.091  0.00  0.00    +0.000 A 
BRANCH  19  21
ATOM     21  N   UNL     1       6.162   4.023  18.441  0.00  0.00    +0.000 N 
ATOM     22  H   UNL     1       6.552   4.122  19.380  0.00  0.00    +0.000 HD
BRANCH  21  23
ATOM     23  S   UNL     1       7.033   5.047  17.398  0.00  0.00    +0.000 S 
ATOM     24  O   UNL     1       7.039   6.394  17.928  0.00  0.00    +0.000 OA
ATOM     25  O   UNL     1       8.264   4.336  17.128  0.00  0.00    +0.000 OA
BRANCH  23  26
ATOM     26  C   UNL     1       6.017   5.022  15.899  0.00  0.00    +0.000 C 
ATOM     27  C   UNL     1       5.286   6.341  15.674  0.00  0.00    +0.000 C 
ATOM     28  C   UNL     1       6.895   4.690  14.694  0.00  0.00    +0.000 C 
ENDBRANCH  23  26
ENDBRANCH  21  23
ENDBRANCH  19  21
ENDBRANCH   2  15
TORSDOF 8
ENDMDL
MODEL 6
REMARK VINA RESULT:      -7.9      0.882      1.465
REMARK  Name = 
REMARK  11 active torsions:
REMARK  status: ('A' for Active; 'I' for Inactive)
REMARK    1  A    between atoms: C_1  and  C_2
REMARK    2  A    between atoms: C_2  and  C_3
REMARK    3  A    between atoms: C_3  and  C_4
REMARK    4  A    between atoms: C_4  and  C_5
REMARK    5  A    between atoms: C_8  and  N_9
REMARK    6  A    between atoms: C_10  and  C_12
REMARK    7  A    between atoms: C_16  and  N_17
REMARK    8  A    between atoms: N_17  and  S_18
REMARK    9  A    between atoms: S_18  and  C_21
REMARK   10  A    between atoms: C_21  and  C_22
REMARK   11  A    between atoms: C_21  and  C_23
REMARK                            x       y       z     vdW  Elec       q    Type
REMARK                         _______ _______ _______ _____ _____    ______ ____
ROOT
ATOM      1  N   UNL     1       2.067   7.482  19.388  0.00  0.00    +0.000 N 
ATOM      2  C   UNL     1       1.974   6.147  19.743  0.00  0.00    +0.000 C 
ATOM      3  O   UNL     1       1.264   5.686  20.633  0.00  0.00    +0.000 OA
ATOM      4  H   UNL     1       2.491   7.711  18.499  0.00  0.00    +0.000 HD
ENDROOT
BRANCH   1   8
ATOM      5  C   UNL     1       0.133  10.620  21.495  0.00  0.00    +0.000 A 
ATOM      6  C   UNL     1       0.257  10.682  20.107  0.00  0.00    +0.000 A 
ATOM      7  C   UNL     1       0.874   9.648  19.402  0.00  0.00    +0.000 A 
ATOM      8  C   UNL     1       1.399   8.534  20.066  0.00  0.00    +0.000 A 
ATOM      9  C   UNL     1       1.258   8.458  21.455  0.00  0.00    +0.000 A 
ATOM     10  C   UNL     1       0.638   9.499  22.164  0.00  0.00    +0.000 A 
BRANCH   5  11
ATOM     11  C   UNL     1      -0.545  11.734  22.253  0.00  0.00    +0.000 C 
BRANCH  11  12
ATOM     12  C   UNL     1      -1.584  11.249  23.272  0.00  0.00    +0.000 C 
BRANCH  12  14
ATOM     13  C   UNL     1      -2.470  13.597  23.436  0.00  0.00    +0.000 C 
ATOM     14  C   UNL     1      -2.838  12.128  23.316  0.00  0.00    +0.000 C 
ENDBRANCH  12  14
ENDBRANCH  11  12
ENDBRANCH   5  11
ENDBRANCH   1   8
BRANCH   2  15
ATOM     15  C   UNL     1       2.758   5.165  18.944  0.00  0.00    +0.000 A 
ATOM     16  C   UNL     1       2.028   4.139  18.322  0.00  0.00    +0.000 A 
ATOM     17  C   UNL     1       2.678   3.113  17.643  0.00  0.00    +0.000 A 
ATOM     18  C   UNL     1       4.067   3.099  17.590  0.00  0.00    +0.000 A 
ATOM     19  C   UNL     1       4.805   4.105  18.220  0.00  0.00    +0.000 A 
ATOM     20  C   UNL     1       4.159   5.159  18.881  0.00  0.00    +0.000 A 
BRANCH  19  21
ATOM     21  N   UNL     1       6.237   4.047  18.130  0.00  0.00    +0.000 N 
ATOM     22  H   UNL     1       6.688   4.265  19.022  0.00  0.00    +0.000 HD
BRANCH  21  23
ATOM     23  S   UNL     1       6.924   5.044  16.935  0.00  0.00    +0.000 S 
ATOM     24  O   UNL     1       7.891   4.288  16.165  0.00  0.00    +0.000 OA
ATOM     25  O   UNL     1       5.795   5.690  16.301  0.00  0.00    +0.000 OA
BRANCH  23  26
ATOM     26  C   UNL     1       7.810   6.275  17.923  0.00  0.00    +0.000 C 
ATOM     27  C   UNL     1       7.292   7.689  17.686  0.00  0.00    +0.000 C 
ATOM     28  C   UNL     1       7.705   5.913  19.403  0.00  0.00    +0.000 C 
ENDBRANCH  23  26
ENDBRANCH  21  23
ENDBRANCH  19  21
ENDBRANCH   2  15
TORSDOF 8
ENDMDL
MODEL 7
REMARK VINA RESULT:      -7.8      2.400      3.729
REMARK  Name = 
REMARK  11 active torsions:
REMARK  status: ('A' for Active; 'I' for Inactive)
REMARK    1  A    between atoms: C_1  and  C_2
REMARK    2  A    between atoms: C_2  and  C_3
REMARK    3  A    between atoms: C_3  and  C_4
REMARK    4  A    between atoms: C_4  and  C_5
REMARK    5  A    between atoms: C_8  and  N_9
REMARK    6  A    between atoms: C_10  and  C_12
REMARK    7  A    between atoms: C_16  and  N_17
REMARK    8  A    between atoms: N_17  and  S_18
REMARK    9  A    between atoms: S_18  and  C_21
REMARK   10  A    between atoms: C_21  and  C_22
REMARK   11  A    between atoms: C_21  and  C_23
REMARK                            x       y       z     vdW  Elec       q    Type
REMARK                         _______ _______ _______ _____ _____    ______ ____
ROOT
ATOM      1  N   UNL     1       1.694   7.984  20.133  0.00  0.00    +0.000 N 
ATOM      2  C   UNL     1       2.000   8.027  18.783  0.00  0.00    +0.000 C 
ATOM      3  O   UNL     1       1.671   8.911  17.997  0.00  0.00    +0.000 OA
ATOM      4  H   UNL     1       2.212   7.345  20.720  0.00  0.00    +0.000 HD
ENDROOT
BRANCH   1   8
ATOM      5  C   UNL     1      -0.689  10.840  22.181  0.00  0.00    +0.000 A 
ATOM      6  C   UNL     1      -0.673  10.812  20.786  0.00  0.00    +0.000 A 
ATOM      7  C   UNL     1       0.091   9.866  20.103  0.00  0.00    +0.000 A 
ATOM      8  C   UNL     1       0.874   8.935  20.793  0.00  0.00    +0.000 A 
ATOM      9  C   UNL     1       0.845   8.946  22.191  0.00  0.00    +0.000 A 
ATOM     10  C   UNL     1       0.077   9.899  22.878  0.00  0.00    +0.000 A 
BRANCH   5  11
ATOM     11  C   UNL     1      -1.526  11.857  22.917  0.00  0.00    +0.000 C 
BRANCH  11  12
ATOM     12  C   UNL     1      -0.958  13.281  22.866  0.00  0.00    +0.000 C 
BRANCH  12  14
ATOM     13  C   UNL     1      -0.838  14.545  20.695  0.00  0.00    +0.000 C 
ATOM     14  C   UNL     1      -1.709  14.192  21.890  0.00  0.00    +0.000 C 
ENDBRANCH  12  14
ENDBRANCH  11  12
ENDBRANCH   5  11
ENDBRANCH   1   8
BRANCH   2  15
ATOM     15  C   UNL     1       2.855   6.937  18.236  0.00  0.00    +0.000 A 
ATOM     16  C   UNL     1       4.046   7.333  17.605  0.00  0.00    +0.000 A 
ATOM     17  C   UNL     1       4.859   6.401  16.968  0.00  0.00    +0.000 A 
ATOM     18  C   UNL     1       4.481   5.063  16.948  0.00  0.00    +0.000 A 
ATOM     19  C   UNL     1       3.289   4.660  17.557  0.00  0.00    +0.000 A 
ATOM     20  C   UNL     1       2.479   5.586  18.227  0.00  0.00    +0.000 A 
BRANCH  19  21
ATOM     21  N   UNL     1       2.948   3.265  17.514  0.00  0.00    +0.000 N 
ATOM     22  H   UNL     1       1.951   3.118  17.342  0.00  0.00    +0.000 HD
BRANCH  21  23
ATOM     23  S   UNL     1       3.383   2.374  18.896  0.00  0.00    +0.000 S 
ATOM     24  O   UNL     1       3.809   1.046  18.507  0.00  0.00    +0.000 OA
ATOM     25  O   UNL     1       4.251   3.257  19.645  0.00  0.00    +0.000 OA
BRANCH  23  26
ATOM     26  C   UNL     1       1.806   2.238  19.777  0.00  0.00    +0.000 C 
ATOM     27  C   UNL     1       1.685   3.252  20.908  0.00  0.00    +0.000 C 
ATOM     28  C   UNL     1       0.654   2.406  18.788  0.00  0.00    +0.000 C 
ENDBRANCH  23  26
ENDBRANCH  21  23
ENDBRANCH  19  21
ENDBRANCH   2  15
TORSDOF 8
ENDMDL
MODEL 8
REMARK VINA RESULT:      -7.7      2.358      3.498
REMARK  Name = 
REMARK  11 active torsions:
REMARK  status: ('A' for Active; 'I' for Inactive)
REMARK    1  A    between atoms: C_1  and  C_2
REMARK    2  A    between atoms: C_2  and  C_3
REMARK    3  A    between atoms: C_3  and  C_4
REMARK    4  A    between atoms: C_4  and  C_5
REMARK    5  A    between atoms: C_8  and  N_9
REMARK    6  A    between atoms: C_10  and  C_12
REMARK    7  A    between atoms: C_16  and  N_17
REMARK    8  A    between atoms: N_17  and  S_18
REMARK    9  A    between atoms: S_18  and  C_21
REMARK   10  A    between atoms: C_21  and  C_22
REMARK   11  A    between atoms: C_21  and  C_23
REMARK                            x       y       z     vdW  Elec       q    Type
REMARK                         _______ _______ _______ _____ _____    ______ ____
ROOT
ATOM      1  N   UNL     1       1.863   8.219  20.596  0.00  0.00    +0.000 N 
ATOM      2  C   UNL     1       1.986   8.116  19.220  0.00  0.00    +0.000 C 
ATOM      3  O   UNL     1       1.417   8.821  18.391  0.00  0.00    +0.000 OA
ATOM      4  H   UNL     1       2.551   7.755  21.173  0.00  0.00    +0.000 HD
ENDROOT
BRANCH   1   8
ATOM      5  C   UNL     1      -0.791  10.956  22.466  0.00  0.00    +0.000 A 
ATOM      6  C   UNL     1      -0.636   9.668  22.980  0.00  0.00    +0.000 A 
ATOM      7  C   UNL     1       0.247   8.767  22.385  0.00  0.00    +0.000 A 
ATOM      8  C   UNL     1       0.985   9.121  21.251  0.00  0.00    +0.000 A 
ATOM      9  C   UNL     1       0.849  10.417  20.745  0.00  0.00    +0.000 A 
ATOM     10  C   UNL     1      -0.041  11.323  21.343  0.00  0.00    +0.000 A 
BRANCH   5  11
ATOM     11  C   UNL     1      -1.738  11.932  23.119  0.00  0.00    +0.000 C 
BRANCH  11  12
ATOM     12  C   UNL     1      -2.204  13.060  22.190  0.00  0.00    +0.000 C 
BRANCH  12  14
ATOM     13  C   UNL     1      -4.658  13.600  22.098  0.00  0.00    +0.000 C 
ATOM     14  C   UNL     1      -3.540  12.760  21.504  0.00  0.00    +0.000 C 
ENDBRANCH  12  14
ENDBRANCH  11  12
ENDBRANCH   5  11
ENDBRANCH   1   8
BRANCH   2  15
ATOM     15  C   UNL     1       2.937   7.101  18.688  0.00  0.00    +0.000 A 
ATOM     16  C   UNL     1       3.624   7.444  17.512  0.00  0.00    +0.000 A 
ATOM     17  C   UNL     1       4.453   6.523  16.877  0.00  0.00    +0.000 A 
ATOM     18  C   UNL     1       4.590   5.245  17.408  0.00  0.00    +0.000 A 
ATOM     19  C   UNL     1       3.896   4.888  18.568  0.00  0.00    +0.000 A 
ATOM     20  C   UNL     1       3.084   5.817  19.231  0.00  0.00    +0.000 A 
BRANCH  19  21
ATOM     21  N   UNL     1       4.078   3.557  19.078  0.00  0.00    +0.000 N 
ATOM     22  H   UNL     1       4.997   3.177  18.842  0.00  0.00    +0.000 HD
BRANCH  21  23
ATOM     23  S   UNL     1       2.899   2.432  18.591  0.00  0.00    +0.000 S 
ATOM     24  O   UNL     1       2.127   2.977  17.494  0.00  0.00    +0.000 OA
ATOM     25  O   UNL     1       3.616   1.181  18.461  0.00  0.00    +0.000 OA
BRANCH  23  26
ATOM     26  C   UNL     1       1.834   2.334  20.052  0.00  0.00    +0.000 C 
ATOM     27  C   UNL     1       2.572   2.707  21.332  0.00  0.00    +0.000 C 
ATOM     28  C   UNL     1       0.618   3.237  19.857  0.00  0.00    +0.000 C 
ENDBRANCH  23  26
ENDBRANCH  21  23
ENDBRANCH  19  21
ENDBRANCH   2  15
TORSDOF 8
ENDMDL
MODEL 9
REMARK VINA RESULT:      -7.7      2.426      3.570
REMARK  Name = 
REMARK  11 active torsions:
REMARK  status: ('A' for Active; 'I' for Inactive)
REMARK    1  A    between atoms: C_1  and  C_2
REMARK    2  A    between atoms: C_2  and  C_3
REMARK    3  A    between atoms: C_3  and  C_4
REMARK    4  A    between atoms: C_4  and  C_5
REMARK    5  A    between atoms: C_8  and  N_9
REMARK    6  A    between atoms: C_10  and  C_12
REMARK    7  A    between atoms: C_16  and  N_17
REMARK    8  A    between atoms: N_17  and  S_18
REMARK    9  A    between atoms: S_18  and  C_21
REMARK   10  A    between atoms: C_21  and  C_22
REMARK   11  A    between atoms: C_21  and  C_23
REMARK                            x       y       z     vdW  Elec       q    Type
REMARK                         _______ _______ _______ _____ _____    ______ ____
ROOT
ATOM      1  N   UNL     1       1.859   8.235  19.360  0.00  0.00    +0.000 N 
ATOM      2  C   UNL     1       2.522   8.163  18.146  0.00  0.00    +0.000 C 
ATOM      3  O   UNL     1       2.483   9.006  17.253  0.00  0.00    +0.000 OA
ATOM      4  H   UNL     1       2.151   7.612  20.100  0.00  0.00    +0.000 HD
ENDROOT
BRANCH   1   8
ATOM      5  C   UNL     1      -0.888  11.313  20.362  0.00  0.00    +0.000 A 
ATOM      6  C   UNL     1      -0.070  10.757  21.346  0.00  0.00    +0.000 A 
ATOM      7  C   UNL     1       0.849   9.759  21.025  0.00  0.00    +0.000 A 
ATOM      8  C   UNL     1       0.964   9.276  19.717  0.00  0.00    +0.000 A 
ATOM      9  C   UNL     1       0.161   9.845  18.724  0.00  0.00    +0.000 A 
ATOM     10  C   UNL     1      -0.765  10.849  19.048  0.00  0.00    +0.000 A 
BRANCH   5  11
ATOM     11  C   UNL     1      -1.874  12.402  20.711  0.00  0.00    +0.000 C 
BRANCH  11  12
ATOM     12  C   UNL     1      -1.425  13.294  21.875  0.00  0.00    +0.000 C 
BRANCH  12  14
ATOM     13  C   UNL     1      -2.906  12.074  23.501  0.00  0.00    +0.000 C 
ATOM     14  C   UNL     1      -2.489  13.435  22.968  0.00  0.00    +0.000 C 
ENDBRANCH  12  14
ENDBRANCH  11  12
ENDBRANCH   5  11
ENDBRANCH   1   8
BRANCH   2  15
ATOM     15  C   UNL     1       3.411   6.991  17.914  0.00  0.00    +0.000 A 
ATOM     16  C   UNL     1       4.246   7.053  16.787  0.00  0.00    +0.000 A 
ATOM     17  C   UNL     1       5.035   5.965  16.425  0.00  0.00    +0.000 A 
ATOM     18  C   UNL     1       4.984   4.800  17.182  0.00  0.00    +0.000 A 
ATOM     19  C   UNL     1       4.142   4.721  18.295  0.00  0.00    +0.000 A 
ATOM     20  C   UNL     1       3.368   5.821  18.686  0.00  0.00    +0.000 A 
BRANCH  19  21
ATOM     21  N   UNL     1       4.132   3.497  19.047  0.00  0.00    +0.000 N 
ATOM     22  H   UNL     1       5.038   3.023  19.022  0.00  0.00    +0.000 HD
BRANCH  21  23
ATOM     23  S   UNL     1       2.937   2.379  18.585  0.00  0.00    +0.000 S 
ATOM     24  O   UNL     1       2.211   2.885  17.439  0.00  0.00    +0.000 OA
ATOM     25  O   UNL     1       3.622   1.105  18.542  0.00  0.00    +0.000 OA
BRANCH  23  26
ATOM     26  C   UNL     1       1.829   2.386  20.017  0.00  0.00    +0.000 C 
ATOM     27  C   UNL     1       2.561   2.717  21.313  0.00  0.00    +0.000 C 
ATOM     28  C   UNL     1       0.695   3.381  19.779  0.00  0.00    +0.000 C 
ENDBRANCH  23  26
ENDBRANCH  21  23
ENDBRANCH  19  21
ENDBRANCH   2  15
TORSDOF 8
ENDMDL
