MODEL 1
REMARK VINA RESULT:      -7.1      0.000      0.000
REMARK  Name = 
REMARK  9 active torsions:
REMARK  status: ('A' for Active; 'I' for Inactive)
REMARK    1  A    between atoms: C_2  and  C_3
REMARK    2  A    between atoms: C_3  and  C_4
REMARK    3  A    between atoms: C_4  and  C_5
REMARK    4  A    between atoms: C_5  and  O_7
REMARK    5  A    between atoms: C_11  and  O_13
REMARK    6  A    between atoms: O_13  and  C_14
REMARK    7  A    between atoms: C_14  and  C_15
REMARK    8  A    between atoms: C_14  and  C_16
REMARK    9  A    between atoms: C_14  and  C_17
REMARK                            x       y       z     vdW  Elec       q    Type
REMARK                         _______ _______ _______ _____ _____    ______ ____
ROOT
ATOM      1  C   UNL     1       6.371   5.655  17.339  0.00  0.00    +0.000 C 
ATOM      2  C   UNL     1       5.126   5.468  16.433  0.00  0.00    +0.000 C 
ATOM      3  C   UNL     1       3.876   6.108  17.022  0.00  0.00    +0.000 C 
ATOM      4  N   UNL     1       3.625   5.578  18.349  0.00  0.00    +0.000 N 
ATOM      5  C   UNL     1       2.433   4.916  18.577  0.00  0.00    +0.000 C 
ATOM      6  O   UNL     1       1.595   4.772  17.690  0.00  0.00    +0.000 OA
ATOM      7  C   UNL     1       4.697   5.761  19.321  0.00  0.00    +0.000 C 
ATOM      8  C   UNL     1       6.011   5.184  18.784  0.00  0.00    +0.000 C 
ENDROOT
BRANCH   1   9
ATOM      9  C   UNL     1       7.478   4.743  16.792  0.00  0.00    +0.000 C 
ATOM     10  O   UNL     1       7.746   4.617  15.605  0.00  0.00    +0.000 OA
BRANCH   9  11
ATOM     11  O   UNL     1       8.186   4.075  17.731  0.00  0.00    +0.000 OA
ATOM     12  H   UNL     1       7.682   3.466  18.298  0.00  0.00    +0.000 HD
ENDBRANCH   9  11
ENDBRANCH   1   9
BRANCH   1  13
ATOM     13  C   UNL     1       6.813   7.146  17.307  0.00  0.00    +0.000 C 
BRANCH  13  15
ATOM     14  C   UNL     1       8.446   8.779  18.271  0.00  0.00    +0.000 C 
ATOM     15  C   UNL     1       8.001   7.522  18.146  0.00  0.00    +0.000 C 
ENDBRANCH  13  15
ENDBRANCH   1  13
BRANCH   5  16
ATOM     16  O   UNL     1       2.278   4.457  19.847  0.00  0.00    +0.000 OA
BRANCH  16  17
ATOM     17  C   UNL     1       2.204   3.017  20.063  0.00  0.00    +0.000 C 
ATOM     18  C   UNL     1       2.279   2.665  21.556  0.00  0.00    +0.000 C 
ATOM     19  C   UNL     1       0.827   2.570  19.543  0.00  0.00    +0.000 C 
ATOM     20  C   UNL     1       3.272   2.281  19.241  0.00  0.00    +0.000 C 
ENDBRANCH  16  17
ENDBRANCH   5  16
TORSDOF 6
ENDMDL
MODEL 2
REMARK VINA RESULT:      -7.0      0.181      1.283
REMARK  Name = 
REMARK  9 active torsions:
REMARK  status: ('A' for Active; 'I' for Inactive)
REMARK    1  A    between atoms: C_2  and  C_3
REMARK    2  A    between atoms: C_3  and  C_4
REMARK    3  A    between atoms: C_4  and  C_5
REMARK    4  A    between atoms: C_5  and  O_7
REMARK    5  A    between atoms: C_11  and  O_13
REMARK    6  A    between atoms: O_13  and  C_14
REMARK    7  A    between atoms: C_14  and  C_15
REMARK    8  A    between atoms: C_14  and  C_16
REMARK    9  A    between atoms: C_14  and  C_17
REMARK                            x       y       z     vdW  Elec       q    Type
REMARK                         _______ _______ _______ _____ _____    ______ ____
ROOT
ATOM      1  C   UNL     1       6.306   5.677  17.448  0.00  0.00    +0.000 C 
ATOM      2  C   UNL     1       5.104   5.438  16.498  0.00  0.00    +0.000 C 
ATOM      3  C   UNL     1       3.815   6.053  17.025  0.00  0.00    +0.000 C 
ATOM      4  N   UNL     1       3.526   5.541  18.352  0.00  0.00    +0.000 N 
ATOM      5  C   UNL     1       2.345   4.850  18.547  0.00  0.00    +0.000 C 
ATOM      6  O   UNL     1       1.547   4.666  17.631  0.00  0.00    +0.000 OA
ATOM      7  C   UNL     1       4.554   5.771  19.361  0.00  0.00    +0.000 C 
ATOM      8  C   UNL     1       5.903   5.222  18.886  0.00  0.00    +0.000 C 
ENDROOT
BRANCH   1   9
ATOM      9  C   UNL     1       7.459   4.787  16.961  0.00  0.00    +0.000 C 
ATOM     10  O   UNL     1       8.201   4.152  17.697  0.00  0.00    +0.000 OA
BRANCH   9  11
ATOM     11  O   UNL     1       7.603   4.722  15.617  0.00  0.00    +0.000 OA
ATOM     12  H   UNL     1       7.925   3.876  15.259  0.00  0.00    +0.000 HD
ENDBRANCH   9  11
ENDBRANCH   1   9
BRANCH   1  13
ATOM     13  C   UNL     1       6.708   7.178  17.404  0.00  0.00    +0.000 C 
BRANCH  13  15
ATOM     14  C   UNL     1       8.411   8.827  18.207  0.00  0.00    +0.000 C 
ATOM     15  C   UNL     1       7.985   7.562  18.096  0.00  0.00    +0.000 C 
ENDBRANCH  13  15
ENDBRANCH   1  13
BRANCH   5  16
ATOM     16  O   UNL     1       2.153   4.410  19.818  0.00  0.00    +0.000 OA
BRANCH  16  17
ATOM     17  C   UNL     1       2.004   2.977  20.045  0.00  0.00    +0.000 C 
ATOM     18  C   UNL     1       0.825   2.397  19.250  0.00  0.00    +0.000 C 
ATOM     19  C   UNL     1       3.294   2.319  19.525  0.00  0.00    +0.000 C 
ATOM     20  C   UNL     1       1.897   2.666  21.546  0.00  0.00    +0.000 C 
ENDBRANCH  16  17
ENDBRANCH   5  16
TORSDOF 6
ENDMDL
MODEL 3
REMARK VINA RESULT:      -7.0      1.124      1.306
REMARK  Name = 
REMARK  9 active torsions:
REMARK  status: ('A' for Active; 'I' for Inactive)
REMARK    1  A    between atoms: C_2  and  C_3
REMARK    2  A    between atoms: C_3  and  C_4
REMARK    3  A    between atoms: C_4  and  C_5
REMARK    4  A    between atoms: C_5  and  O_7
REMARK    5  A    between atoms: C_11  and  O_13
REMARK    6  A    between atoms: O_13  and  C_14
REMARK    7  A    between atoms: C_14  and  C_15
REMARK    8  A    between atoms: C_14  and  C_16
REMARK    9  A    between atoms: C_14  and  C_17
REMARK                            x       y       z     vdW  Elec       q    Type
REMARK                         _______ _______ _______ _____ _____    ______ ____
ROOT
ATOM      1  C   UNL     1       6.556   5.518  17.976  0.00  0.00    +0.000 C 
ATOM      2  C   UNL     1       6.008   4.553  16.893  0.00  0.00    +0.000 C 
ATOM      3  C   UNL     1       4.605   4.929  16.435  0.00  0.00    +0.000 C 
ATOM      4  N   UNL     1       3.707   4.980  17.575  0.00  0.00    +0.000 N 
ATOM      5  C   UNL     1       2.618   4.129  17.591  0.00  0.00    +0.000 C 
ATOM      6  O   UNL     1       2.399   3.344  16.672  0.00  0.00    +0.000 OA
ATOM      7  C   UNL     1       4.076   5.912  18.635  0.00  0.00    +0.000 C 
ATOM      8  C   UNL     1       5.501   5.633  19.122  0.00  0.00    +0.000 C 
ENDROOT
BRANCH   1   9
ATOM      9  C   UNL     1       7.831   4.884  18.551  0.00  0.00    +0.000 C 
ATOM     10  O   UNL     1       8.557   4.114  17.939  0.00  0.00    +0.000 OA
BRANCH   9  11
ATOM     11  O   UNL     1       8.135   5.256  19.815  0.00  0.00    +0.000 OA
ATOM     12  H   UNL     1       9.082   5.334  20.027  0.00  0.00    +0.000 HD
ENDBRANCH   9  11
ENDBRANCH   1   9
BRANCH   1  13
ATOM     13  C   UNL     1       6.864   6.898  17.330  0.00  0.00    +0.000 C 
BRANCH  13  15
ATOM     14  C   UNL     1       8.053   9.038  17.851  0.00  0.00    +0.000 C 
ATOM     15  C   UNL     1       7.975   7.704  17.942  0.00  0.00    +0.000 C 
ENDBRANCH  13  15
ENDBRANCH   1  13
BRANCH   5  16
ATOM     16  O   UNL     1       1.829   4.246  18.691  0.00  0.00    +0.000 OA
BRANCH  16  17
ATOM     17  C   UNL     1       1.804   3.149  19.651  0.00  0.00    +0.000 C 
ATOM     18  C   UNL     1       1.475   3.644  21.067  0.00  0.00    +0.000 C 
ATOM     19  C   UNL     1       0.671   2.208  19.206  0.00  0.00    +0.000 C 
ATOM     20  C   UNL     1       3.115   2.350  19.608  0.00  0.00    +0.000 C 
ENDBRANCH  16  17
ENDBRANCH   5  16
TORSDOF 6
ENDMDL
MODEL 4
REMARK VINA RESULT:      -7.0      0.852      1.333
REMARK  Name = 
REMARK  9 active torsions:
REMARK  status: ('A' for Active; 'I' for Inactive)
REMARK    1  A    between atoms: C_2  and  C_3
REMARK    2  A    between atoms: C_3  and  C_4
REMARK    3  A    between atoms: C_4  and  C_5
REMARK    4  A    between atoms: C_5  and  O_7
REMARK    5  A    between atoms: C_11  and  O_13
REMARK    6  A    between atoms: O_13  and  C_14
REMARK    7  A    between atoms: C_14  and  C_15
REMARK    8  A    between atoms: C_14  and  C_16
REMARK    9  A    between atoms: C_14  and  C_17
REMARK                            x       y       z     vdW  Elec       q    Type
REMARK                         _______ _______ _______ _____ _____    ______ ____
ROOT
ATOM      1  C   UNL     1       6.288   5.646  17.052  0.00  0.00    +0.000 C 
ATOM      2  C   UNL     1       5.001   5.473  16.205  0.00  0.00    +0.000 C 
ATOM      3  C   UNL     1       3.736   5.754  17.006  0.00  0.00    +0.000 C 
ATOM      4  N   UNL     1       3.692   4.905  18.181  0.00  0.00    +0.000 N 
ATOM      5  C   UNL     1       2.633   4.027  18.318  0.00  0.00    +0.000 C 
ATOM      6  O   UNL     1       1.742   3.955  17.475  0.00  0.00    +0.000 OA
ATOM      7  C   UNL     1       4.817   5.032  19.101  0.00  0.00    +0.000 C 
ATOM      8  C   UNL     1       6.140   4.809  18.363  0.00  0.00    +0.000 C 
ENDROOT
BRANCH   1   9
ATOM      9  C   UNL     1       7.455   5.071  16.236  0.00  0.00    +0.000 C 
ATOM     10  O   UNL     1       7.743   5.421  15.101  0.00  0.00    +0.000 OA
BRANCH   9  11
ATOM     11  O   UNL     1       8.191   4.132  16.874  0.00  0.00    +0.000 OA
ATOM     12  H   UNL     1       7.991   3.995  17.817  0.00  0.00    +0.000 HD
ENDBRANCH   9  11
ENDBRANCH   1   9
BRANCH   1  13
ATOM     13  C   UNL     1       6.510   7.156  17.349  0.00  0.00    +0.000 C 
BRANCH  13  15
ATOM     14  C   UNL     1       8.258   8.825  18.002  0.00  0.00    +0.000 C 
ATOM     15  C   UNL     1       7.853   7.553  17.895  0.00  0.00    +0.000 C 
ENDBRANCH  13  15
ENDBRANCH   1  13
BRANCH   5  16
ATOM     16  O   UNL     1       2.668   3.274  19.448  0.00  0.00    +0.000 OA
BRANCH  16  17
ATOM     17  C   UNL     1       1.656   3.505  20.472  0.00  0.00    +0.000 C 
ATOM     18  C   UNL     1       0.317   2.850  20.102  0.00  0.00    +0.000 C 
ATOM     19  C   UNL     1       2.172   2.829  21.754  0.00  0.00    +0.000 C 
ATOM     20  C   UNL     1       1.503   5.005  20.767  0.00  0.00    +0.000 C 
ENDBRANCH  16  17
ENDBRANCH   5  16
TORSDOF 6
ENDMDL
MODEL 5
REMARK VINA RESULT:      -7.0      0.957      1.496
REMARK  Name = 
REMARK  9 active torsions:
REMARK  status: ('A' for Active; 'I' for Inactive)
REMARK    1  A    between atoms: C_2  and  C_3
REMARK    2  A    between atoms: C_3  and  C_4
REMARK    3  A    between atoms: C_4  and  C_5
REMARK    4  A    between atoms: C_5  and  O_7
REMARK    5  A    between atoms: C_11  and  O_13
REMARK    6  A    between atoms: O_13  and  C_14
REMARK    7  A    between atoms: C_14  and  C_15
REMARK    8  A    between atoms: C_14  and  C_16
REMARK    9  A    between atoms: C_14  and  C_17
REMARK                            x       y       z     vdW  Elec       q    Type
REMARK                         _______ _______ _______ _____ _____    ______ ____
ROOT
ATOM      1  C   UNL     1       6.581   5.791  17.480  0.00  0.00    +0.000 C 
ATOM      2  C   UNL     1       5.388   6.476  16.764  0.00  0.00    +0.000 C 
ATOM      3  C   UNL     1       4.333   6.977  17.741  0.00  0.00    +0.000 C 
ATOM      4  N   UNL     1       3.868   5.883  18.575  0.00  0.00    +0.000 N 
ATOM      5  C   UNL     1       2.528   5.546  18.530  0.00  0.00    +0.000 C 
ATOM      6  O   UNL     1       1.736   6.147  17.808  0.00  0.00    +0.000 OA
ATOM      7  C   UNL     1       4.892   5.203  19.362  0.00  0.00    +0.000 C 
ATOM      8  C   UNL     1       6.022   4.707  18.455  0.00  0.00    +0.000 C 
ENDROOT
BRANCH   1   9
ATOM      9  C   UNL     1       7.421   5.090  16.403  0.00  0.00    +0.000 C 
ATOM     10  O   UNL     1       7.470   5.435  15.231  0.00  0.00    +0.000 OA
BRANCH   9  11
ATOM     11  O   UNL     1       8.152   4.040  16.841  0.00  0.00    +0.000 OA
ATOM     12  H   UNL     1       9.045   3.948  16.465  0.00  0.00    +0.000 HD
ENDBRANCH   9  11
ENDBRANCH   1   9
BRANCH   1  13
ATOM     13  C   UNL     1       7.420   6.866  18.226  0.00  0.00    +0.000 C 
BRANCH  13  15
ATOM     14  C   UNL     1       8.279   9.210  18.036  0.00  0.00    +0.000 C 
ATOM     15  C   UNL     1       7.756   8.117  17.464  0.00  0.00    +0.000 C 
ENDBRANCH  13  15
ENDBRANCH   1  13
BRANCH   5  16
ATOM     16  O   UNL     1       2.179   4.516  19.344  0.00  0.00    +0.000 OA
BRANCH  16  17
ATOM     17  C   UNL     1       2.043   3.185  18.765  0.00  0.00    +0.000 C 
ATOM     18  C   UNL     1       2.573   3.137  17.325  0.00  0.00    +0.000 C 
ATOM     19  C   UNL     1       2.915   2.248  19.619  0.00  0.00    +0.000 C 
ATOM     20  C   UNL     1       0.593   2.688  18.864  0.00  0.00    +0.000 C 
ENDBRANCH  16  17
ENDBRANCH   5  16
TORSDOF 6
ENDMDL
MODEL 6
REMARK VINA RESULT:      -6.9      1.119      1.641
REMARK  Name = 
REMARK  9 active torsions:
REMARK  status: ('A' for Active; 'I' for Inactive)
REMARK    1  A    between atoms: C_2  and  C_3
REMARK    2  A    between atoms: C_3  and  C_4
REMARK    3  A    between atoms: C_4  and  C_5
REMARK    4  A    between atoms: C_5  and  O_7
REMARK    5  A    between atoms: C_11  and  O_13
REMARK    6  A    between atoms: O_13  and  C_14
REMARK    7  A    between atoms: C_14  and  C_15
REMARK    8  A    between atoms: C_14  and  C_16
REMARK    9  A    between atoms: C_14  and  C_17
REMARK                            x       y       z     vdW  Elec       q    Type
REMARK                         _______ _______ _______ _____ _____    ______ ____
ROOT
ATOM      1  C   UNL     1       6.502   5.453  17.891  0.00  0.00    +0.000 C 
ATOM      2  C   UNL     1       5.913   4.498  16.821  0.00  0.00    +0.000 C 
ATOM      3  C   UNL     1       4.505   4.895  16.399  0.00  0.00    +0.000 C 
ATOM      4  N   UNL     1       3.637   4.957  17.561  0.00  0.00    +0.000 N 
ATOM      5  C   UNL     1       2.536   4.123  17.604  0.00  0.00    +0.000 C 
ATOM      6  O   UNL     1       2.283   3.342  16.690  0.00  0.00    +0.000 OA
ATOM      7  C   UNL     1       4.046   5.883  18.612  0.00  0.00    +0.000 C 
ATOM      8  C   UNL     1       5.478   5.582  19.063  0.00  0.00    +0.000 C 
ENDROOT
BRANCH   1   9
ATOM      9  C   UNL     1       7.782   4.801  18.433  0.00  0.00    +0.000 C 
ATOM     10  O   UNL     1       8.529   4.091  17.775  0.00  0.00    +0.000 OA
BRANCH   9  11
ATOM     11  O   UNL     1       8.063   5.081  19.726  0.00  0.00    +0.000 OA
ATOM     12  H   UNL     1       8.011   4.335  20.350  0.00  0.00    +0.000 HD
ENDBRANCH   9  11
ENDBRANCH   1   9
BRANCH   1  13
ATOM     13  C   UNL     1       6.815   6.829  17.238  0.00  0.00    +0.000 C 
BRANCH  13  15
ATOM     14  C   UNL     1       7.960   8.975  17.829  0.00  0.00    +0.000 C 
ATOM     15  C   UNL     1       7.926   7.636  17.848  0.00  0.00    +0.000 C 
ENDBRANCH  13  15
ENDBRANCH   1  13
BRANCH   5  16
ATOM     16  O   UNL     1       1.776   4.250  18.723  0.00  0.00    +0.000 OA
BRANCH  16  17
ATOM     17  C   UNL     1       1.636   3.098  19.605  0.00  0.00    +0.000 C 
ATOM     18  C   UNL     1       0.652   2.065  19.035  0.00  0.00    +0.000 C 
ATOM     19  C   UNL     1       3.023   2.436  19.680  0.00  0.00    +0.000 C 
ATOM     20  C   UNL     1       1.253   3.536  21.027  0.00  0.00    +0.000 C 
ENDBRANCH  16  17
ENDBRANCH   5  16
TORSDOF 6
ENDMDL
MODEL 7
REMARK VINA RESULT:      -6.8      0.972      1.271
REMARK  Name = 
REMARK  9 active torsions:
REMARK  status: ('A' for Active; 'I' for Inactive)
REMARK    1  A    between atoms: C_2  and  C_3
REMARK    2  A    between atoms: C_3  and  C_4
REMARK    3  A    between atoms: C_4  and  C_5
REMARK    4  A    between atoms: C_5  and  O_7
REMARK    5  A    between atoms: C_11  and  O_13
REMARK    6  A    between atoms: O_13  and  C_14
REMARK    7  A    between atoms: C_14  and  C_15
REMARK    8  A    between atoms: C_14  and  C_16
REMARK    9  A    between atoms: C_14  and  C_17
REMARK                            x       y       z     vdW  Elec       q    Type
REMARK                         _______ _______ _______ _____ _____    ______ ____
ROOT
ATOM      1  C   UNL     1       6.574   5.776  17.476  0.00  0.00    +0.000 C 
ATOM      2  C   UNL     1       5.371   6.450  16.766  0.00  0.00    +0.000 C 
ATOM      3  C   UNL     1       4.314   6.937  17.748  0.00  0.00    +0.000 C 
ATOM      4  N   UNL     1       3.864   5.837  18.580  0.00  0.00    +0.000 N 
ATOM      5  C   UNL     1       2.527   5.487  18.539  0.00  0.00    +0.000 C 
ATOM      6  O   UNL     1       1.727   6.081  17.822  0.00  0.00    +0.000 OA
ATOM      7  C   UNL     1       4.897   5.166  19.362  0.00  0.00    +0.000 C 
ATOM      8  C   UNL     1       6.029   4.684  18.451  0.00  0.00    +0.000 C 
ENDROOT
BRANCH   1   9
ATOM      9  C   UNL     1       7.417   5.086  16.394  0.00  0.00    +0.000 C 
ATOM     10  O   UNL     1       7.470   5.444  15.226  0.00  0.00    +0.000 OA
BRANCH   9  11
ATOM     11  O   UNL     1       8.147   4.031  16.824  0.00  0.00    +0.000 OA
ATOM     12  H   UNL     1       8.574   3.493  16.135  0.00  0.00    +0.000 HD
ENDBRANCH   9  11
ENDBRANCH   1   9
BRANCH   1  13
ATOM     13  C   UNL     1       7.404   6.858  18.222  0.00  0.00    +0.000 C 
BRANCH  13  15
ATOM     14  C   UNL     1       8.280   9.196  18.027  0.00  0.00    +0.000 C 
ATOM     15  C   UNL     1       7.719   8.117  17.464  0.00  0.00    +0.000 C 
ENDBRANCH  13  15
ENDBRANCH   1  13
BRANCH   5  16
ATOM     16  O   UNL     1       2.192   4.451  19.352  0.00  0.00    +0.000 OA
BRANCH  16  17
ATOM     17  C   UNL     1       2.068   3.119  18.771  0.00  0.00    +0.000 C 
ATOM     18  C   UNL     1       0.618   2.617  18.811  0.00  0.00    +0.000 C 
ATOM     19  C   UNL     1       2.481   3.250  17.294  0.00  0.00    +0.000 C 
ATOM     20  C   UNL     1       3.040   2.135  19.439  0.00  0.00    +0.000 C 
ENDBRANCH  16  17
ENDBRANCH   5  16
TORSDOF 6
ENDMDL
MODEL 8
REMARK VINA RESULT:      -6.7      1.336      1.535
REMARK  Name = 
REMARK  9 active torsions:
REMARK  status: ('A' for Active; 'I' for Inactive)
REMARK    1  A    between atoms: C_2  and  C_3
REMARK    2  A    between atoms: C_3  and  C_4
REMARK    3  A    between atoms: C_4  and  C_5
REMARK    4  A    between atoms: C_5  and  O_7
REMARK    5  A    between atoms: C_11  and  O_13
REMARK    6  A    between atoms: O_13  and  C_14
REMARK    7  A    between atoms: C_14  and  C_15
REMARK    8  A    between atoms: C_14  and  C_16
REMARK    9  A    between atoms: C_14  and  C_17
REMARK                            x       y       z     vdW  Elec       q    Type
REMARK                         _______ _______ _______ _____ _____    ______ ____
ROOT
ATOM      1  C   UNL     1       6.441   5.327  16.413  0.00  0.00    +0.000 C 
ATOM      2  C   UNL     1       5.162   6.164  16.151  0.00  0.00    +0.000 C 
ATOM      3  C   UNL     1       4.364   6.421  17.422  0.00  0.00    +0.000 C 
ATOM      4  N   UNL     1       4.027   5.162  18.060  0.00  0.00    +0.000 N 
ATOM      5  C   UNL     1       2.692   4.848  18.230  0.00  0.00    +0.000 C 
ATOM      6  O   UNL     1       1.799   5.605  17.857  0.00  0.00    +0.000 OA
ATOM      7  C   UNL     1       5.156   4.313  18.428  0.00  0.00    +0.000 C 
ATOM      8  C   UNL     1       6.042   4.044  17.208  0.00  0.00    +0.000 C 
ENDROOT
BRANCH   1   9
ATOM      9  C   UNL     1       6.998   4.900  15.047  0.00  0.00    +0.000 C 
ATOM     10  O   UNL     1       7.787   5.559  14.385  0.00  0.00    +0.000 OA
BRANCH   9  11
ATOM     11  O   UNL     1       6.568   3.697  14.605  0.00  0.00    +0.000 OA
ATOM     12  H   UNL     1       6.358   3.635  13.657  0.00  0.00    +0.000 HD
ENDBRANCH   9  11
ENDBRANCH   1   9
BRANCH   1  13
ATOM     13  C   UNL     1       7.474   6.193  17.187  0.00  0.00    +0.000 C 
BRANCH  13  15
ATOM     14  C   UNL     1       8.064   8.548  17.797  0.00  0.00    +0.000 C 
ATOM     15  C   UNL     1       7.206   7.669  17.262  0.00  0.00    +0.000 C 
ENDBRANCH  13  15
ENDBRANCH   1  13
BRANCH   5  16
ATOM     16  O   UNL     1       2.468   3.655  18.840  0.00  0.00    +0.000 OA
BRANCH  16  17
ATOM     17  C   UNL     1       2.039   3.653  20.234  0.00  0.00    +0.000 C 
ATOM     18  C   UNL     1       2.052   5.068  20.832  0.00  0.00    +0.000 C 
ATOM     19  C   UNL     1       0.585   3.152  20.240  0.00  0.00    +0.000 C 
ATOM     20  C   UNL     1       2.874   2.667  21.065  0.00  0.00    +0.000 C 
ENDBRANCH  16  17
ENDBRANCH   5  16
TORSDOF 6
ENDMDL
MODEL 9
REMARK VINA RESULT:      -6.6      1.218      1.336
REMARK  Name = 
REMARK  9 active torsions:
REMARK  status: ('A' for Active; 'I' for Inactive)
REMARK    1  A    between atoms: C_2  and  C_3
REMARK    2  A    between atoms: C_3  and  C_4
REMARK    3  A    between atoms: C_4  and  C_5
REMARK    4  A    between atoms: C_5  and  O_7
REMARK    5  A    between atoms: C_11  and  O_13
REMARK    6  A    between atoms: O_13  and  C_14
REMARK    7  A    between atoms: C_14  and  C_15
REMARK    8  A    between atoms: C_14  and  C_16
REMARK    9  A    between atoms: C_14  and  C_17
REMARK                            x       y       z     vdW  Elec       q    Type
REMARK                         _______ _______ _______ _____ _____    ______ ____
ROOT
ATOM      1  C   UNL     1       6.508   5.587  17.087  0.00  0.00    +0.000 C 
ATOM      2  C   UNL     1       5.290   6.457  16.679  0.00  0.00    +0.000 C 
ATOM      3  C   UNL     1       4.559   7.035  17.883  0.00  0.00    +0.000 C 
ATOM      4  N   UNL     1       4.147   5.966  18.774  0.00  0.00    +0.000 N 
ATOM      5  C   UNL     1       2.797   5.806  19.029  0.00  0.00    +0.000 C 
ATOM      6  O   UNL     1       1.954   6.542  18.521  0.00  0.00    +0.000 OA
ATOM      7  C   UNL     1       5.217   5.119  19.290  0.00  0.00    +0.000 C 
ATOM      8  C   UNL     1       6.038   4.532  18.138  0.00  0.00    +0.000 C 
ENDROOT
BRANCH   1   9
ATOM      9  C   UNL     1       6.983   4.844  15.830  0.00  0.00    +0.000 C 
ATOM     10  O   UNL     1       7.750   5.310  15.000  0.00  0.00    +0.000 OA
BRANCH   9  11
ATOM     11  O   UNL     1       6.504   3.586  15.694  0.00  0.00    +0.000 OA
ATOM     12  H   UNL     1       7.110   2.934  15.301  0.00  0.00    +0.000 HD
ENDBRANCH   9  11
ENDBRANCH   1   9
BRANCH   1  13
ATOM     13  C   UNL     1       7.632   6.504  17.647  0.00  0.00    +0.000 C 
BRANCH  13  15
ATOM     14  C   UNL     1       8.197   8.920  17.983  0.00  0.00    +0.000 C 
ATOM     15  C   UNL     1       7.558   7.963  17.296  0.00  0.00    +0.000 C 
ENDBRANCH  13  15
ENDBRANCH   1  13
BRANCH   5  16
ATOM     16  O   UNL     1       2.501   4.787  19.876  0.00  0.00    +0.000 OA
BRANCH  16  17
ATOM     17  C   UNL     1       2.053   3.519  19.312  0.00  0.00    +0.000 C 
ATOM     18  C   UNL     1       3.007   2.370  19.672  0.00  0.00    +0.000 C 
ATOM     19  C   UNL     1       0.688   3.216  19.955  0.00  0.00    +0.000 C 
ATOM     20  C   UNL     1       1.836   3.637  17.796  0.00  0.00    +0.000 C 
ENDBRANCH  16  17
ENDBRANCH   5  16
TORSDOF 6
ENDMDL
