MODEL 1
REMARK VINA RESULT:      -7.8      0.000      0.000
REMARK  Name = 
REMARK  5 active torsions:
REMARK  status: ('A' for Active; 'I' for Inactive)
REMARK    1  A    between atoms: C_2  and  C_11
REMARK    2  A    between atoms: N_3  and  C_4
REMARK    3  A    between atoms: C_4  and  C_5
REMARK    4  A    between atoms: C_17  and  C_18
REMARK    5  A    between atoms: C_18  and  O_20
REMARK                            x       y       z     vdW  Elec       q    Type
REMARK                         _______ _______ _______ _____ _____    ______ ____
ROOT
ATOM      1  O   UNL     1       2.954   3.769  16.496  0.00  0.00    +0.000 OA
ATOM      2  C   UNL     1       4.058   3.814  17.035  0.00  0.00    +0.000 C 
ATOM      3  N   UNL     1       4.523   2.853  17.895  0.00  0.00    +0.000 N 
ATOM      4  H   UNL     1       5.525   2.800  18.071  0.00  0.00    +0.000 HD
ENDROOT
BRANCH   2   5
ATOM      5  C   UNL     1       5.028   4.926  16.671  0.00  0.00    +0.000 C 
ATOM      6  C   UNL     1       5.287   5.880  17.840  0.00  0.00    +0.000 C 
ATOM      7  C   UNL     1       6.013   7.133  17.367  0.00  0.00    +0.000 C 
ATOM      8  C   UNL     1       7.428   6.611  17.139  0.00  0.00    +0.000 C 
ATOM      9  C   UNL     1       7.278   5.112  17.406  0.00  0.00    +0.000 C 
ATOM     10  O   UNL     1       6.350   5.169  18.532  0.00  0.00    +0.000 OA
ATOM     11  C   UNL     1       6.419   4.340  16.396  0.00  0.00    +0.000 C 
BRANCH  11  12
ATOM     12  C   UNL     1       6.855   4.470  14.958  0.00  0.00    +0.000 C 
ATOM     13  O   UNL     1       7.628   5.314  14.536  0.00  0.00    +0.000 OA
BRANCH  12  14
ATOM     14  O   UNL     1       6.350   3.502  14.159  0.00  0.00    +0.000 OA
ATOM     15  H   UNL     1       7.005   2.975  13.654  0.00  0.00    +0.000 HD
ENDBRANCH  12  14
ENDBRANCH  11  12
ENDBRANCH   2   5
BRANCH   3  16
ATOM     16  C   UNL     1       3.698   1.765  18.374  0.00  0.00    +0.000 C 
BRANCH  16  17
ATOM     17  C   UNL     1       2.843   2.195  19.531  0.00  0.00    +0.000 A 
ATOM     18  C   UNL     1       1.488   2.508  19.380  0.00  0.00    +0.000 A 
ATOM     19  C   UNL     1       0.745   2.915  20.487  0.00  0.00    +0.000 A 
ATOM     20  C   UNL     1       1.378   2.991  21.717  0.00  0.00    +0.000 A 
ATOM     21  N   UNL     1       2.675   2.681  21.906  0.00  0.00    +0.000 NA
ATOM     22  C   UNL     1       3.376   2.289  20.815  0.00  0.00    +0.000 A 
ENDBRANCH  16  17
ENDBRANCH   3  16
TORSDOF 5
ENDMDL
MODEL 2
REMARK VINA RESULT:      -7.6      2.594      6.778
REMARK  Name = 
REMARK  5 active torsions:
REMARK  status: ('A' for Active; 'I' for Inactive)
REMARK    1  A    between atoms: C_2  and  C_11
REMARK    2  A    between atoms: N_3  and  C_4
REMARK    3  A    between atoms: C_4  and  C_5
REMARK    4  A    between atoms: C_17  and  C_18
REMARK    5  A    between atoms: C_18  and  O_20
REMARK                            x       y       z     vdW  Elec       q    Type
REMARK                         _______ _______ _______ _____ _____    ______ ____
ROOT
ATOM      1  O   UNL     1       5.703   4.182  19.412  0.00  0.00    +0.000 OA
ATOM      2  C   UNL     1       4.887   4.207  18.491  0.00  0.00    +0.000 C 
ATOM      3  N   UNL     1       5.239   4.255  17.167  0.00  0.00    +0.000 N 
ATOM      4  H   UNL     1       4.546   3.984  16.470  0.00  0.00    +0.000 HD
ENDROOT
BRANCH   2   5
ATOM      5  C   UNL     1       3.405   4.075  18.797  0.00  0.00    +0.000 C 
ATOM      6  C   UNL     1       2.609   3.537  17.605  0.00  0.00    +0.000 C 
ATOM      7  C   UNL     1       1.111   3.697  17.836  0.00  0.00    +0.000 C 
ATOM      8  C   UNL     1       0.830   2.596  18.853  0.00  0.00    +0.000 C 
ATOM      9  C   UNL     1       2.227   2.042  19.141  0.00  0.00    +0.000 C 
ATOM     10  O   UNL     1       2.783   2.106  17.792  0.00  0.00    +0.000 OA
ATOM     11  C   UNL     1       3.184   2.996  19.866  0.00  0.00    +0.000 C 
BRANCH  11  12
ATOM     12  C   UNL     1       2.670   3.541  21.175  0.00  0.00    +0.000 C 
ATOM     13  O   UNL     1       2.416   2.867  22.161  0.00  0.00    +0.000 OA
BRANCH  12  14
ATOM     14  O   UNL     1       2.570   4.890  21.189  0.00  0.00    +0.000 OA
ATOM     15  H   UNL     1       3.053   5.366  20.480  0.00  0.00    +0.000 HD
ENDBRANCH  12  14
ENDBRANCH  11  12
ENDBRANCH   2   5
BRANCH   3  16
ATOM     16  C   UNL     1       6.604   4.433  16.724  0.00  0.00    +0.000 C 
BRANCH  16  17
ATOM     17  C   UNL     1       6.697   4.437  15.225  0.00  0.00    +0.000 A 
ATOM     18  C   UNL     1       5.918   3.591  14.429  0.00  0.00    +0.000 A 
ATOM     19  C   UNL     1       6.055   3.627  13.042  0.00  0.00    +0.000 A 
ATOM     20  C   UNL     1       6.965   4.514  12.490  0.00  0.00    +0.000 A 
ATOM     21  N   UNL     1       7.719   5.357  13.222  0.00  0.00    +0.000 NA
ATOM     22  C   UNL     1       7.568   5.302  14.567  0.00  0.00    +0.000 A 
ENDBRANCH  16  17
ENDBRANCH   3  16
TORSDOF 5
ENDMDL
MODEL 3
REMARK VINA RESULT:      -7.5      2.607      6.283
REMARK  Name = 
REMARK  5 active torsions:
REMARK  status: ('A' for Active; 'I' for Inactive)
REMARK    1  A    between atoms: C_2  and  C_11
REMARK    2  A    between atoms: N_3  and  C_4
REMARK    3  A    between atoms: C_4  and  C_5
REMARK    4  A    between atoms: C_17  and  C_18
REMARK    5  A    between atoms: C_18  and  O_20
REMARK                            x       y       z     vdW  Elec       q    Type
REMARK                         _______ _______ _______ _____ _____    ______ ____
ROOT
ATOM      1  O   UNL     1       6.831   4.402  18.658  0.00  0.00    +0.000 OA
ATOM      2  C   UNL     1       5.739   4.544  18.110  0.00  0.00    +0.000 C 
ATOM      3  N   UNL     1       5.588   4.963  16.814  0.00  0.00    +0.000 N 
ATOM      4  H   UNL     1       4.702   4.783  16.344  0.00  0.00    +0.000 HD
ENDROOT
BRANCH   2   5
ATOM      5  C   UNL     1       4.472   4.144  18.847  0.00  0.00    +0.000 C 
ATOM      6  C   UNL     1       3.755   5.345  19.469  0.00  0.00    +0.000 C 
ATOM      7  C   UNL     1       2.671   4.888  20.438  0.00  0.00    +0.000 C 
ATOM      8  C   UNL     1       1.583   4.400  19.487  0.00  0.00    +0.000 C 
ATOM      9  C   UNL     1       2.248   4.543  18.117  0.00  0.00    +0.000 C 
ATOM     10  O   UNL     1       2.963   5.797  18.337  0.00  0.00    +0.000 OA
ATOM     11  C   UNL     1       3.434   3.607  17.852  0.00  0.00    +0.000 C 
BRANCH  11  12
ATOM     12  C   UNL     1       3.138   2.139  18.024  0.00  0.00    +0.000 C 
ATOM     13  O   UNL     1       3.791   1.370  18.712  0.00  0.00    +0.000 OA
BRANCH  12  14
ATOM     14  O   UNL     1       2.015   1.742  17.383  0.00  0.00    +0.000 OA
ATOM     15  H   UNL     1       1.255   1.501  17.953  0.00  0.00    +0.000 HD
ENDBRANCH  12  14
ENDBRANCH  11  12
ENDBRANCH   2   5
BRANCH   3  16
ATOM     16  C   UNL     1       6.696   5.426  16.006  0.00  0.00    +0.000 C 
BRANCH  16  17
ATOM     17  C   UNL     1       6.640   4.848  14.620  0.00  0.00    +0.000 A 
ATOM     18  C   UNL     1       5.628   3.971  14.219  0.00  0.00    +0.000 A 
ATOM     19  C   UNL     1       5.633   3.455  12.924  0.00  0.00    +0.000 A 
ATOM     20  C   UNL     1       6.651   3.836  12.065  0.00  0.00    +0.000 A 
ATOM     21  N   UNL     1       7.633   4.691  12.408  0.00  0.00    +0.000 NA
ATOM     22  C   UNL     1       7.606   5.178  13.672  0.00  0.00    +0.000 A 
ENDBRANCH  16  17
ENDBRANCH   3  16
TORSDOF 5
ENDMDL
MODEL 4
REMARK VINA RESULT:      -7.5      2.554      6.112
REMARK  Name = 
REMARK  5 active torsions:
REMARK  status: ('A' for Active; 'I' for Inactive)
REMARK    1  A    between atoms: C_2  and  C_11
REMARK    2  A    between atoms: N_3  and  C_4
REMARK    3  A    between atoms: C_4  and  C_5
REMARK    4  A    between atoms: C_17  and  C_18
REMARK    5  A    between atoms: C_18  and  O_20
REMARK                            x       y       z     vdW  Elec       q    Type
REMARK                         _______ _______ _______ _____ _____    ______ ____
ROOT
ATOM      1  O   UNL     1       4.874   5.961  18.675  0.00  0.00    +0.000 OA
ATOM      2  C   UNL     1       4.950   4.739  18.789  0.00  0.00    +0.000 C 
ATOM      3  N   UNL     1       6.049   4.009  18.417  0.00  0.00    +0.000 N 
ATOM      4  H   UNL     1       6.161   3.070  18.797  0.00  0.00    +0.000 HD
ENDROOT
BRANCH   2   5
ATOM      5  C   UNL     1       3.825   3.977  19.468  0.00  0.00    +0.000 C 
ATOM      6  C   UNL     1       3.004   4.863  20.408  0.00  0.00    +0.000 C 
ATOM      7  C   UNL     1       2.090   4.020  21.289  0.00  0.00    +0.000 C 
ATOM      8  C   UNL     1       1.000   3.606  20.305  0.00  0.00    +0.000 C 
ATOM      9  C   UNL     1       1.510   4.177  18.981  0.00  0.00    +0.000 C 
ATOM     10  O   UNL     1       2.056   5.440  19.469  0.00  0.00    +0.000 OA
ATOM     11  C   UNL     1       2.788   3.534  18.428  0.00  0.00    +0.000 C 
BRANCH  11  12
ATOM     12  C   UNL     1       2.721   2.039  18.242  0.00  0.00    +0.000 C 
ATOM     13  O   UNL     1       3.596   1.254  18.570  0.00  0.00    +0.000 OA
BRANCH  12  14
ATOM     14  O   UNL     1       1.545   1.618  17.723  0.00  0.00    +0.000 OA
ATOM     15  H   UNL     1       1.250   0.722  17.993  0.00  0.00    +0.000 HD
ENDBRANCH  12  14
ENDBRANCH  11  12
ENDBRANCH   2   5
BRANCH   3  16
ATOM     16  C   UNL     1       7.173   4.587  17.713  0.00  0.00    +0.000 C 
BRANCH  16  17
ATOM     17  C   UNL     1       6.962   4.554  16.226  0.00  0.00    +0.000 A 
ATOM     18  C   UNL     1       6.005   3.729  15.628  0.00  0.00    +0.000 A 
ATOM     19  C   UNL     1       5.861   3.729  14.241  0.00  0.00    +0.000 A 
ATOM     20  C   UNL     1       6.678   4.559  13.492  0.00  0.00    +0.000 A 
ATOM     21  N   UNL     1       7.599   5.381  14.032  0.00  0.00    +0.000 NA
ATOM     22  C   UNL     1       7.720   5.362  15.381  0.00  0.00    +0.000 A 
ENDBRANCH  16  17
ENDBRANCH   3  16
TORSDOF 5
ENDMDL
MODEL 5
REMARK VINA RESULT:      -7.4      2.606      6.553
REMARK  Name = 
REMARK  5 active torsions:
REMARK  status: ('A' for Active; 'I' for Inactive)
REMARK    1  A    between atoms: C_2  and  C_11
REMARK    2  A    between atoms: N_3  and  C_4
REMARK    3  A    between atoms: C_4  and  C_5
REMARK    4  A    between atoms: C_17  and  C_18
REMARK    5  A    between atoms: C_18  and  O_20
REMARK                            x       y       z     vdW  Elec       q    Type
REMARK                         _______ _______ _______ _____ _____    ______ ____
ROOT
ATOM      1  O   UNL     1       5.598   3.743  19.759  0.00  0.00    +0.000 OA
ATOM      2  C   UNL     1       4.847   3.941  18.806  0.00  0.00    +0.000 C 
ATOM      3  N   UNL     1       5.286   4.135  17.522  0.00  0.00    +0.000 N 
ATOM      4  H   UNL     1       4.626   4.004  16.756  0.00  0.00    +0.000 HD
ENDROOT
BRANCH   2   5
ATOM      5  C   UNL     1       3.343   3.872  19.007  0.00  0.00    +0.000 C 
ATOM      6  C   UNL     1       2.599   3.504  17.721  0.00  0.00    +0.000 C 
ATOM      7  C   UNL     1       1.100   3.732  17.876  0.00  0.00    +0.000 C 
ATOM      8  C   UNL     1       0.692   2.556  18.757  0.00  0.00    +0.000 C 
ATOM      9  C   UNL     1       2.034   1.891  19.071  0.00  0.00    +0.000 C 
ATOM     10  O   UNL     1       2.680   2.053  17.772  0.00  0.00    +0.000 OA
ATOM     11  C   UNL     1       2.992   2.709  19.946  0.00  0.00    +0.000 C 
BRANCH  11  12
ATOM     12  C   UNL     1       2.424   3.154  21.269  0.00  0.00    +0.000 C 
ATOM     13  O   UNL     1       2.357   2.458  22.270  0.00  0.00    +0.000 OA
BRANCH  12  14
ATOM     14  O   UNL     1       2.041   4.451  21.277  0.00  0.00    +0.000 OA
ATOM     15  H   UNL     1       2.206   4.954  20.452  0.00  0.00    +0.000 HD
ENDBRANCH  12  14
ENDBRANCH  11  12
ENDBRANCH   2   5
BRANCH   3  16
ATOM     16  C   UNL     1       6.686   4.276  17.185  0.00  0.00    +0.000 C 
BRANCH  16  17
ATOM     17  C   UNL     1       7.194   5.649  17.523  0.00  0.00    +0.000 A 
ATOM     18  C   UNL     1       7.948   5.902  18.673  0.00  0.00    +0.000 A 
ATOM     19  C   UNL     1       8.382   7.198  18.944  0.00  0.00    +0.000 A 
ATOM     20  C   UNL     1       8.054   8.206  18.052  0.00  0.00    +0.000 A 
ATOM     21  N   UNL     1       7.346   8.000  16.925  0.00  0.00    +0.000 NA
ATOM     22  C   UNL     1       6.935   6.731  16.685  0.00  0.00    +0.000 A 
ENDBRANCH  16  17
ENDBRANCH   3  16
TORSDOF 5
ENDMDL
MODEL 6
REMARK VINA RESULT:      -7.4      2.517      6.243
REMARK  Name = 
REMARK  5 active torsions:
REMARK  status: ('A' for Active; 'I' for Inactive)
REMARK    1  A    between atoms: C_2  and  C_11
REMARK    2  A    between atoms: N_3  and  C_4
REMARK    3  A    between atoms: C_4  and  C_5
REMARK    4  A    between atoms: C_17  and  C_18
REMARK    5  A    between atoms: C_18  and  O_20
REMARK                            x       y       z     vdW  Elec       q    Type
REMARK                         _______ _______ _______ _____ _____    ______ ____
ROOT
ATOM      1  O   UNL     1       5.805   4.649  19.366  0.00  0.00    +0.000 OA
ATOM      2  C   UNL     1       4.618   4.705  19.050  0.00  0.00    +0.000 C 
ATOM      3  N   UNL     1       4.141   5.483  18.027  0.00  0.00    +0.000 N 
ATOM      4  H   UNL     1       3.224   5.267  17.638  0.00  0.00    +0.000 HD
ENDROOT
BRANCH   2   5
ATOM      5  C   UNL     1       3.614   3.798  19.741  0.00  0.00    +0.000 C 
ATOM      6  C   UNL     1       2.884   4.502  20.887  0.00  0.00    +0.000 C 
ATOM      7  C   UNL     1       2.116   3.499  21.739  0.00  0.00    +0.000 C 
ATOM      8  C   UNL     1       0.929   3.168  20.841  0.00  0.00    +0.000 C 
ATOM      9  C   UNL     1       1.250   3.942  19.562  0.00  0.00    +0.000 C 
ATOM     10  O   UNL     1       1.807   5.153  20.158  0.00  0.00    +0.000 OA
ATOM     11  C   UNL     1       2.472   3.449  18.776  0.00  0.00    +0.000 C 
BRANCH  11  12
ATOM     12  C   UNL     1       2.435   1.993  18.388  0.00  0.00    +0.000 C 
ATOM     13  O   UNL     1       3.380   1.225  18.467  0.00  0.00    +0.000 OA
BRANCH  12  14
ATOM     14  O   UNL     1       1.211   1.578  17.991  0.00  0.00    +0.000 OA
ATOM     15  H   UNL     1       0.531   1.506  18.694  0.00  0.00    +0.000 HD
ENDBRANCH  12  14
ENDBRANCH  11  12
ENDBRANCH   2   5
BRANCH   3  16
ATOM     16  C   UNL     1       4.966   6.433  17.314  0.00  0.00    +0.000 C 
BRANCH  16  17
ATOM     17  C   UNL     1       5.658   5.788  16.147  0.00  0.00    +0.000 A 
ATOM     18  C   UNL     1       4.985   4.951  15.251  0.00  0.00    +0.000 A 
ATOM     19  C   UNL     1       5.680   4.369  14.193  0.00  0.00    +0.000 A 
ATOM     20  C   UNL     1       7.031   4.644  14.057  0.00  0.00    +0.000 A 
ATOM     21  N   UNL     1       7.710   5.459  14.888  0.00  0.00    +0.000 NA
ATOM     22  C   UNL     1       7.013   6.012  15.909  0.00  0.00    +0.000 A 
ENDBRANCH  16  17
ENDBRANCH   3  16
TORSDOF 5
ENDMDL
MODEL 7
REMARK VINA RESULT:      -7.4      2.513      6.473
REMARK  Name = 
REMARK  5 active torsions:
REMARK  status: ('A' for Active; 'I' for Inactive)
REMARK    1  A    between atoms: C_2  and  C_11
REMARK    2  A    between atoms: N_3  and  C_4
REMARK    3  A    between atoms: C_4  and  C_5
REMARK    4  A    between atoms: C_17  and  C_18
REMARK    5  A    between atoms: C_18  and  O_20
REMARK                            x       y       z     vdW  Elec       q    Type
REMARK                         _______ _______ _______ _____ _____    ______ ____
ROOT
ATOM      1  O   UNL     1       4.240   6.255  18.052  0.00  0.00    +0.000 OA
ATOM      2  C   UNL     1       4.143   5.071  18.373  0.00  0.00    +0.000 C 
ATOM      3  N   UNL     1       5.210   4.213  18.439  0.00  0.00    +0.000 N 
ATOM      4  H   UNL     1       5.111   3.353  18.977  0.00  0.00    +0.000 HD
ENDROOT
BRANCH   2   5
ATOM      5  C   UNL     1       2.801   4.523  18.826  0.00  0.00    +0.000 C 
ATOM      6  C   UNL     1       2.102   3.713  17.732  0.00  0.00    +0.000 C 
ATOM      7  C   UNL     1       0.651   3.435  18.105  0.00  0.00    +0.000 C 
ATOM      8  C   UNL     1       0.801   2.355  19.171  0.00  0.00    +0.000 C 
ATOM      9  C   UNL     1       2.319   2.254  19.333  0.00  0.00    +0.000 C 
ATOM     10  O   UNL     1       2.712   2.409  17.936  0.00  0.00    +0.000 OA
ATOM     11  C   UNL     1       3.006   3.485  19.937  0.00  0.00    +0.000 C 
BRANCH  11  12
ATOM     12  C   UNL     1       2.469   3.922  21.277  0.00  0.00    +0.000 C 
ATOM     13  O   UNL     1       2.217   3.172  22.207  0.00  0.00    +0.000 OA
BRANCH  12  14
ATOM     14  O   UNL     1       2.344   5.264  21.390  0.00  0.00    +0.000 OA
ATOM     15  H   UNL     1       3.091   5.797  21.046  0.00  0.00    +0.000 HD
ENDBRANCH  12  14
ENDBRANCH  11  12
ENDBRANCH   2   5
BRANCH   3  16
ATOM     16  C   UNL     1       6.537   4.576  17.991  0.00  0.00    +0.000 C 
BRANCH  16  17
ATOM     17  C   UNL     1       6.628   4.575  16.491  0.00  0.00    +0.000 A 
ATOM     18  C   UNL     1       5.862   3.713  15.700  0.00  0.00    +0.000 A 
ATOM     19  C   UNL     1       5.996   3.746  14.313  0.00  0.00    +0.000 A 
ATOM     20  C   UNL     1       6.891   4.645  13.756  0.00  0.00    +0.000 A 
ATOM     21  N   UNL     1       7.632   5.503  14.483  0.00  0.00    +0.000 NA
ATOM     22  C   UNL     1       7.484   5.451  15.829  0.00  0.00    +0.000 A 
ENDBRANCH  16  17
ENDBRANCH   3  16
TORSDOF 5
ENDMDL
MODEL 8
REMARK VINA RESULT:      -7.4      0.702      1.109
REMARK  Name = 
REMARK  5 active torsions:
REMARK  status: ('A' for Active; 'I' for Inactive)
REMARK    1  A    between atoms: C_2  and  C_11
REMARK    2  A    between atoms: N_3  and  C_4
REMARK    3  A    between atoms: C_4  and  C_5
REMARK    4  A    between atoms: C_17  and  C_18
REMARK    5  A    between atoms: C_18  and  O_20
REMARK                            x       y       z     vdW  Elec       q    Type
REMARK                         _______ _______ _______ _____ _____    ______ ____
ROOT
ATOM      1  O   UNL     1       2.787   4.363  17.071  0.00  0.00    +0.000 OA
ATOM      2  C   UNL     1       3.978   4.081  17.187  0.00  0.00    +0.000 C 
ATOM      3  N   UNL     1       4.432   2.843  17.563  0.00  0.00    +0.000 N 
ATOM      4  H   UNL     1       5.400   2.597  17.361  0.00  0.00    +0.000 HD
ENDROOT
BRANCH   2   5
ATOM      5  C   UNL     1       5.034   5.103  16.800  0.00  0.00    +0.000 C 
ATOM      6  C   UNL     1       5.383   6.046  17.954  0.00  0.00    +0.000 C 
ATOM      7  C   UNL     1       6.207   7.228  17.458  0.00  0.00    +0.000 C 
ATOM      8  C   UNL     1       7.571   6.586  17.227  0.00  0.00    +0.000 C 
ATOM      9  C   UNL     1       7.299   5.109  17.515  0.00  0.00    +0.000 C 
ATOM     10  O   UNL     1       6.389   5.258  18.647  0.00  0.00    +0.000 OA
ATOM     11  C   UNL     1       6.369   4.399  16.523  0.00  0.00    +0.000 C 
BRANCH  11  12
ATOM     12  C   UNL     1       6.801   4.473  15.080  0.00  0.00    +0.000 C 
ATOM     13  O   UNL     1       7.566   5.306  14.622  0.00  0.00    +0.000 OA
BRANCH  12  14
ATOM     14  O   UNL     1       6.304   3.469  14.322  0.00  0.00    +0.000 OA
ATOM     15  H   UNL     1       5.733   2.821  14.786  0.00  0.00    +0.000 HD
ENDBRANCH  12  14
ENDBRANCH  11  12
ENDBRANCH   2   5
BRANCH   3  16
ATOM     16  C   UNL     1       3.549   1.787  18.009  0.00  0.00    +0.000 C 
BRANCH  16  17
ATOM     17  C   UNL     1       2.791   2.192  19.242  0.00  0.00    +0.000 A 
ATOM     18  C   UNL     1       3.432   2.456  20.456  0.00  0.00    +0.000 A 
ATOM     19  C   UNL     1       2.677   2.815  21.572  0.00  0.00    +0.000 A 
ATOM     20  C   UNL     1       1.302   2.905  21.439  0.00  0.00    +0.000 A 
ATOM     21  N   UNL     1       0.650   2.676  20.283  0.00  0.00    +0.000 NA
ATOM     22  C   UNL     1       1.405   2.328  19.213  0.00  0.00    +0.000 A 
ENDBRANCH  16  17
ENDBRANCH   3  16
TORSDOF 5
ENDMDL
MODEL 9
REMARK VINA RESULT:      -7.4      2.465      6.275
REMARK  Name = 
REMARK  5 active torsions:
REMARK  status: ('A' for Active; 'I' for Inactive)
REMARK    1  A    between atoms: C_2  and  C_11
REMARK    2  A    between atoms: N_3  and  C_4
REMARK    3  A    between atoms: C_4  and  C_5
REMARK    4  A    between atoms: C_17  and  C_18
REMARK    5  A    between atoms: C_18  and  O_20
REMARK                            x       y       z     vdW  Elec       q    Type
REMARK                         _______ _______ _______ _____ _____    ______ ____
ROOT
ATOM      1  O   UNL     1       5.739   4.970  19.046  0.00  0.00    +0.000 OA
ATOM      2  C   UNL     1       4.536   5.190  18.920  0.00  0.00    +0.000 C 
ATOM      3  N   UNL     1       4.011   6.009  17.955  0.00  0.00    +0.000 N 
ATOM      4  H   UNL     1       3.021   5.920  17.726  0.00  0.00    +0.000 HD
ENDROOT
BRANCH   2   5
ATOM      5  C   UNL     1       3.541   4.451  19.799  0.00  0.00    +0.000 C 
ATOM      6  C   UNL     1       2.091   4.830  19.486  0.00  0.00    +0.000 C 
ATOM      7  C   UNL     1       1.149   4.310  20.565  0.00  0.00    +0.000 C 
ATOM      8  C   UNL     1       1.101   2.819  20.250  0.00  0.00    +0.000 C 
ATOM      9  C   UNL     1       2.111   2.685  19.108  0.00  0.00    +0.000 C 
ATOM     10  O   UNL     1       1.810   3.919  18.388  0.00  0.00    +0.000 OA
ATOM     11  C   UNL     1       3.575   2.950  19.482  0.00  0.00    +0.000 C 
BRANCH  11  12
ATOM     12  C   UNL     1       4.106   2.106  20.613  0.00  0.00    +0.000 C 
ATOM     13  O   UNL     1       3.578   1.993  21.708  0.00  0.00    +0.000 OA
BRANCH  12  14
ATOM     14  O   UNL     1       5.219   1.412  20.284  0.00  0.00    +0.000 OA
ATOM     15  H   UNL     1       5.828   1.198  21.023  0.00  0.00    +0.000 HD
ENDBRANCH  12  14
ENDBRANCH  11  12
ENDBRANCH   2   5
BRANCH   3  16
ATOM     16  C   UNL     1       4.832   6.817  17.080  0.00  0.00    +0.000 C 
BRANCH  16  17
ATOM     17  C   UNL     1       5.553   5.969  16.070  0.00  0.00    +0.000 A 
ATOM     18  C   UNL     1       4.881   5.071  15.236  0.00  0.00    +0.000 A 
ATOM     19  C   UNL     1       5.602   4.300  14.326  0.00  0.00    +0.000 A 
ATOM     20  C   UNL     1       6.978   4.453  14.273  0.00  0.00    +0.000 A 
ATOM     21  N   UNL     1       7.659   5.320  15.047  0.00  0.00    +0.000 NA
ATOM     22  C   UNL     1       6.936   6.058  15.923  0.00  0.00    +0.000 A 
ENDBRANCH  16  17
ENDBRANCH   3  16
TORSDOF 5
ENDMDL
