MODEL 1
REMARK VINA RESULT:      -8.5      0.000      0.000
REMARK  Name = 
REMARK  7 active torsions:
REMARK  status: ('A' for Active; 'I' for Inactive)
REMARK    1  A    between atoms: C_1  and  C_2
REMARK    2  A    between atoms: N_4  and  C_5
REMARK    3  A    between atoms: C_5  and  C_6
REMARK    4  A    between atoms: C_12  and  C_13
REMARK    5  A    between atoms: C_15  and  O_16
REMARK    6  A    between atoms: C_21  and  C_22
REMARK    7  A    between atoms: C_23  and  C_24
REMARK                            x       y       z     vdW  Elec       q    Type
REMARK                         _______ _______ _______ _____ _____    ______ ____
ROOT
ATOM      1  C   UNL     1       2.192   5.683  19.984  0.00  0.00    +0.000 C 
ATOM      2  O   UNL     1       2.394   5.467  21.186  0.00  0.00    +0.000 OA
ATOM      3  N   UNL     1       1.668   4.700  19.150  0.00  0.00    +0.000 N 
ATOM      4  C   UNL     1       1.308   3.411  19.733  0.00  0.00    +0.000 C 
ATOM      5  C   UNL     1       2.347   2.345  19.393  0.00  0.00    +0.000 C 
ATOM      6  C   UNL     1       2.571   2.263  17.878  0.00  0.00    +0.000 C 
ATOM      7  C   UNL     1       2.898   3.634  17.250  0.00  0.00    +0.000 C 
ATOM      8  C   UNL     1       1.852   4.687  17.696  0.00  0.00    +0.000 C 
ENDROOT
BRANCH   7   9
ATOM      9  C   UNL     1       4.342   4.023  17.536  0.00  0.00    +0.000 A 
ATOM     10  C   UNL     1       5.240   4.196  16.498  0.00  0.00    +0.000 A 
ATOM     11  C   UNL     1       6.548   4.437  16.863  0.00  0.00    +0.000 A 
ATOM     12  N   UNL     1       6.983   4.495  18.124  0.00  0.00    +0.000 NA
ATOM     13  C   UNL     1       6.048   4.309  19.054  0.00  0.00    +0.000 A 
ATOM     14  N   UNL     1       4.745   4.088  18.822  0.00  0.00    +0.000 NA
BRANCH  11  15
ATOM     15  O   UNL     1       7.522   4.614  15.925  0.00  0.00    +0.000 OA
ATOM     16  H   UNL     1       8.068   5.370  16.184  0.00  0.00    +0.000 HD
ENDBRANCH  11  15
ENDBRANCH   7   9
BRANCH   1  17
ATOM     17  C   UNL     1       2.505   7.053  19.419  0.00  0.00    +0.000 C 
BRANCH  17  21
ATOM     18  C   UNL     1      -0.454   9.106  22.638  0.00  0.00    +0.000 C 
ATOM     19  C   UNL     1       0.301   8.938  21.371  0.00  0.00    +0.000 A 
ATOM     20  N   UNL     1       1.202   7.962  21.233  0.00  0.00    +0.000 NA
ATOM     21  N   UNL     1       1.670   8.110  19.970  0.00  0.00    +0.000 N 
ATOM     22  C   UNL     1       1.126   9.198  19.326  0.00  0.00    +0.000 A 
ATOM     23  C   UNL     1       1.492   9.649  17.958  0.00  0.00    +0.000 C 
ATOM     24  C   UNL     1       0.188   9.726  20.197  0.00  0.00    +0.000 A 
ATOM     25  C   UNL     1      -0.736  10.866  19.974  0.00  0.00    +0.000 C 
ENDBRANCH  17  21
ENDBRANCH   1  17
TORSDOF 4
ENDMDL
MODEL 2
REMARK VINA RESULT:      -8.3      1.034      1.276
REMARK  Name = 
REMARK  7 active torsions:
REMARK  status: ('A' for Active; 'I' for Inactive)
REMARK    1  A    between atoms: C_1  and  C_2
REMARK    2  A    between atoms: N_4  and  C_5
REMARK    3  A    between atoms: C_5  and  C_6
REMARK    4  A    between atoms: C_12  and  C_13
REMARK    5  A    between atoms: C_15  and  O_16
REMARK    6  A    between atoms: C_21  and  C_22
REMARK    7  A    between atoms: C_23  and  C_24
REMARK                            x       y       z     vdW  Elec       q    Type
REMARK                         _______ _______ _______ _____ _____    ______ ____
ROOT
ATOM      1  C   UNL     1       2.254   5.573  19.925  0.00  0.00    +0.000 C 
ATOM      2  O   UNL     1       2.542   5.377  21.113  0.00  0.00    +0.000 OA
ATOM      3  N   UNL     1       1.647   4.584  19.156  0.00  0.00    +0.000 N 
ATOM      4  C   UNL     1       1.304   3.317  19.794  0.00  0.00    +0.000 C 
ATOM      5  C   UNL     1       2.292   2.220  19.400  0.00  0.00    +0.000 C 
ATOM      6  C   UNL     1       2.398   2.100  17.875  0.00  0.00    +0.000 C 
ATOM      7  C   UNL     1       2.706   3.450  17.193  0.00  0.00    +0.000 C 
ATOM      8  C   UNL     1       1.720   4.536  17.693  0.00  0.00    +0.000 C 
ENDROOT
BRANCH   7   9
ATOM      9  C   UNL     1       4.176   3.811  17.361  0.00  0.00    +0.000 A 
ATOM     10  C   UNL     1       4.675   4.153  18.605  0.00  0.00    +0.000 A 
ATOM     11  C   UNL     1       5.988   4.572  18.637  0.00  0.00    +0.000 A 
ATOM     12  N   UNL     1       6.774   4.677  17.563  0.00  0.00    +0.000 NA
ATOM     13  C   UNL     1       6.204   4.334  16.408  0.00  0.00    +0.000 A 
ATOM     14  N   UNL     1       4.946   3.894  16.257  0.00  0.00    +0.000 NA
BRANCH  11  15
ATOM     15  O   UNL     1       6.584   4.943  19.806  0.00  0.00    +0.000 OA
ATOM     16  H   UNL     1       6.072   4.579  20.543  0.00  0.00    +0.000 HD
ENDBRANCH  11  15
ENDBRANCH   7   9
BRANCH   1  17
ATOM     17  C   UNL     1       2.553   6.922  19.307  0.00  0.00    +0.000 C 
BRANCH  17  21
ATOM     18  C   UNL     1      -0.389   9.030  22.507  0.00  0.00    +0.000 C 
ATOM     19  C   UNL     1       0.390   8.860  21.255  0.00  0.00    +0.000 A 
ATOM     20  N   UNL     1       1.248   7.845  21.112  0.00  0.00    +0.000 NA
ATOM     21  N   UNL     1       1.755   8.004  19.866  0.00  0.00    +0.000 N 
ATOM     22  C   UNL     1       1.281   9.134  19.239  0.00  0.00    +0.000 A 
ATOM     23  C   UNL     1       1.704   9.602  17.894  0.00  0.00    +0.000 C 
ATOM     24  C   UNL     1       0.346   9.682  20.101  0.00  0.00    +0.000 A 
ATOM     25  C   UNL     1      -0.516  10.871  19.887  0.00  0.00    +0.000 C 
ENDBRANCH  17  21
ENDBRANCH   1  17
TORSDOF 4
ENDMDL
MODEL 3
REMARK VINA RESULT:      -7.7      1.027      1.114
REMARK  Name = 
REMARK  7 active torsions:
REMARK  status: ('A' for Active; 'I' for Inactive)
REMARK    1  A    between atoms: C_1  and  C_2
REMARK    2  A    between atoms: N_4  and  C_5
REMARK    3  A    between atoms: C_5  and  C_6
REMARK    4  A    between atoms: C_12  and  C_13
REMARK    5  A    between atoms: C_15  and  O_16
REMARK    6  A    between atoms: C_21  and  C_22
REMARK    7  A    between atoms: C_23  and  C_24
REMARK                            x       y       z     vdW  Elec       q    Type
REMARK                         _______ _______ _______ _____ _____    ______ ____
ROOT
ATOM      1  C   UNL     1       2.395   5.915  19.727  0.00  0.00    +0.000 C 
ATOM      2  O   UNL     1       2.830   5.900  20.886  0.00  0.00    +0.000 OA
ATOM      3  N   UNL     1       1.997   4.744  19.089  0.00  0.00    +0.000 N 
ATOM      4  C   UNL     1       2.054   3.490  19.834  0.00  0.00    +0.000 C 
ATOM      5  C   UNL     1       3.252   2.648  19.400  0.00  0.00    +0.000 C 
ATOM      6  C   UNL     1       3.247   2.430  17.882  0.00  0.00    +0.000 C 
ATOM      7  C   UNL     1       3.131   3.750  17.092  0.00  0.00    +0.000 C 
ATOM      8  C   UNL     1       1.947   4.592  17.632  0.00  0.00    +0.000 C 
ENDROOT
BRANCH   7   9
ATOM      9  C   UNL     1       4.466   4.483  17.076  0.00  0.00    +0.000 A 
ATOM     10  C   UNL     1       5.628   3.829  17.443  0.00  0.00    +0.000 A 
ATOM     11  C   UNL     1       6.766   4.604  17.505  0.00  0.00    +0.000 A 
ATOM     12  N   UNL     1       6.803   5.915  17.253  0.00  0.00    +0.000 NA
ATOM     13  C   UNL     1       5.634   6.459  16.915  0.00  0.00    +0.000 A 
ATOM     14  N   UNL     1       4.469   5.803  16.802  0.00  0.00    +0.000 NA
BRANCH  11  15
ATOM     15  O   UNL     1       7.968   4.069  17.864  0.00  0.00    +0.000 OA
ATOM     16  H   UNL     1       7.919   3.791  18.790  0.00  0.00    +0.000 HD
ENDBRANCH  11  15
ENDBRANCH   7   9
BRANCH   1  17
ATOM     17  C   UNL     1       2.276   7.239  19.002  0.00  0.00    +0.000 C 
BRANCH  17  21
ATOM     18  C   UNL     1      -0.415   8.952  22.630  0.00  0.00    +0.000 C 
ATOM     19  C   UNL     1       0.317   8.950  21.338  0.00  0.00    +0.000 A 
ATOM     20  N   UNL     1       1.091   7.919  20.988  0.00  0.00    +0.000 NA
ATOM     21  N   UNL     1       1.577   8.259  19.770  0.00  0.00    +0.000 N 
ATOM     22  C   UNL     1       1.174   9.511  19.367  0.00  0.00    +0.000 A 
ATOM     23  C   UNL     1       1.597  10.179  18.109  0.00  0.00    +0.000 C 
ATOM     24  C   UNL     1       0.306   9.964  20.347  0.00  0.00    +0.000 A 
ATOM     25  C   UNL     1      -0.470  11.230  20.375  0.00  0.00    +0.000 C 
ENDBRANCH  17  21
ENDBRANCH   1  17
TORSDOF 4
ENDMDL
MODEL 4
REMARK VINA RESULT:      -7.6      1.209      1.257
REMARK  Name = 
REMARK  7 active torsions:
REMARK  status: ('A' for Active; 'I' for Inactive)
REMARK    1  A    between atoms: C_1  and  C_2
REMARK    2  A    between atoms: N_4  and  C_5
REMARK    3  A    between atoms: C_5  and  C_6
REMARK    4  A    between atoms: C_12  and  C_13
REMARK    5  A    between atoms: C_15  and  O_16
REMARK    6  A    between atoms: C_21  and  C_22
REMARK    7  A    between atoms: C_23  and  C_24
REMARK                            x       y       z     vdW  Elec       q    Type
REMARK                         _______ _______ _______ _____ _____    ______ ____
ROOT
ATOM      1  C   UNL     1       2.338   6.046  19.824  0.00  0.00    +0.000 C 
ATOM      2  O   UNL     1       2.368   5.979  21.060  0.00  0.00    +0.000 OA
ATOM      3  N   UNL     1       2.273   4.898  19.039  0.00  0.00    +0.000 N 
ATOM      4  C   UNL     1       2.190   3.602  19.705  0.00  0.00    +0.000 C 
ATOM      5  C   UNL     1       3.531   2.873  19.658  0.00  0.00    +0.000 C 
ATOM      6  C   UNL     1       4.043   2.761  18.218  0.00  0.00    +0.000 C 
ATOM      7  C   UNL     1       4.081   4.123  17.492  0.00  0.00    +0.000 C 
ATOM      8  C   UNL     1       2.718   4.844  17.644  0.00  0.00    +0.000 C 
ENDROOT
BRANCH   7   9
ATOM      9  C   UNL     1       5.280   4.942  17.954  0.00  0.00    +0.000 A 
ATOM     10  C   UNL     1       5.769   5.970  17.169  0.00  0.00    +0.000 A 
ATOM     11  C   UNL     1       6.922   6.578  17.618  0.00  0.00    +0.000 A 
ATOM     12  N   UNL     1       7.580   6.228  18.727  0.00  0.00    +0.000 NA
ATOM     13  C   UNL     1       7.037   5.223  19.413  0.00  0.00    +0.000 A 
ATOM     14  N   UNL     1       5.911   4.570  19.086  0.00  0.00    +0.000 NA
BRANCH  11  15
ATOM     15  O   UNL     1       7.501   7.598  16.922  0.00  0.00    +0.000 OA
ATOM     16  H   UNL     1       8.460   7.462  16.913  0.00  0.00    +0.000 HD
ENDBRANCH  11  15
ENDBRANCH   7   9
BRANCH   1  17
ATOM     17  C   UNL     1       2.352   7.406  19.159  0.00  0.00    +0.000 C 
BRANCH  17  21
ATOM     18  C   UNL     1      -0.454   9.100  22.708  0.00  0.00    +0.000 C 
ATOM     19  C   UNL     1       0.255   9.076  21.404  0.00  0.00    +0.000 A 
ATOM     20  N   UNL     1       1.129   8.108  21.115  0.00  0.00    +0.000 NA
ATOM     21  N   UNL     1       1.558   8.402  19.865  0.00  0.00    +0.000 N 
ATOM     22  C   UNL     1       1.018   9.571  19.378  0.00  0.00    +0.000 A 
ATOM     23  C   UNL     1       1.349  10.180  18.064  0.00  0.00    +0.000 C 
ATOM     24  C   UNL     1       0.121  10.004  20.341  0.00  0.00    +0.000 A 
ATOM     25  C   UNL     1      -0.785  11.179  20.292  0.00  0.00    +0.000 C 
ENDBRANCH  17  21
ENDBRANCH   1  17
TORSDOF 4
ENDMDL
MODEL 5
REMARK VINA RESULT:      -7.4      2.236      5.814
REMARK  Name = 
REMARK  7 active torsions:
REMARK  status: ('A' for Active; 'I' for Inactive)
REMARK    1  A    between atoms: C_1  and  C_2
REMARK    2  A    between atoms: N_4  and  C_5
REMARK    3  A    between atoms: C_5  and  C_6
REMARK    4  A    between atoms: C_12  and  C_13
REMARK    5  A    between atoms: C_15  and  O_16
REMARK    6  A    between atoms: C_21  and  C_22
REMARK    7  A    between atoms: C_23  and  C_24
REMARK                            x       y       z     vdW  Elec       q    Type
REMARK                         _______ _______ _______ _____ _____    ______ ____
ROOT
ATOM      1  C   UNL     1       4.162   2.966  18.537  0.00  0.00    +0.000 C 
ATOM      2  O   UNL     1       4.042   2.808  17.315  0.00  0.00    +0.000 OA
ATOM      3  N   UNL     1       3.192   2.508  19.424  0.00  0.00    +0.000 N 
ATOM      4  C   UNL     1       2.042   1.787  18.888  0.00  0.00    +0.000 C 
ATOM      5  C   UNL     1       0.798   2.673  18.871  0.00  0.00    +0.000 C 
ATOM      6  C   UNL     1       0.526   3.262  20.261  0.00  0.00    +0.000 C 
ATOM      7  C   UNL     1       1.758   3.978  20.854  0.00  0.00    +0.000 C 
ATOM      8  C   UNL     1       3.001   3.057  20.770  0.00  0.00    +0.000 C 
ENDROOT
BRANCH   7   9
ATOM      9  C   UNL     1       1.944   5.345  20.207  0.00  0.00    +0.000 A 
ATOM     10  C   UNL     1       1.694   6.500  20.927  0.00  0.00    +0.000 A 
ATOM     11  C   UNL     1       1.783   7.682  20.223  0.00  0.00    +0.000 A 
ATOM     12  N   UNL     1       2.073   7.769  18.923  0.00  0.00    +0.000 NA
ATOM     13  C   UNL     1       2.290   6.604  18.313  0.00  0.00    +0.000 A 
ATOM     14  N   UNL     1       2.252   5.396  18.896  0.00  0.00    +0.000 NA
BRANCH  11  15
ATOM     15  O   UNL     1       1.548   8.883  20.826  0.00  0.00    +0.000 OA
ATOM     16  H   UNL     1       2.398   9.289  21.049  0.00  0.00    +0.000 HD
ENDBRANCH  11  15
ENDBRANCH   7   9
BRANCH   1  17
ATOM     17  C   UNL     1       5.401   3.653  19.073  0.00  0.00    +0.000 C 
BRANCH  17  21
ATOM     18  C   UNL     1       5.191   6.886  15.490  0.00  0.00    +0.000 C 
ATOM     19  C   UNL     1       5.656   6.253  16.750  0.00  0.00    +0.000 A 
ATOM     20  N   UNL     1       5.008   5.209  17.274  0.00  0.00    +0.000 NA
ATOM     21  N   UNL     1       5.711   4.900  18.390  0.00  0.00    +0.000 N 
ATOM     22  C   UNL     1       6.757   5.765  18.616  0.00  0.00    +0.000 A 
ATOM     23  C   UNL     1       7.664   5.717  19.792  0.00  0.00    +0.000 C 
ATOM     24  C   UNL     1       6.779   6.626  17.531  0.00  0.00    +0.000 A 
ATOM     25  C   UNL     1       7.750   7.710  17.236  0.00  0.00    +0.000 C 
ENDBRANCH  17  21
ENDBRANCH   1  17
TORSDOF 4
ENDMDL
MODEL 6
REMARK VINA RESULT:      -7.2      0.841      1.645
REMARK  Name = 
REMARK  7 active torsions:
REMARK  status: ('A' for Active; 'I' for Inactive)
REMARK    1  A    between atoms: C_1  and  C_2
REMARK    2  A    between atoms: N_4  and  C_5
REMARK    3  A    between atoms: C_5  and  C_6
REMARK    4  A    between atoms: C_12  and  C_13
REMARK    5  A    between atoms: C_15  and  O_16
REMARK    6  A    between atoms: C_21  and  C_22
REMARK    7  A    between atoms: C_23  and  C_24
REMARK                            x       y       z     vdW  Elec       q    Type
REMARK                         _______ _______ _______ _____ _____    ______ ____
ROOT
ATOM      1  C   UNL     1       2.170   5.969  19.994  0.00  0.00    +0.000 C 
ATOM      2  O   UNL     1       2.280   5.717  21.201  0.00  0.00    +0.000 OA
ATOM      3  N   UNL     1       1.695   5.017  19.097  0.00  0.00    +0.000 N 
ATOM      4  C   UNL     1       1.276   3.718  19.615  0.00  0.00    +0.000 C 
ATOM      5  C   UNL     1       2.323   2.646  19.321  0.00  0.00    +0.000 C 
ATOM      6  C   UNL     1       2.656   2.601  17.825  0.00  0.00    +0.000 C 
ATOM      7  C   UNL     1       3.046   3.984  17.261  0.00  0.00    +0.000 C 
ATOM      8  C   UNL     1       1.985   5.040  17.660  0.00  0.00    +0.000 C 
ENDROOT
BRANCH   7   9
ATOM      9  C   UNL     1       4.471   4.343  17.664  0.00  0.00    +0.000 A 
ATOM     10  C   UNL     1       5.494   4.301  16.733  0.00  0.00    +0.000 A 
ATOM     11  C   UNL     1       6.763   4.532  17.217  0.00  0.00    +0.000 A 
ATOM     12  N   UNL     1       7.052   4.772  18.499  0.00  0.00    +0.000 NA
ATOM     13  C   UNL     1       6.004   4.785  19.322  0.00  0.00    +0.000 A 
ATOM     14  N   UNL     1       4.725   4.594  18.964  0.00  0.00    +0.000 NA
BRANCH  11  15
ATOM     15  O   UNL     1       7.850   4.507  16.394  0.00  0.00    +0.000 OA
ATOM     16  H   UNL     1       8.584   4.956  16.836  0.00  0.00    +0.000 HD
ENDBRANCH  11  15
ENDBRANCH   7   9
BRANCH   1  17
ATOM     17  C   UNL     1       2.542   7.348  19.493  0.00  0.00    +0.000 C 
BRANCH  17  21
ATOM     18  C   UNL     1      -0.754  10.412  17.737  0.00  0.00    +0.000 C 
ATOM     19  C   UNL     1       0.072   9.708  18.750  0.00  0.00    +0.000 A 
ATOM     20  N   UNL     1       0.849   8.677  18.407  0.00  0.00    +0.000 NA
ATOM     21  N   UNL     1       1.447   8.305  19.564  0.00  0.00    +0.000 N 
ATOM     22  C   UNL     1       1.018   9.040  20.645  0.00  0.00    +0.000 A 
ATOM     23  C   UNL     1       1.448   8.819  22.050  0.00  0.00    +0.000 C 
ATOM     24  C   UNL     1       0.161  10.001  20.135  0.00  0.00    +0.000 A 
ATOM     25  C   UNL     1      -0.528  11.098  20.860  0.00  0.00    +0.000 C 
ENDBRANCH  17  21
ENDBRANCH   1  17
TORSDOF 4
ENDMDL
MODEL 7
REMARK VINA RESULT:      -7.2      2.238      3.944
REMARK  Name = 
REMARK  7 active torsions:
REMARK  status: ('A' for Active; 'I' for Inactive)
REMARK    1  A    between atoms: C_1  and  C_2
REMARK    2  A    between atoms: N_4  and  C_5
REMARK    3  A    between atoms: C_5  and  C_6
REMARK    4  A    between atoms: C_12  and  C_13
REMARK    5  A    between atoms: C_15  and  O_16
REMARK    6  A    between atoms: C_21  and  C_22
REMARK    7  A    between atoms: C_23  and  C_24
REMARK                            x       y       z     vdW  Elec       q    Type
REMARK                         _______ _______ _______ _____ _____    ______ ____
ROOT
ATOM      1  C   UNL     1       2.620   7.147  18.476  0.00  0.00    +0.000 C 
ATOM      2  O   UNL     1       1.882   7.351  17.502  0.00  0.00    +0.000 OA
ATOM      3  N   UNL     1       3.860   6.534  18.327  0.00  0.00    +0.000 N 
ATOM      4  C   UNL     1       4.304   6.176  16.983  0.00  0.00    +0.000 C 
ATOM      5  C   UNL     1       4.167   4.674  16.742  0.00  0.00    +0.000 C 
ATOM      6  C   UNL     1       4.891   3.875  17.832  0.00  0.00    +0.000 C 
ATOM      7  C   UNL     1       4.464   4.290  19.256  0.00  0.00    +0.000 C 
ATOM      8  C   UNL     1       4.551   5.829  19.411  0.00  0.00    +0.000 C 
ENDROOT
BRANCH   7   9
ATOM      9  C   UNL     1       3.100   3.701  19.598  0.00  0.00    +0.000 A 
ATOM     10  C   UNL     1       2.440   2.893  18.690  0.00  0.00    +0.000 A 
ATOM     11  C   UNL     1       1.166   2.500  19.044  0.00  0.00    +0.000 A 
ATOM     12  N   UNL     1       0.550   2.860  20.173  0.00  0.00    +0.000 NA
ATOM     13  C   UNL     1       1.263   3.645  20.981  0.00  0.00    +0.000 A 
ATOM     14  N   UNL     1       2.514   4.073  20.753  0.00  0.00    +0.000 NA
BRANCH  11  15
ATOM     15  O   UNL     1       0.416   1.710  18.224  0.00  0.00    +0.000 OA
ATOM     16  H   UNL     1      -0.021   2.272  17.567  0.00  0.00    +0.000 HD
ENDBRANCH  11  15
ENDBRANCH   7   9
BRANCH   1  17
ATOM     17  C   UNL     1       2.167   7.595  19.849  0.00  0.00    +0.000 C 
BRANCH  17  21
ATOM     18  C   UNL     1       1.194  12.170  18.642  0.00  0.00    +0.000 C 
ATOM     19  C   UNL     1       1.051  10.869  19.344  0.00  0.00    +0.000 A 
ATOM     20  N   UNL     1       1.775   9.808  18.977  0.00  0.00    +0.000 NA
ATOM     21  N   UNL     1       1.392   8.828  19.830  0.00  0.00    +0.000 N 
ATOM     22  C   UNL     1       0.397   9.230  20.691  0.00  0.00    +0.000 A 
ATOM     23  C   UNL     1      -0.266   8.356  21.693  0.00  0.00    +0.000 C 
ATOM     24  C   UNL     1       0.192  10.575  20.433  0.00  0.00    +0.000 A 
ATOM     25  C   UNL     1      -0.722  11.516  21.126  0.00  0.00    +0.000 C 
ENDBRANCH  17  21
ENDBRANCH   1  17
TORSDOF 4
ENDMDL
MODEL 8
REMARK VINA RESULT:      -7.2      2.104      4.043
REMARK  Name = 
REMARK  7 active torsions:
REMARK  status: ('A' for Active; 'I' for Inactive)
REMARK    1  A    between atoms: C_1  and  C_2
REMARK    2  A    between atoms: N_4  and  C_5
REMARK    3  A    between atoms: C_5  and  C_6
REMARK    4  A    between atoms: C_12  and  C_13
REMARK    5  A    between atoms: C_15  and  O_16
REMARK    6  A    between atoms: C_21  and  C_22
REMARK    7  A    between atoms: C_23  and  C_24
REMARK                            x       y       z     vdW  Elec       q    Type
REMARK                         _______ _______ _______ _____ _____    ______ ____
ROOT
ATOM      1  C   UNL     1       2.801   7.258  18.273  0.00  0.00    +0.000 C 
ATOM      2  O   UNL     1       2.169   7.544  17.247  0.00  0.00    +0.000 OA
ATOM      3  N   UNL     1       4.107   6.783  18.209  0.00  0.00    +0.000 N 
ATOM      4  C   UNL     1       4.745   6.672  16.901  0.00  0.00    +0.000 C 
ATOM      5  C   UNL     1       4.795   5.218  16.436  0.00  0.00    +0.000 C 
ATOM      6  C   UNL     1       5.462   4.328  17.491  0.00  0.00    +0.000 C 
ATOM      7  C   UNL     1       4.825   4.484  18.888  0.00  0.00    +0.000 C 
ATOM      8  C   UNL     1       4.732   5.983  19.267  0.00  0.00    +0.000 C 
ENDROOT
BRANCH   7   9
ATOM      9  C   UNL     1       3.499   3.735  18.958  0.00  0.00    +0.000 A 
ATOM     10  C   UNL     1       2.723   3.791  20.101  0.00  0.00    +0.000 A 
ATOM     11  C   UNL     1       1.599   2.993  20.110  0.00  0.00    +0.000 A 
ATOM     12  N   UNL     1       1.239   2.182  19.111  0.00  0.00    +0.000 NA
ATOM     13  C   UNL     1       2.053   2.190  18.056  0.00  0.00    +0.000 A 
ATOM     14  N   UNL     1       3.160   2.937  17.925  0.00  0.00    +0.000 NA
BRANCH  11  15
ATOM     15  O   UNL     1       0.764   2.960  21.187  0.00  0.00    +0.000 OA
ATOM     16  H   UNL     1       1.006   3.677  21.790  0.00  0.00    +0.000 HD
ENDBRANCH  11  15
ENDBRANCH   7   9
BRANCH   1  17
ATOM     17  C   UNL     1       2.141   7.452  19.621  0.00  0.00    +0.000 C 
BRANCH  17  21
ATOM     18  C   UNL     1       1.279  12.127  18.763  0.00  0.00    +0.000 C 
ATOM     19  C   UNL     1       1.137  10.793  19.400  0.00  0.00    +0.000 A 
ATOM     20  N   UNL     1       1.777   9.727  18.913  0.00  0.00    +0.000 NA
ATOM     21  N   UNL     1       1.425   8.714  19.739  0.00  0.00    +0.000 N 
ATOM     22  C   UNL     1       0.525   9.104  20.705  0.00  0.00    +0.000 A 
ATOM     23  C   UNL     1      -0.089   8.200  21.712  0.00  0.00    +0.000 C 
ATOM     24  C   UNL     1       0.361  10.469  20.542  0.00  0.00    +0.000 A 
ATOM     25  C   UNL     1      -0.447  11.403  21.365  0.00  0.00    +0.000 C 
ENDBRANCH  17  21
ENDBRANCH   1  17
TORSDOF 4
ENDMDL
MODEL 9
REMARK VINA RESULT:      -7.0      3.031      6.849
REMARK  Name = 
REMARK  7 active torsions:
REMARK  status: ('A' for Active; 'I' for Inactive)
REMARK    1  A    between atoms: C_1  and  C_2
REMARK    2  A    between atoms: N_4  and  C_5
REMARK    3  A    between atoms: C_5  and  C_6
REMARK    4  A    between atoms: C_12  and  C_13
REMARK    5  A    between atoms: C_15  and  O_16
REMARK    6  A    between atoms: C_21  and  C_22
REMARK    7  A    between atoms: C_23  and  C_24
REMARK                            x       y       z     vdW  Elec       q    Type
REMARK                         _______ _______ _______ _____ _____    ______ ____
ROOT
ATOM      1  C   UNL     1       5.902   5.823  17.742  0.00  0.00    +0.000 C 
ATOM      2  O   UNL     1       6.456   6.645  18.483  0.00  0.00    +0.000 OA
ATOM      3  N   UNL     1       4.626   6.051  17.234  0.00  0.00    +0.000 N 
ATOM      4  C   UNL     1       3.964   7.313  17.553  0.00  0.00    +0.000 C 
ATOM      5  C   UNL     1       2.889   7.115  18.618  0.00  0.00    +0.000 C 
ATOM      6  C   UNL     1       1.898   6.021  18.200  0.00  0.00    +0.000 C 
ATOM      7  C   UNL     1       2.598   4.702  17.810  0.00  0.00    +0.000 C 
ATOM      8  C   UNL     1       3.728   4.982  16.787  0.00  0.00    +0.000 C 
ENDROOT
BRANCH   7   9
ATOM      9  C   UNL     1       3.050   3.948  19.054  0.00  0.00    +0.000 A 
ATOM     10  C   UNL     1       4.071   3.018  18.977  0.00  0.00    +0.000 A 
ATOM     11  C   UNL     1       4.332   2.308  20.130  0.00  0.00    +0.000 A 
ATOM     12  N   UNL     1       3.663   2.455  21.276  0.00  0.00    +0.000 NA
ATOM     13  C   UNL     1       2.693   3.368  21.252  0.00  0.00    +0.000 A 
ATOM     14  N   UNL     1       2.362   4.131  20.199  0.00  0.00    +0.000 NA
BRANCH  11  15
ATOM     15  O   UNL     1       5.310   1.359  20.169  0.00  0.00    +0.000 OA
ATOM     16  H   UNL     1       4.906   0.507  20.386  0.00  0.00    +0.000 HD
ENDBRANCH  11  15
ENDBRANCH   7   9
BRANCH   1  17
ATOM     17  C   UNL     1       6.640   4.555  17.367  0.00  0.00    +0.000 C 
BRANCH  17  21
ATOM     18  C   UNL     1       8.103   5.754  12.923  0.00  0.00    +0.000 C 
ATOM     19  C   UNL     1       7.390   4.995  13.981  0.00  0.00    +0.000 A 
ATOM     20  N   UNL     1       7.622   5.238  15.274  0.00  0.00    +0.000 NA
ATOM     21  N   UNL     1       6.802   4.383  15.931  0.00  0.00    +0.000 N 
ATOM     22  C   UNL     1       6.100   3.561  15.080  0.00  0.00    +0.000 A 
ATOM     23  C   UNL     1       5.173   2.482  15.510  0.00  0.00    +0.000 C 
ATOM     24  C   UNL     1       6.423   3.976  13.798  0.00  0.00    +0.000 A 
ATOM     25  C   UNL     1       5.890   3.473  12.507  0.00  0.00    +0.000 C 
ENDBRANCH  17  21
ENDBRANCH   1  17
TORSDOF 4
ENDMDL
