MODEL 1
REMARK VINA RESULT:      -8.0      0.000      0.000
REMARK  Name = 
REMARK  4 active torsions:
REMARK  status: ('A' for Active; 'I' for Inactive)
REMARK    1  A    between atoms: C_1  and  N_2
REMARK    2  A    between atoms: C_4  and  C_5
REMARK    3  A    between atoms: C_5  and  N_6
REMARK    4  A    between atoms: C_5  and  C_16
REMARK                            x       y       z     vdW  Elec       q    Type
REMARK                         _______ _______ _______ _____ _____    ______ ____
ROOT
ATOM      1  C   UNL     1       3.295   6.510  18.754  0.00  0.00    +0.000 C 
ENDROOT
BRANCH   1   2
ATOM      2  N   UNL     1       2.704   7.425  17.775  0.00  0.00    +0.000 N 
ATOM      3  C   UNL     1       1.830   8.379  18.187  0.00  0.00    +0.000 A 
ATOM      4  N   UNL     1       0.869   8.804  17.399  0.00  0.00    +0.000 NA
ATOM      5  C   UNL     1       0.020   9.663  18.080  0.00  0.00    +0.000 A 
ATOM      6  C   UNL     1      -1.147  10.263  17.565  0.00  0.00    +0.000 A 
ATOM      7  C   UNL     1      -1.955  11.045  18.398  0.00  0.00    +0.000 A 
ATOM      8  C   UNL     1      -1.605  11.250  19.729  0.00  0.00    +0.000 A 
ATOM      9  C   UNL     1      -0.430  10.703  20.252  0.00  0.00    +0.000 A 
ATOM     10  C   UNL     1       0.369   9.915  19.405  0.00  0.00    +0.000 A 
ATOM     11  S   UNL     1       1.851   9.122  19.746  0.00  0.00    +0.000 S 
ATOM     12  H   UNL     1       2.383   6.956  16.934  0.00  0.00    +0.000 HD
ENDBRANCH   1   2
BRANCH   1  16
ATOM     13  C   UNL     1       8.080   5.030  19.403  0.00  0.00    +0.000 C 
ATOM     14  N   UNL     1       6.817   5.346  18.772  0.00  0.00    +0.000 N 
ATOM     15  C   UNL     1       5.709   5.810  19.424  0.00  0.00    +0.000 A 
ATOM     16  C   UNL     1       4.722   6.075  18.489  0.00  0.00    +0.000 A 
ATOM     17  C   UNL     1       5.280   5.741  17.208  0.00  0.00    +0.000 A 
ATOM     18  C   UNL     1       4.792   5.796  15.887  0.00  0.00    +0.000 A 
ATOM     19  C   UNL     1       5.559   5.268  14.842  0.00  0.00    +0.000 A 
ATOM     20  C   UNL     1       6.800   4.691  15.096  0.00  0.00    +0.000 A 
ATOM     21  C   UNL     1       7.328   4.668  16.389  0.00  0.00    +0.000 A 
ATOM     22  C   UNL     1       6.555   5.209  17.425  0.00  0.00    +0.000 A 
ENDBRANCH   1  16
BRANCH   1  23
ATOM     23  C   UNL     1       2.479   5.232  18.847  0.00  0.00    +0.000 A 
ATOM     24  C   UNL     1       2.327   4.337  17.774  0.00  0.00    +0.000 A 
ATOM     25  C   UNL     1       1.560   3.176  17.915  0.00  0.00    +0.000 A 
ATOM     26  C   UNL     1       0.915   2.901  19.120  0.00  0.00    +0.000 A 
ATOM     27  C   UNL     1       1.035   3.788  20.185  0.00  0.00    +0.000 A 
ATOM     28  C   UNL     1       1.810   4.937  20.044  0.00  0.00    +0.000 A 
ATOM     29  F   UNL     1       1.898   5.774  21.088  0.00  0.00    +0.000 F 
ENDBRANCH   1  23
TORSDOF 3
ENDMDL
MODEL 2
REMARK VINA RESULT:      -7.9      4.818      8.445
REMARK  Name = 
REMARK  4 active torsions:
REMARK  status: ('A' for Active; 'I' for Inactive)
REMARK    1  A    between atoms: C_1  and  N_2
REMARK    2  A    between atoms: C_4  and  C_5
REMARK    3  A    between atoms: C_5  and  N_6
REMARK    4  A    between atoms: C_5  and  C_16
REMARK                            x       y       z     vdW  Elec       q    Type
REMARK                         _______ _______ _______ _____ _____    ______ ____
ROOT
ATOM      1  C   UNL     1       0.331  11.746  19.418  0.00  0.00    +0.000 C 
ENDROOT
BRANCH   1   2
ATOM      2  N   UNL     1       0.912  12.765  20.294  0.00  0.00    +0.000 N 
ATOM      3  C   UNL     1       2.001  13.465  19.884  0.00  0.00    +0.000 A 
ATOM      4  N   UNL     1       2.882  13.916  20.746  0.00  0.00    +0.000 NA
ATOM      5  C   UNL     1       3.973  14.467  20.091  0.00  0.00    +0.000 A 
ATOM      6  C   UNL     1       5.130  14.995  20.698  0.00  0.00    +0.000 A 
ATOM      7  C   UNL     1       6.191  15.443  19.904  0.00  0.00    +0.000 A 
ATOM      8  C   UNL     1       6.105  15.388  18.516  0.00  0.00    +0.000 A 
ATOM      9  C   UNL     1       4.950  14.912  17.889  0.00  0.00    +0.000 A 
ATOM     10  C   UNL     1       3.895  14.459  18.700  0.00  0.00    +0.000 A 
ATOM     11  S   UNL     1       2.369  13.830  18.235  0.00  0.00    +0.000 S 
ATOM     12  H   UNL     1       1.001  12.458  21.258  0.00  0.00    +0.000 HD
ENDBRANCH   1   2
BRANCH   1  16
ATOM     13  C   UNL     1      -4.563  12.735  20.181  0.00  0.00    +0.000 C 
ATOM     14  N   UNL     1      -3.342  12.238  19.584  0.00  0.00    +0.000 N 
ATOM     15  C   UNL     1      -2.088  12.427  20.092  0.00  0.00    +0.000 A 
ATOM     16  C   UNL     1      -1.180  11.745  19.300  0.00  0.00    +0.000 A 
ATOM     17  C   UNL     1      -1.946  11.120  18.258  0.00  0.00    +0.000 A 
ATOM     18  C   UNL     1      -1.614  10.293  17.165  0.00  0.00    +0.000 A 
ATOM     19  C   UNL     1      -2.600   9.941  16.236  0.00  0.00    +0.000 A 
ATOM     20  C   UNL     1      -3.906  10.399  16.384  0.00  0.00    +0.000 A 
ATOM     21  C   UNL     1      -4.272  11.179  17.483  0.00  0.00    +0.000 A 
ATOM     22  C   UNL     1      -3.278  11.515  18.412  0.00  0.00    +0.000 A 
ENDBRANCH   1  16
BRANCH   1  23
ATOM     23  C   UNL     1       0.714  10.355  19.893  0.00  0.00    +0.000 A 
ATOM     24  C   UNL     1       0.454   9.888  21.193  0.00  0.00    +0.000 A 
ATOM     25  C   UNL     1       0.833   8.598  21.578  0.00  0.00    +0.000 A 
ATOM     26  C   UNL     1       1.496   7.762  20.680  0.00  0.00    +0.000 A 
ATOM     27  C   UNL     1       1.782   8.217  19.396  0.00  0.00    +0.000 A 
ATOM     28  C   UNL     1       1.392   9.497  19.014  0.00  0.00    +0.000 A 
ATOM     29  F   UNL     1       1.691   9.906  17.773  0.00  0.00    +0.000 F 
ENDBRANCH   1  23
TORSDOF 3
ENDMDL
MODEL 3
REMARK VINA RESULT:      -7.8      6.296      8.905
REMARK  Name = 
REMARK  4 active torsions:
REMARK  status: ('A' for Active; 'I' for Inactive)
REMARK    1  A    between atoms: C_1  and  N_2
REMARK    2  A    between atoms: C_4  and  C_5
REMARK    3  A    between atoms: C_5  and  N_6
REMARK    4  A    between atoms: C_5  and  C_16
REMARK                            x       y       z     vdW  Elec       q    Type
REMARK                         _______ _______ _______ _____ _____    ______ ____
ROOT
ATOM      1  C   UNL     1      -0.701  12.055  19.815  0.00  0.00    +0.000 C 
ENDROOT
BRANCH   1   2
ATOM      2  N   UNL     1      -0.277  13.368  20.303  0.00  0.00    +0.000 N 
ATOM      3  C   UNL     1       0.914  13.883  19.904  0.00  0.00    +0.000 A 
ATOM      4  N   UNL     1       1.601  14.687  20.682  0.00  0.00    +0.000 NA
ATOM      5  C   UNL     1       2.841  14.966  20.128  0.00  0.00    +0.000 A 
ATOM      6  C   UNL     1       3.858  15.747  20.713  0.00  0.00    +0.000 A 
ATOM      7  C   UNL     1       5.096  15.873  20.072  0.00  0.00    +0.000 A 
ATOM      8  C   UNL     1       5.324  15.247  18.850  0.00  0.00    +0.000 A 
ATOM      9  C   UNL     1       4.317  14.505  18.228  0.00  0.00    +0.000 A 
ATOM     10  C   UNL     1       3.081  14.381  18.886  0.00  0.00    +0.000 A 
ATOM     11  S   UNL     1       1.667  13.551  18.384  0.00  0.00    +0.000 S 
ATOM     12  H   UNL     1      -0.427  13.491  21.300  0.00  0.00    +0.000 HD
ENDBRANCH   1   2
BRANCH   1  16
ATOM     13  C   UNL     1      -5.700  12.636  19.391  0.00  0.00    +0.000 C 
ATOM     14  N   UNL     1      -4.334  12.264  19.094  0.00  0.00    +0.000 N 
ATOM     15  C   UNL     1      -3.260  12.517  19.901  0.00  0.00    +0.000 A 
ATOM     16  C   UNL     1      -2.133  11.948  19.331  0.00  0.00    +0.000 A 
ATOM     17  C   UNL     1      -2.568  11.327  18.111  0.00  0.00    +0.000 A 
ATOM     18  C   UNL     1      -1.913  10.588  17.104  0.00  0.00    +0.000 A 
ATOM     19  C   UNL     1      -2.613  10.217  15.951  0.00  0.00    +0.000 A 
ATOM     20  C   UNL     1      -3.950  10.568  15.790  0.00  0.00    +0.000 A 
ATOM     21  C   UNL     1      -4.636  11.257  16.793  0.00  0.00    +0.000 A 
ATOM     22  C   UNL     1      -3.927  11.614  17.949  0.00  0.00    +0.000 A 
ENDBRANCH   1  16
BRANCH   1  23
ATOM     23  C   UNL     1      -0.550  11.009  20.906  0.00  0.00    +0.000 A 
ATOM     24  C   UNL     1      -0.868  11.251  22.253  0.00  0.00    +0.000 A 
ATOM     25  C   UNL     1      -0.705  10.251  23.218  0.00  0.00    +0.000 A 
ATOM     26  C   UNL     1      -0.203   9.002  22.857  0.00  0.00    +0.000 A 
ATOM     27  C   UNL     1       0.139   8.751  21.532  0.00  0.00    +0.000 A 
ATOM     28  C   UNL     1      -0.036   9.746  20.573  0.00  0.00    +0.000 A 
ATOM     29  F   UNL     1       0.311   9.474  19.307  0.00  0.00    +0.000 F 
ENDBRANCH   1  23
TORSDOF 3
ENDMDL
MODEL 4
REMARK VINA RESULT:      -7.6      2.741      8.629
REMARK  Name = 
REMARK  4 active torsions:
REMARK  status: ('A' for Active; 'I' for Inactive)
REMARK    1  A    between atoms: C_1  and  N_2
REMARK    2  A    between atoms: C_4  and  C_5
REMARK    3  A    between atoms: C_5  and  N_6
REMARK    4  A    between atoms: C_5  and  C_16
REMARK                            x       y       z     vdW  Elec       q    Type
REMARK                         _______ _______ _______ _____ _____    ______ ____
ROOT
ATOM      1  C   UNL     1       0.721  10.876  19.086  0.00  0.00    +0.000 C 
ENDROOT
BRANCH   1   2
ATOM      2  N   UNL     1       1.169  10.100  17.929  0.00  0.00    +0.000 N 
ATOM      3  C   UNL     1       1.839   8.934  18.117  0.00  0.00    +0.000 A 
ATOM      4  N   UNL     1       2.733   8.518  17.250  0.00  0.00    +0.000 NA
ATOM      5  C   UNL     1       3.387   7.390  17.722  0.00  0.00    +0.000 A 
ATOM      6  C   UNL     1       4.442   6.709  17.081  0.00  0.00    +0.000 A 
ATOM      7  C   UNL     1       5.064   5.630  17.719  0.00  0.00    +0.000 A 
ATOM      8  C   UNL     1       4.636   5.212  18.975  0.00  0.00    +0.000 A 
ATOM      9  C   UNL     1       3.563   5.841  19.612  0.00  0.00    +0.000 A 
ATOM     10  C   UNL     1       2.952   6.928  18.962  0.00  0.00    +0.000 A 
ATOM     11  S   UNL     1       1.629   7.890  19.477  0.00  0.00    +0.000 S 
ATOM     12  H   UNL     1       1.599  10.671  17.208  0.00  0.00    +0.000 HD
ENDBRANCH   1   2
BRANCH   1  16
ATOM     13  C   UNL     1      -3.686  12.997  20.344  0.00  0.00    +0.000 C 
ATOM     14  N   UNL     1      -2.687  12.240  19.623  0.00  0.00    +0.000 N 
ATOM     15  C   UNL     1      -1.382  12.099  20.006  0.00  0.00    +0.000 A 
ATOM     16  C   UNL     1      -0.748  11.246  19.119  0.00  0.00    +0.000 A 
ATOM     17  C   UNL     1      -1.738  10.864  18.150  0.00  0.00    +0.000 A 
ATOM     18  C   UNL     1      -1.722  10.022  17.020  0.00  0.00    +0.000 A 
ATOM     19  C   UNL     1      -2.847   9.955  16.190  0.00  0.00    +0.000 A 
ATOM     20  C   UNL     1      -3.981  10.711  16.472  0.00  0.00    +0.000 A 
ATOM     21  C   UNL     1      -4.040  11.516  17.612  0.00  0.00    +0.000 A 
ATOM     22  C   UNL     1      -2.911  11.566  18.441  0.00  0.00    +0.000 A 
ENDBRANCH   1  16
BRANCH   1  23
ATOM     23  C   UNL     1       1.484  12.186  19.176  0.00  0.00    +0.000 A 
ATOM     24  C   UNL     1       1.897  12.914  18.046  0.00  0.00    +0.000 A 
ATOM     25  C   UNL     1       2.601  14.114  18.187  0.00  0.00    +0.000 A 
ATOM     26  C   UNL     1       2.924  14.595  19.455  0.00  0.00    +0.000 A 
ATOM     27  C   UNL     1       2.544  13.875  20.584  0.00  0.00    +0.000 A 
ATOM     28  C   UNL     1       1.833  12.687  20.439  0.00  0.00    +0.000 A 
ATOM     29  F   UNL     1       1.490  12.015  21.547  0.00  0.00    +0.000 F 
ENDBRANCH   1  23
TORSDOF 3
ENDMDL
MODEL 5
REMARK VINA RESULT:      -7.5      5.673      8.944
REMARK  Name = 
REMARK  4 active torsions:
REMARK  status: ('A' for Active; 'I' for Inactive)
REMARK    1  A    between atoms: C_1  and  N_2
REMARK    2  A    between atoms: C_4  and  C_5
REMARK    3  A    between atoms: C_5  and  N_6
REMARK    4  A    between atoms: C_5  and  C_16
REMARK                            x       y       z     vdW  Elec       q    Type
REMARK                         _______ _______ _______ _____ _____    ______ ____
ROOT
ATOM      1  C   UNL     1      -0.481  12.255  20.048  0.00  0.00    +0.000 C 
ENDROOT
BRANCH   1   2
ATOM      2  N   UNL     1      -0.145  13.346  20.965  0.00  0.00    +0.000 N 
ATOM      3  C   UNL     1       1.083  13.923  20.904  0.00  0.00    +0.000 A 
ATOM      4  N   UNL     1       1.646  14.433  21.974  0.00  0.00    +0.000 NA
ATOM      5  C   UNL     1       2.947  14.831  21.703  0.00  0.00    +0.000 A 
ATOM      6  C   UNL     1       3.865  15.368  22.628  0.00  0.00    +0.000 A 
ATOM      7  C   UNL     1       5.176  15.647  22.227  0.00  0.00    +0.000 A 
ATOM      8  C   UNL     1       5.576  15.415  20.915  0.00  0.00    +0.000 A 
ATOM      9  C   UNL     1       4.673  14.926  19.967  0.00  0.00    +0.000 A 
ATOM     10  C   UNL     1       3.361  14.644  20.385  0.00  0.00    +0.000 A 
ATOM     11  S   UNL     1       2.039  14.047  19.471  0.00  0.00    +0.000 S 
ATOM     12  H   UNL     1      -0.430  13.164  21.922  0.00  0.00    +0.000 HD
ENDBRANCH   1   2
BRANCH   1  16
ATOM     13  C   UNL     1      -5.512  12.693  20.038  0.00  0.00    +0.000 C 
ATOM     14  N   UNL     1      -4.164  12.372  19.623  0.00  0.00    +0.000 N 
ATOM     15  C   UNL     1      -3.037  12.636  20.349  0.00  0.00    +0.000 A 
ATOM     16  C   UNL     1      -1.944  12.118  19.675  0.00  0.00    +0.000 A 
ATOM     17  C   UNL     1      -2.457  11.517  18.476  0.00  0.00    +0.000 A 
ATOM     18  C   UNL     1      -1.864  10.826  17.399  0.00  0.00    +0.000 A 
ATOM     19  C   UNL     1      -2.642  10.465  16.294  0.00  0.00    +0.000 A 
ATOM     20  C   UNL     1      -3.997  10.779  16.250  0.00  0.00    +0.000 A 
ATOM     21  C   UNL     1      -4.620  11.419  17.324  0.00  0.00    +0.000 A 
ATOM     22  C   UNL     1      -3.832  11.766  18.430  0.00  0.00    +0.000 A 
ENDBRANCH   1  16
BRANCH   1  23
ATOM     23  C   UNL     1      -0.074  10.918  20.641  0.00  0.00    +0.000 A 
ATOM     24  C   UNL     1      -0.459  10.496  21.925  0.00  0.00    +0.000 A 
ATOM     25  C   UNL     1      -0.051   9.255  22.423  0.00  0.00    +0.000 A 
ATOM     26  C   UNL     1       0.765   8.424  21.657  0.00  0.00    +0.000 A 
ATOM     27  C   UNL     1       1.176   8.835  20.392  0.00  0.00    +0.000 A 
ATOM     28  C   UNL     1       0.757  10.067  19.897  0.00  0.00    +0.000 A 
ATOM     29  F   UNL     1       1.178  10.435  18.678  0.00  0.00    +0.000 F 
ENDBRANCH   1  23
TORSDOF 3
ENDMDL
MODEL 6
REMARK VINA RESULT:      -7.3      4.261      7.497
REMARK  Name = 
REMARK  4 active torsions:
REMARK  status: ('A' for Active; 'I' for Inactive)
REMARK    1  A    between atoms: C_1  and  N_2
REMARK    2  A    between atoms: C_4  and  C_5
REMARK    3  A    between atoms: C_5  and  N_6
REMARK    4  A    between atoms: C_5  and  C_16
REMARK                            x       y       z     vdW  Elec       q    Type
REMARK                         _______ _______ _______ _____ _____    ______ ____
ROOT
ATOM      1  C   UNL     1       0.181  11.328  19.216  0.00  0.00    +0.000 C 
ENDROOT
BRANCH   1   2
ATOM      2  N   UNL     1      -0.768  11.472  18.111  0.00  0.00    +0.000 N 
ATOM      3  C   UNL     1      -2.079  11.705  18.375  0.00  0.00    +0.000 A 
ATOM      4  N   UNL     1      -3.021  11.279  17.566  0.00  0.00    +0.000 NA
ATOM      5  C   UNL     1      -4.276  11.503  18.111  0.00  0.00    +0.000 A 
ATOM      6  C   UNL     1      -5.510  11.124  17.545  0.00  0.00    +0.000 A 
ATOM      7  C   UNL     1      -6.698  11.343  18.252  0.00  0.00    +0.000 A 
ATOM      8  C   UNL     1      -6.671  11.950  19.504  0.00  0.00    +0.000 A 
ATOM      9  C   UNL     1      -5.465  12.376  20.067  0.00  0.00    +0.000 A 
ATOM     10  C   UNL     1      -4.279  12.144  19.348  0.00  0.00    +0.000 A 
ATOM     11  S   UNL     1      -2.665  12.548  19.765  0.00  0.00    +0.000 S 
ATOM     12  H   UNL     1      -0.647  10.770  17.388  0.00  0.00    +0.000 HD
ENDBRANCH   1   2
BRANCH   1  16
ATOM     13  C   UNL     1       4.123  14.337  18.261  0.00  0.00    +0.000 C 
ATOM     14  N   UNL     1       2.937  13.788  18.881  0.00  0.00    +0.000 N 
ATOM     15  C   UNL     1       2.276  12.670  18.456  0.00  0.00    +0.000 A 
ATOM     16  C   UNL     1       1.240  12.405  19.336  0.00  0.00    +0.000 A 
ATOM     17  C   UNL     1       1.290  13.434  20.338  0.00  0.00    +0.000 A 
ATOM     18  C   UNL     1       0.527  13.710  21.491  0.00  0.00    +0.000 A 
ATOM     19  C   UNL     1       0.757  14.890  22.208  0.00  0.00    +0.000 A 
ATOM     20  C   UNL     1       1.734  15.791  21.793  0.00  0.00    +0.000 A 
ATOM     21  C   UNL     1       2.536  15.518  20.683  0.00  0.00    +0.000 A 
ATOM     22  C   UNL     1       2.303  14.328  19.980  0.00  0.00    +0.000 A 
ENDBRANCH   1  16
BRANCH   1  23
ATOM     23  C   UNL     1       0.934  10.014  19.103  0.00  0.00    +0.000 A 
ATOM     24  C   UNL     1       1.440   9.519  17.889  0.00  0.00    +0.000 A 
ATOM     25  C   UNL     1       2.122   8.299  17.842  0.00  0.00    +0.000 A 
ATOM     26  C   UNL     1       2.290   7.543  19.002  0.00  0.00    +0.000 A 
ATOM     27  C   UNL     1       1.776   8.006  20.209  0.00  0.00    +0.000 A 
ATOM     28  C   UNL     1       1.108   9.227  20.252  0.00  0.00    +0.000 A 
ATOM     29  F   UNL     1       0.617   9.639  21.430  0.00  0.00    +0.000 F 
ENDBRANCH   1  23
TORSDOF 3
ENDMDL
MODEL 7
REMARK VINA RESULT:      -7.3      4.479      7.376
REMARK  Name = 
REMARK  4 active torsions:
REMARK  status: ('A' for Active; 'I' for Inactive)
REMARK    1  A    between atoms: C_1  and  N_2
REMARK    2  A    between atoms: C_4  and  C_5
REMARK    3  A    between atoms: C_5  and  N_6
REMARK    4  A    between atoms: C_5  and  C_16
REMARK                            x       y       z     vdW  Elec       q    Type
REMARK                         _______ _______ _______ _____ _____    ______ ____
ROOT
ATOM      1  C   UNL     1      -0.385  11.972  19.115  0.00  0.00    +0.000 C 
ENDROOT
BRANCH   1   2
ATOM      2  N   UNL     1       0.648  12.360  18.154  0.00  0.00    +0.000 N 
ATOM      3  C   UNL     1       1.656  13.183  18.544  0.00  0.00    +0.000 A 
ATOM      4  N   UNL     1       2.228  14.005  17.695  0.00  0.00    +0.000 NA
ATOM      5  C   UNL     1       3.121  14.842  18.347  0.00  0.00    +0.000 A 
ATOM      6  C   UNL     1       3.870  15.882  17.759  0.00  0.00    +0.000 A 
ATOM      7  C   UNL     1       4.671  16.703  18.560  0.00  0.00    +0.000 A 
ATOM      8  C   UNL     1       4.749  16.488  19.933  0.00  0.00    +0.000 A 
ATOM      9  C   UNL     1       4.053  15.435  20.533  0.00  0.00    +0.000 A 
ATOM     10  C   UNL     1       3.246  14.623  19.717  0.00  0.00    +0.000 A 
ATOM     11  S   UNL     1       2.286  13.270  20.150  0.00  0.00    +0.000 S 
ATOM     12  H   UNL     1       0.272  12.626  17.250  0.00  0.00    +0.000 HD
ENDBRANCH   1   2
BRANCH   1  16
ATOM     13  C   UNL     1      -0.049   9.328  23.405  0.00  0.00    +0.000 C 
ATOM     14  N   UNL     1       0.108   9.720  22.021  0.00  0.00    +0.000 N 
ATOM     15  C   UNL     1      -0.404  10.859  21.466  0.00  0.00    +0.000 A 
ATOM     16  C   UNL     1       0.014  10.938  20.149  0.00  0.00    +0.000 A 
ATOM     17  C   UNL     1       0.817   9.772  19.911  0.00  0.00    +0.000 A 
ATOM     18  C   UNL     1       1.526   9.286  18.792  0.00  0.00    +0.000 A 
ATOM     19  C   UNL     1       2.124   8.022  18.845  0.00  0.00    +0.000 A 
ATOM     20  C   UNL     1       2.026   7.241  19.993  0.00  0.00    +0.000 A 
ATOM     21  C   UNL     1       1.372   7.717  21.131  0.00  0.00    +0.000 A 
ATOM     22  C   UNL     1       0.787   8.990  21.069  0.00  0.00    +0.000 A 
ENDBRANCH   1  16
BRANCH   1  23
ATOM     23  C   UNL     1      -1.592  11.398  18.395  0.00  0.00    +0.000 A 
ATOM     24  C   UNL     1      -1.491  10.475  17.339  0.00  0.00    +0.000 A 
ATOM     25  C   UNL     1      -2.637   9.982  16.708  0.00  0.00    +0.000 A 
ATOM     26  C   UNL     1      -3.901  10.417  17.105  0.00  0.00    +0.000 A 
ATOM     27  C   UNL     1      -4.019  11.348  18.132  0.00  0.00    +0.000 A 
ATOM     28  C   UNL     1      -2.876  11.827  18.765  0.00  0.00    +0.000 A 
ATOM     29  F   UNL     1      -3.026  12.729  19.746  0.00  0.00    +0.000 F 
ENDBRANCH   1  23
TORSDOF 3
ENDMDL
MODEL 8
REMARK VINA RESULT:      -7.3      6.241      8.945
REMARK  Name = 
REMARK  4 active torsions:
REMARK  status: ('A' for Active; 'I' for Inactive)
REMARK    1  A    between atoms: C_1  and  N_2
REMARK    2  A    between atoms: C_4  and  C_5
REMARK    3  A    between atoms: C_5  and  N_6
REMARK    4  A    between atoms: C_5  and  C_16
REMARK                            x       y       z     vdW  Elec       q    Type
REMARK                         _______ _______ _______ _____ _____    ______ ____
ROOT
ATOM      1  C   UNL     1      -0.090  11.780  19.511  0.00  0.00    +0.000 C 
ENDROOT
BRANCH   1   2
ATOM      2  N   UNL     1       0.095  13.198  19.824  0.00  0.00    +0.000 N 
ATOM      3  C   UNL     1       1.253  13.819  19.477  0.00  0.00    +0.000 A 
ATOM      4  N   UNL     1       1.724  14.819  20.185  0.00  0.00    +0.000 NA
ATOM      5  C   UNL     1       2.980  15.193  19.731  0.00  0.00    +0.000 A 
ATOM      6  C   UNL     1       3.804  16.191  20.288  0.00  0.00    +0.000 A 
ATOM      7  C   UNL     1       5.088  16.403  19.773  0.00  0.00    +0.000 A 
ATOM      8  C   UNL     1       5.550  15.647  18.700  0.00  0.00    +0.000 A 
ATOM      9  C   UNL     1       4.735  14.683  18.101  0.00  0.00    +0.000 A 
ATOM     10  C   UNL     1       3.451  14.476  18.633  0.00  0.00    +0.000 A 
ATOM     11  S   UNL     1       2.232  13.384  18.122  0.00  0.00    +0.000 S 
ATOM     12  H   UNL     1      -0.196  13.440  20.765  0.00  0.00    +0.000 HD
ENDBRANCH   1   2
BRANCH   1  16
ATOM     13  C   UNL     1      -3.018   9.771  15.920  0.00  0.00    +0.000 C 
ATOM     14  N   UNL     1      -2.600  10.488  17.105  0.00  0.00    +0.000 N 
ATOM     15  C   UNL     1      -1.306  10.621  17.526  0.00  0.00    +0.000 A 
ATOM     16  C   UNL     1      -1.285  11.434  18.646  0.00  0.00    +0.000 A 
ATOM     17  C   UNL     1      -2.650  11.799  18.905  0.00  0.00    +0.000 A 
ATOM     18  C   UNL     1      -3.277  12.603  19.879  0.00  0.00    +0.000 A 
ATOM     19  C   UNL     1      -4.674  12.660  19.936  0.00  0.00    +0.000 A 
ATOM     20  C   UNL     1      -5.449  11.931  19.039  0.00  0.00    +0.000 A 
ATOM     21  C   UNL     1      -4.854  11.165  18.034  0.00  0.00    +0.000 A 
ATOM     22  C   UNL     1      -3.453  11.125  17.980  0.00  0.00    +0.000 A 
ENDBRANCH   1  16
BRANCH   1  23
ATOM     23  C   UNL     1      -0.249  10.971  20.787  0.00  0.00    +0.000 A 
ATOM     24  C   UNL     1      -0.789  11.501  21.971  0.00  0.00    +0.000 A 
ATOM     25  C   UNL     1      -0.909  10.711  23.119  0.00  0.00    +0.000 A 
ATOM     26  C   UNL     1      -0.472   9.387  23.110  0.00  0.00    +0.000 A 
ATOM     27  C   UNL     1       0.086   8.852  21.953  0.00  0.00    +0.000 A 
ATOM     28  C   UNL     1       0.192   9.640  20.809  0.00  0.00    +0.000 A 
ATOM     29  F   UNL     1       0.743   9.095  19.715  0.00  0.00    +0.000 F 
ENDBRANCH   1  23
TORSDOF 3
ENDMDL
MODEL 9
REMARK VINA RESULT:      -7.3      5.020      8.471
REMARK  Name = 
REMARK  4 active torsions:
REMARK  status: ('A' for Active; 'I' for Inactive)
REMARK    1  A    between atoms: C_1  and  N_2
REMARK    2  A    between atoms: C_4  and  C_5
REMARK    3  A    between atoms: C_5  and  N_6
REMARK    4  A    between atoms: C_5  and  C_16
REMARK                            x       y       z     vdW  Elec       q    Type
REMARK                         _______ _______ _______ _____ _____    ______ ____
ROOT
ATOM      1  C   UNL     1       0.333  11.828  19.502  0.00  0.00    +0.000 C 
ENDROOT
BRANCH   1   2
ATOM      2  N   UNL     1       0.908  12.886  20.334  0.00  0.00    +0.000 N 
ATOM      3  C   UNL     1       2.009  13.556  19.905  0.00  0.00    +0.000 A 
ATOM      4  N   UNL     1       2.881  14.044  20.757  0.00  0.00    +0.000 NA
ATOM      5  C   UNL     1       3.986  14.553  20.092  0.00  0.00    +0.000 A 
ATOM      6  C   UNL     1       5.138  15.103  20.690  0.00  0.00    +0.000 A 
ATOM      7  C   UNL     1       6.215  15.502  19.891  0.00  0.00    +0.000 A 
ATOM      8  C   UNL     1       6.150  15.377  18.506  0.00  0.00    +0.000 A 
ATOM      9  C   UNL     1       5.001  14.877  17.887  0.00  0.00    +0.000 A 
ATOM     10  C   UNL     1       3.930  14.474  18.702  0.00  0.00    +0.000 A 
ATOM     11  S   UNL     1       2.406  13.833  18.247  0.00  0.00    +0.000 S 
ATOM     12  H   UNL     1       0.980  12.629  21.313  0.00  0.00    +0.000 HD
ENDBRANCH   1   2
BRANCH   1  16
ATOM     13  C   UNL     1      -4.567  12.825  20.208  0.00  0.00    +0.000 C 
ATOM     14  N   UNL     1      -3.342  12.319  19.631  0.00  0.00    +0.000 N 
ATOM     15  C   UNL     1      -2.091  12.519  20.145  0.00  0.00    +0.000 A 
ATOM     16  C   UNL     1      -1.177  11.823  19.373  0.00  0.00    +0.000 A 
ATOM     17  C   UNL     1      -1.934  11.177  18.336  0.00  0.00    +0.000 A 
ATOM     18  C   UNL     1      -1.593  10.329  17.262  0.00  0.00    +0.000 A 
ATOM     19  C   UNL     1      -2.571   9.959  16.333  0.00  0.00    +0.000 A 
ATOM     20  C   UNL     1      -3.879  10.418  16.462  0.00  0.00    +0.000 A 
ATOM     21  C   UNL     1      -4.254  11.219  17.543  0.00  0.00    +0.000 A 
ATOM     22  C   UNL     1      -3.267  11.574  18.473  0.00  0.00    +0.000 A 
ENDBRANCH   1  16
BRANCH   1  23
ATOM     23  C   UNL     1       0.710  10.461  20.045  0.00  0.00    +0.000 A 
ATOM     24  C   UNL     1       1.256   9.440  19.247  0.00  0.00    +0.000 A 
ATOM     25  C   UNL     1       1.581   8.197  19.798  0.00  0.00    +0.000 A 
ATOM     26  C   UNL     1       1.348   7.945  21.150  0.00  0.00    +0.000 A 
ATOM     27  C   UNL     1       0.787   8.936  21.950  0.00  0.00    +0.000 A 
ATOM     28  C   UNL     1       0.476  10.176  21.398  0.00  0.00    +0.000 A 
ATOM     29  F   UNL     1      -0.071  11.104  22.196  0.00  0.00    +0.000 F 
ENDBRANCH   1  23
TORSDOF 3
ENDMDL
