MODEL 1
REMARK VINA RESULT:      -8.9      0.000      0.000
REMARK  Name = 
REMARK  3 active torsions:
REMARK  status: ('A' for Active; 'I' for Inactive)
REMARK    1  A    between atoms: C_1  and  S_2
REMARK    2  A    between atoms: S_2  and  C_5
REMARK    3  A    between atoms: C_8  and  C_9
REMARK                            x       y       z     vdW  Elec       q    Type
REMARK                         _______ _______ _______ _____ _____    ______ ____
ROOT
ATOM      1  C   UNL     1       3.279   6.987  17.942  0.00  0.00    +0.000 C 
ATOM      2  O   UNL     1       3.798   7.409  16.893  0.00  0.00    +0.000 OA
ATOM      3  N   UNL     1       3.746   5.754  18.460  0.00  0.00    +0.000 N 
ATOM      4  C   UNL     1       5.118   5.499  17.978  0.00  0.00    +0.000 C 
ATOM      5  C   UNL     1       5.789   4.575  18.946  0.00  0.00    +0.000 C 
ATOM      6  O   UNL     1       6.621   4.908  19.778  0.00  0.00    +0.000 OA
ATOM      7  N   UNL     1       5.225   3.323  18.895  0.00  0.00    +0.000 N 
ATOM      8  C   UNL     1       3.812   3.293  18.880  0.00  0.00    +0.000 A 
ATOM      9  C   UNL     1       3.251   2.020  19.036  0.00  0.00    +0.000 A 
ATOM     10  C   UNL     1       1.885   1.913  19.216  0.00  0.00    +0.000 A 
ATOM     11  C   UNL     1       1.104   3.073  19.195  0.00  0.00    +0.000 A 
ATOM     12  C   UNL     1       1.665   4.355  18.955  0.00  0.00    +0.000 A 
ATOM     13  C   UNL     1       3.040   4.507  18.790  0.00  0.00    +0.000 A 
ATOM     14  H   UNL     1       5.635   2.682  18.222  0.00  0.00    +0.000 HD
ENDROOT
BRANCH   1  18
ATOM     15  C   UNL     1       0.818   9.756  20.201  0.00  0.00    +0.000 A 
ATOM     16  C   UNL     1       1.277   8.577  20.768  0.00  0.00    +0.000 A 
ATOM     17  C   UNL     1       2.060   7.716  19.984  0.00  0.00    +0.000 A 
ATOM     18  C   UNL     1       2.399   8.001  18.628  0.00  0.00    +0.000 A 
ATOM     19  C   UNL     1       1.826   9.129  18.051  0.00  0.00    +0.000 A 
ATOM     20  C   UNL     1       1.067  10.016  18.834  0.00  0.00    +0.000 A 
BRANCH  15  22
ATOM     21  C   UNL     1      -0.657   9.927  22.595  0.00  0.00    +0.000 C 
ATOM     22  S   UNL     1      -0.179  10.885  21.182  0.00  0.00    +0.000 S 
ATOM     23  O   UNL     1      -1.375  11.167  20.411  0.00  0.00    +0.000 OA
ATOM     24  O   UNL     1       0.699  11.950  21.634  0.00  0.00    +0.000 OA
ENDBRANCH  15  22
ENDBRANCH   1  18
TORSDOF 2
ENDMDL
MODEL 2
REMARK VINA RESULT:      -8.9      0.824      1.014
REMARK  Name = 
REMARK  3 active torsions:
REMARK  status: ('A' for Active; 'I' for Inactive)
REMARK    1  A    between atoms: C_1  and  S_2
REMARK    2  A    between atoms: S_2  and  C_5
REMARK    3  A    between atoms: C_8  and  C_9
REMARK                            x       y       z     vdW  Elec       q    Type
REMARK                         _______ _______ _______ _____ _____    ______ ____
ROOT
ATOM      1  C   UNL     1       3.359   7.003  17.802  0.00  0.00    +0.000 C 
ATOM      2  O   UNL     1       3.940   7.429  16.788  0.00  0.00    +0.000 OA
ATOM      3  N   UNL     1       3.820   5.787  18.364  0.00  0.00    +0.000 N 
ATOM      4  C   UNL     1       5.229   5.565  17.984  0.00  0.00    +0.000 C 
ATOM      5  C   UNL     1       5.853   4.667  19.007  0.00  0.00    +0.000 C 
ATOM      6  O   UNL     1       6.615   5.030  19.892  0.00  0.00    +0.000 OA
ATOM      7  N   UNL     1       5.327   3.400  18.930  0.00  0.00    +0.000 N 
ATOM      8  C   UNL     1       3.920   3.333  18.815  0.00  0.00    +0.000 A 
ATOM      9  C   UNL     1       3.383   2.047  18.944  0.00  0.00    +0.000 A 
ATOM     10  C   UNL     1       2.011   1.904  19.028  0.00  0.00    +0.000 A 
ATOM     11  C   UNL     1       1.203   3.042  18.940  0.00  0.00    +0.000 A 
ATOM     12  C   UNL     1       1.747   4.338  18.726  0.00  0.00    +0.000 A 
ATOM     13  C   UNL     1       3.125   4.524  18.658  0.00  0.00    +0.000 A 
ATOM     14  H   UNL     1       5.801   2.765  18.293  0.00  0.00    +0.000 HD
ENDROOT
BRANCH   1  18
ATOM     15  C   UNL     1       0.693   9.742  19.854  0.00  0.00    +0.000 A 
ATOM     16  C   UNL     1       1.214   8.630  20.499  0.00  0.00    +0.000 A 
ATOM     17  C   UNL     1       2.062   7.775  19.779  0.00  0.00    +0.000 A 
ATOM     18  C   UNL     1       2.406   7.998  18.413  0.00  0.00    +0.000 A 
ATOM     19  C   UNL     1       1.775   9.052  17.761  0.00  0.00    +0.000 A 
ATOM     20  C   UNL     1       0.950   9.935  18.478  0.00  0.00    +0.000 A 
BRANCH  15  22
ATOM     21  C   UNL     1       0.594  12.320  20.986  0.00  0.00    +0.000 C 
ATOM     22  S   UNL     1      -0.388  10.863  20.752  0.00  0.00    +0.000 S 
ATOM     23  O   UNL     1      -0.619  10.269  22.055  0.00  0.00    +0.000 OA
ATOM     24  O   UNL     1      -1.489  11.198  19.866  0.00  0.00    +0.000 OA
ENDBRANCH  15  22
ENDBRANCH   1  18
TORSDOF 2
ENDMDL
MODEL 3
REMARK VINA RESULT:      -8.8      0.778      1.467
REMARK  Name = 
REMARK  3 active torsions:
REMARK  status: ('A' for Active; 'I' for Inactive)
REMARK    1  A    between atoms: C_1  and  S_2
REMARK    2  A    between atoms: S_2  and  C_5
REMARK    3  A    between atoms: C_8  and  C_9
REMARK                            x       y       z     vdW  Elec       q    Type
REMARK                         _______ _______ _______ _____ _____    ______ ____
ROOT
ATOM      1  C   UNL     1       3.173   7.047  18.064  0.00  0.00    +0.000 C 
ATOM      2  O   UNL     1       3.663   7.518  17.022  0.00  0.00    +0.000 OA
ATOM      3  N   UNL     1       3.688   5.815  18.537  0.00  0.00    +0.000 N 
ATOM      4  C   UNL     1       5.061   5.622  18.031  0.00  0.00    +0.000 C 
ATOM      5  C   UNL     1       5.776   4.692  18.961  0.00  0.00    +0.000 C 
ATOM      6  O   UNL     1       6.608   5.028  19.792  0.00  0.00    +0.000 OA
ATOM      7  N   UNL     1       5.254   3.423  18.879  0.00  0.00    +0.000 N 
ATOM      8  C   UNL     1       3.843   3.346  18.882  0.00  0.00    +0.000 A 
ATOM      9  C   UNL     1       3.327   2.051  19.006  0.00  0.00    +0.000 A 
ATOM     10  C   UNL     1       1.968   1.891  19.200  0.00  0.00    +0.000 A 
ATOM     11  C   UNL     1       1.148   3.024  19.225  0.00  0.00    +0.000 A 
ATOM     12  C   UNL     1       1.663   4.332  19.017  0.00  0.00    +0.000 A 
ATOM     13  C   UNL     1       3.029   4.535  18.839  0.00  0.00    +0.000 A 
ATOM     14  H   UNL     1       5.676   2.818  18.181  0.00  0.00    +0.000 HD
ENDROOT
BRANCH   1  18
ATOM     15  C   UNL     1       0.515   9.962  19.869  0.00  0.00    +0.000 A 
ATOM     16  C   UNL     1       1.011  10.141  18.587  0.00  0.00    +0.000 A 
ATOM     17  C   UNL     1       1.876   9.169  18.061  0.00  0.00    +0.000 A 
ATOM     18  C   UNL     1       2.269   8.008  18.792  0.00  0.00    +0.000 A 
ATOM     19  C   UNL     1       1.851   7.917  20.115  0.00  0.00    +0.000 A 
ATOM     20  C   UNL     1       0.959   8.866  20.642  0.00  0.00    +0.000 A 
BRANCH  15  22
ATOM     21  C   UNL     1       0.373  12.661  20.666  0.00  0.00    +0.000 C 
ATOM     22  S   UNL     1      -0.604  11.184  20.567  0.00  0.00    +0.000 S 
ATOM     23  O   UNL     1      -0.899  10.756  21.922  0.00  0.00    +0.000 OA
ATOM     24  O   UNL     1      -1.660  11.404  19.595  0.00  0.00    +0.000 OA
ENDBRANCH  15  22
ENDBRANCH   1  18
TORSDOF 2
ENDMDL
MODEL 4
REMARK VINA RESULT:      -8.7      0.363      1.068
REMARK  Name = 
REMARK  3 active torsions:
REMARK  status: ('A' for Active; 'I' for Inactive)
REMARK    1  A    between atoms: C_1  and  S_2
REMARK    2  A    between atoms: S_2  and  C_5
REMARK    3  A    between atoms: C_8  and  C_9
REMARK                            x       y       z     vdW  Elec       q    Type
REMARK                         _______ _______ _______ _____ _____    ______ ____
ROOT
ATOM      1  C   UNL     1       2.977   7.003  18.168  0.00  0.00    +0.000 C 
ATOM      2  O   UNL     1       3.368   7.527  17.110  0.00  0.00    +0.000 OA
ATOM      3  N   UNL     1       3.489   5.725  18.501  0.00  0.00    +0.000 N 
ATOM      4  C   UNL     1       4.789   5.520  17.832  0.00  0.00    +0.000 C 
ATOM      5  C   UNL     1       5.562   4.504  18.614  0.00  0.00    +0.000 C 
ATOM      6  O   UNL     1       6.494   4.754  19.366  0.00  0.00    +0.000 OA
ATOM      7  N   UNL     1       4.982   3.263  18.510  0.00  0.00    +0.000 N 
ATOM      8  C   UNL     1       3.578   3.235  18.666  0.00  0.00    +0.000 A 
ATOM      9  C   UNL     1       3.025   1.952  18.764  0.00  0.00    +0.000 A 
ATOM     10  C   UNL     1       1.690   1.826  19.099  0.00  0.00    +0.000 A 
ATOM     11  C   UNL     1       0.926   2.982  19.288  0.00  0.00    +0.000 A 
ATOM     12  C   UNL     1       1.469   4.283  19.108  0.00  0.00    +0.000 A 
ATOM     13  C   UNL     1       2.814   4.451  18.792  0.00  0.00    +0.000 A 
ATOM     14  H   UNL     1       5.299   2.692  17.731  0.00  0.00    +0.000 HD
ENDROOT
BRANCH   1  18
ATOM     15  C   UNL     1       0.671   9.887  20.447  0.00  0.00    +0.000 A 
ATOM     16  C   UNL     1       1.082  10.160  19.151  0.00  0.00    +0.000 A 
ATOM     17  C   UNL     1       1.835   9.192  18.468  0.00  0.00    +0.000 A 
ATOM     18  C   UNL     1       2.199   7.943  19.053  0.00  0.00    +0.000 A 
ATOM     19  C   UNL     1       1.876   7.748  20.392  0.00  0.00    +0.000 A 
ATOM     20  C   UNL     1       1.095   8.695  21.076  0.00  0.00    +0.000 A 
BRANCH  15  22
ATOM     21  C   UNL     1      -0.771  10.268  22.837  0.00  0.00    +0.000 C 
ATOM     22  S   UNL     1      -0.303  11.102  21.344  0.00  0.00    +0.000 S 
ATOM     23  O   UNL     1      -1.507  11.330  20.567  0.00  0.00    +0.000 OA
ATOM     24  O   UNL     1       0.589  12.193  21.696  0.00  0.00    +0.000 OA
ENDBRANCH  15  22
ENDBRANCH   1  18
TORSDOF 2
ENDMDL
MODEL 5
REMARK VINA RESULT:      -8.4      1.292      1.777
REMARK  Name = 
REMARK  3 active torsions:
REMARK  status: ('A' for Active; 'I' for Inactive)
REMARK    1  A    between atoms: C_1  and  S_2
REMARK    2  A    between atoms: S_2  and  C_5
REMARK    3  A    between atoms: C_8  and  C_9
REMARK                            x       y       z     vdW  Elec       q    Type
REMARK                         _______ _______ _______ _____ _____    ______ ____
ROOT
ATOM      1  C   UNL     1       2.522   7.295  18.784  0.00  0.00    +0.000 C 
ATOM      2  O   UNL     1       2.692   7.678  17.613  0.00  0.00    +0.000 OA
ATOM      3  N   UNL     1       3.208   6.129  19.204  0.00  0.00    +0.000 N 
ATOM      4  C   UNL     1       4.406   5.927  18.365  0.00  0.00    +0.000 C 
ATOM      5  C   UNL     1       5.390   5.110  19.144  0.00  0.00    +0.000 C 
ATOM      6  O   UNL     1       6.393   5.547  19.689  0.00  0.00    +0.000 OA
ATOM      7  N   UNL     1       4.932   3.826  19.313  0.00  0.00    +0.000 N 
ATOM      8  C   UNL     1       3.578   3.710  19.702  0.00  0.00    +0.000 A 
ATOM      9  C   UNL     1       3.182   2.419  20.069  0.00  0.00    +0.000 A 
ATOM     10  C   UNL     1       1.934   2.241  20.635  0.00  0.00    +0.000 A 
ATOM     11  C   UNL     1       1.091   3.348  20.783  0.00  0.00    +0.000 A 
ATOM     12  C   UNL     1       1.463   4.643  20.334  0.00  0.00    +0.000 A 
ATOM     13  C   UNL     1       2.721   4.866  19.779  0.00  0.00    +0.000 A 
ATOM     14  H   UNL     1       5.185   3.168  18.581  0.00  0.00    +0.000 HD
ENDROOT
BRANCH   1  18
ATOM     15  C   UNL     1       0.350  10.340  20.983  0.00  0.00    +0.000 A 
ATOM     16  C   UNL     1       0.705  10.530  19.656  0.00  0.00    +0.000 A 
ATOM     17  C   UNL     1       1.416   9.513  19.001  0.00  0.00    +0.000 A 
ATOM     18  C   UNL     1       1.794   8.297  19.644  0.00  0.00    +0.000 A 
ATOM     19  C   UNL     1       1.530   8.187  21.005  0.00  0.00    +0.000 A 
ATOM     20  C   UNL     1       0.790   9.183  21.664  0.00  0.00    +0.000 A 
BRANCH  15  22
ATOM     21  C   UNL     1      -1.855  12.073  20.711  0.00  0.00    +0.000 C 
ATOM     22  S   UNL     1      -0.571  11.619  21.847  0.00  0.00    +0.000 S 
ATOM     23  O   UNL     1       0.320  12.756  21.987  0.00  0.00    +0.000 OA
ATOM     24  O   UNL     1      -1.189  10.995  23.003  0.00  0.00    +0.000 OA
ENDBRANCH  15  22
ENDBRANCH   1  18
TORSDOF 2
ENDMDL
MODEL 6
REMARK VINA RESULT:      -8.1      2.089      3.346
REMARK  Name = 
REMARK  3 active torsions:
REMARK  status: ('A' for Active; 'I' for Inactive)
REMARK    1  A    between atoms: C_1  and  S_2
REMARK    2  A    between atoms: S_2  and  C_5
REMARK    3  A    between atoms: C_8  and  C_9
REMARK                            x       y       z     vdW  Elec       q    Type
REMARK                         _______ _______ _______ _____ _____    ______ ____
ROOT
ATOM      1  C   UNL     1       2.810   6.175  19.527  0.00  0.00    +0.000 C 
ATOM      2  O   UNL     1       2.558   5.700  20.649  0.00  0.00    +0.000 OA
ATOM      3  N   UNL     1       3.425   5.327  18.574  0.00  0.00    +0.000 N 
ATOM      4  C   UNL     1       3.133   3.917  18.900  0.00  0.00    +0.000 C 
ATOM      5  C   UNL     1       3.254   3.112  17.643  0.00  0.00    +0.000 C 
ATOM      6  O   UNL     1       2.314   2.689  16.986  0.00  0.00    +0.000 OA
ATOM      7  N   UNL     1       4.561   3.050  17.226  0.00  0.00    +0.000 N 
ATOM      8  C   UNL     1       5.265   4.276  17.253  0.00  0.00    +0.000 A 
ATOM      9  C   UNL     1       6.522   4.243  16.636  0.00  0.00    +0.000 A 
ATOM     10  C   UNL     1       7.204   5.430  16.452  0.00  0.00    +0.000 A 
ATOM     11  C   UNL     1       6.637   6.619  16.923  0.00  0.00    +0.000 A 
ATOM     12  C   UNL     1       5.400   6.640  17.621  0.00  0.00    +0.000 A 
ATOM     13  C   UNL     1       4.673   5.467  17.808  0.00  0.00    +0.000 A 
ATOM     14  H   UNL     1       5.107   2.280  17.601  0.00  0.00    +0.000 HD
ENDROOT
BRANCH   1  18
ATOM     15  C   UNL     1       0.972  10.090  19.173  0.00  0.00    +0.000 A 
ATOM     16  C   UNL     1       0.940   9.388  20.368  0.00  0.00    +0.000 A 
ATOM     17  C   UNL     1       1.543   8.121  20.418  0.00  0.00    +0.000 A 
ATOM     18  C   UNL     1       2.181   7.524  19.290  0.00  0.00    +0.000 A 
ATOM     19  C   UNL     1       2.091   8.199  18.077  0.00  0.00    +0.000 A 
ATOM     20  C   UNL     1       1.520   9.481  18.021  0.00  0.00    +0.000 A 
BRANCH  15  22
ATOM     21  C   UNL     1      -0.095  12.151  20.770  0.00  0.00    +0.000 C 
ATOM     22  S   UNL     1       0.219  11.719  19.079  0.00  0.00    +0.000 S 
ATOM     23  O   UNL     1      -1.062  11.551  18.419  0.00  0.00    +0.000 OA
ATOM     24  O   UNL     1       1.225  12.628  18.559  0.00  0.00    +0.000 OA
ENDBRANCH  15  22
ENDBRANCH   1  18
TORSDOF 2
ENDMDL
MODEL 7
REMARK VINA RESULT:      -7.9      2.082      3.491
REMARK  Name = 
REMARK  3 active torsions:
REMARK  status: ('A' for Active; 'I' for Inactive)
REMARK    1  A    between atoms: C_1  and  S_2
REMARK    2  A    between atoms: S_2  and  C_5
REMARK    3  A    between atoms: C_8  and  C_9
REMARK                            x       y       z     vdW  Elec       q    Type
REMARK                         _______ _______ _______ _____ _____    ______ ____
ROOT
ATOM      1  C   UNL     1       2.847   5.863  19.773  0.00  0.00    +0.000 C 
ATOM      2  O   UNL     1       2.670   5.281  20.858  0.00  0.00    +0.000 OA
ATOM      3  N   UNL     1       3.435   5.126  18.717  0.00  0.00    +0.000 N 
ATOM      4  C   UNL     1       3.203   3.683  18.927  0.00  0.00    +0.000 C 
ATOM      5  C   UNL     1       3.280   2.999  17.597  0.00  0.00    +0.000 C 
ATOM      6  O   UNL     1       2.319   2.604  16.952  0.00  0.00    +0.000 OA
ATOM      7  N   UNL     1       4.564   3.019  17.111  0.00  0.00    +0.000 N 
ATOM      8  C   UNL     1       5.232   4.261  17.214  0.00  0.00    +0.000 A 
ATOM      9  C   UNL     1       6.455   4.326  16.535  0.00  0.00    +0.000 A 
ATOM     10  C   UNL     1       7.091   5.548  16.425  0.00  0.00    +0.000 A 
ATOM     11  C   UNL     1       6.516   6.670  17.031  0.00  0.00    +0.000 A 
ATOM     12  C   UNL     1       5.317   6.585  17.790  0.00  0.00    +0.000 A 
ATOM     13  C   UNL     1       4.636   5.376  17.905  0.00  0.00    +0.000 A 
ATOM     14  H   UNL     1       5.152   2.237  17.385  0.00  0.00    +0.000 HD
ENDROOT
BRANCH   1  18
ATOM     15  C   UNL     1       0.916   9.708  19.215  0.00  0.00    +0.000 A 
ATOM     16  C   UNL     1       1.606   9.095  18.180  0.00  0.00    +0.000 A 
ATOM     17  C   UNL     1       2.219   7.857  18.425  0.00  0.00    +0.000 A 
ATOM     18  C   UNL     1       2.167   7.206  19.693  0.00  0.00    +0.000 A 
ATOM     19  C   UNL     1       1.571   7.900  20.741  0.00  0.00    +0.000 A 
ATOM     20  C   UNL     1       0.925   9.124  20.502  0.00  0.00    +0.000 A 
BRANCH  15  22
ATOM     21  C   UNL     1      -0.486  11.767  20.531  0.00  0.00    +0.000 C 
ATOM     22  S   UNL     1       0.110  11.290  18.931  0.00  0.00    +0.000 S 
ATOM     23  O   UNL     1      -1.041  11.028  18.087  0.00  0.00    +0.000 OA
ATOM     24  O   UNL     1       1.142  12.231  18.533  0.00  0.00    +0.000 OA
ENDBRANCH  15  22
ENDBRANCH   1  18
TORSDOF 2
ENDMDL
MODEL 8
REMARK VINA RESULT:      -7.9      3.252      7.480
REMARK  Name = 
REMARK  3 active torsions:
REMARK  status: ('A' for Active; 'I' for Inactive)
REMARK    1  A    between atoms: C_1  and  S_2
REMARK    2  A    between atoms: S_2  and  C_5
REMARK    3  A    between atoms: C_8  and  C_9
REMARK                            x       y       z     vdW  Elec       q    Type
REMARK                         _______ _______ _______ _____ _____    ______ ____
ROOT
ATOM      1  C   UNL     1       1.968   8.460  18.964  0.00  0.00    +0.000 C 
ATOM      2  O   UNL     1       2.770   8.994  18.177  0.00  0.00    +0.000 OA
ATOM      3  N   UNL     1       0.803   9.187  19.313  0.00  0.00    +0.000 N 
ATOM      4  C   UNL     1       0.495  10.172  18.258  0.00  0.00    +0.000 C 
ATOM      5  C   UNL     1      -0.967  10.485  18.324  0.00  0.00    +0.000 C 
ATOM      6  O   UNL     1      -1.815  10.060  17.552  0.00  0.00    +0.000 OA
ATOM      7  N   UNL     1      -1.266  11.183  19.470  0.00  0.00    +0.000 N 
ATOM      8  C   UNL     1      -0.680  10.682  20.654  0.00  0.00    +0.000 A 
ATOM      9  C   UNL     1      -1.151  11.270  21.834  0.00  0.00    +0.000 A 
ATOM     10  C   UNL     1      -0.775  10.724  23.046  0.00  0.00    +0.000 A 
ATOM     11  C   UNL     1       0.097   9.630  23.057  0.00  0.00    +0.000 A 
ATOM     12  C   UNL     1       0.639   9.087  21.862  0.00  0.00    +0.000 A 
ATOM     13  C   UNL     1       0.267   9.596  20.620  0.00  0.00    +0.000 A 
ATOM     14  H   UNL     1      -1.199  12.194  19.399  0.00  0.00    +0.000 HD
ENDROOT
BRANCH   1  18
ATOM     15  C   UNL     1       2.981   4.267  19.428  0.00  0.00    +0.000 A 
ATOM     16  C   UNL     1       3.194   4.928  18.228  0.00  0.00    +0.000 A 
ATOM     17  C   UNL     1       2.836   6.281  18.135  0.00  0.00    +0.000 A 
ATOM     18  C   UNL     1       2.258   7.004  19.221  0.00  0.00    +0.000 A 
ATOM     19  C   UNL     1       1.948   6.285  20.371  0.00  0.00    +0.000 A 
ATOM     20  C   UNL     1       2.331   4.938  20.488  0.00  0.00    +0.000 A 
BRANCH  15  22
ATOM     21  C   UNL     1       3.386   1.922  17.919  0.00  0.00    +0.000 C 
ATOM     22  S   UNL     1       3.439   2.535  19.582  0.00  0.00    +0.000 S 
ATOM     23  O   UNL     1       2.379   1.886  20.330  0.00  0.00    +0.000 OA
ATOM     24  O   UNL     1       4.819   2.495  20.035  0.00  0.00    +0.000 OA
ENDBRANCH  15  22
ENDBRANCH   1  18
TORSDOF 2
ENDMDL
MODEL 9
REMARK VINA RESULT:      -7.8      3.254      7.305
REMARK  Name = 
REMARK  3 active torsions:
REMARK  status: ('A' for Active; 'I' for Inactive)
REMARK    1  A    between atoms: C_1  and  S_2
REMARK    2  A    between atoms: S_2  and  C_5
REMARK    3  A    between atoms: C_8  and  C_9
REMARK                            x       y       z     vdW  Elec       q    Type
REMARK                         _______ _______ _______ _____ _____    ______ ____
ROOT
ATOM      1  C   UNL     1       2.020   8.595  18.723  0.00  0.00    +0.000 C 
ATOM      2  O   UNL     1       2.736   9.209  17.911  0.00  0.00    +0.000 OA
ATOM      3  N   UNL     1       0.833   9.228  19.166  0.00  0.00    +0.000 N 
ATOM      4  C   UNL     1       0.396  10.223  18.167  0.00  0.00    +0.000 C 
ATOM      5  C   UNL     1      -1.078  10.432  18.330  0.00  0.00    +0.000 C 
ATOM      6  O   UNL     1      -1.940   9.974  17.594  0.00  0.00    +0.000 OA
ATOM      7  N   UNL     1      -1.352  11.070  19.516  0.00  0.00    +0.000 N 
ATOM      8  C   UNL     1      -0.663  10.573  20.645  0.00  0.00    +0.000 A 
ATOM      9  C   UNL     1      -1.100  11.089  21.871  0.00  0.00    +0.000 A 
ATOM     10  C   UNL     1      -0.615  10.532  23.038  0.00  0.00    +0.000 A 
ATOM     11  C   UNL     1       0.328   9.501  22.959  0.00  0.00    +0.000 A 
ATOM     12  C   UNL     1       0.831   9.035  21.715  0.00  0.00    +0.000 A 
ATOM     13  C   UNL     1       0.351   9.557  20.516  0.00  0.00    +0.000 A 
ATOM     14  H   UNL     1      -1.358  12.085  19.478  0.00  0.00    +0.000 HD
ENDROOT
BRANCH   1  18
ATOM     15  C   UNL     1       2.969   4.436  19.515  0.00  0.00    +0.000 A 
ATOM     16  C   UNL     1       2.283   5.205  20.443  0.00  0.00    +0.000 A 
ATOM     17  C   UNL     1       2.014   6.547  20.134  0.00  0.00    +0.000 A 
ATOM     18  C   UNL     1       2.423   7.155  18.910  0.00  0.00    +0.000 A 
ATOM     19  C   UNL     1       3.211   6.394  18.053  0.00  0.00    +0.000 A 
ATOM     20  C   UNL     1       3.459   5.040  18.336  0.00  0.00    +0.000 A 
BRANCH  15  22
ATOM     21  C   UNL     1       2.657   2.464  21.503  0.00  0.00    +0.000 C 
ATOM     22  S   UNL     1       3.319   2.710  19.877  0.00  0.00    +0.000 S 
ATOM     23  O   UNL     1       4.762   2.584  19.960  0.00  0.00    +0.000 OA
ATOM     24  O   UNL     1       2.541   1.911  18.946  0.00  0.00    +0.000 OA
ENDBRANCH  15  22
ENDBRANCH   1  18
TORSDOF 2
ENDMDL
