MODEL 1
REMARK VINA RESULT:      -7.3      0.000      0.000
REMARK  Name = 
REMARK  9 active torsions:
REMARK  status: ('A' for Active; 'I' for Inactive)
REMARK    1  A    between atoms: O_1  and  C_2
REMARK    2  A    between atoms: C_2  and  C_3
REMARK    3  A    between atoms: C_2  and  C_15
REMARK    4  A    between atoms: C_3  and  O_4
REMARK    5  A    between atoms: O_4  and  C_5
REMARK    6  A    between atoms: C_8  and  C_9
REMARK    7  A    between atoms: C_15  and  N_16
REMARK    8  A    between atoms: N_19  and  C_20
REMARK    9  A    between atoms: C_20  and  C_21
REMARK                            x       y       z     vdW  Elec       q    Type
REMARK                         _______ _______ _______ _____ _____    ______ ____
ROOT
ATOM      1  C   UNL     1       1.471   9.739  17.924  0.00  0.00    +0.000 C 
ENDROOT
BRANCH   1   2
ATOM      2  O   UNL     1       2.164  10.871  17.387  0.00  0.00    +0.000 OA
ATOM      3  H   UNL     1       1.478  11.522  17.149  0.00  0.00    +0.000 HD
ENDBRANCH   1   2
BRANCH   1   4
ATOM      4  C   UNL     1       2.349   8.493  17.764  0.00  0.00    +0.000 C 
BRANCH   4   5
ATOM      5  O   UNL     1       2.538   7.878  19.044  0.00  0.00    +0.000 OA
BRANCH   5   6
ATOM      6  C   UNL     1       2.335   6.523  19.047  0.00  0.00    +0.000 A 
ATOM      7  C   UNL     1       1.921   5.977  20.262  0.00  0.00    +0.000 A 
ATOM      8  C   UNL     1       1.698   4.603  20.381  0.00  0.00    +0.000 A 
ATOM      9  C   UNL     1       1.870   3.756  19.276  0.00  0.00    +0.000 A 
ATOM     10  C   UNL     1       2.258   4.317  18.051  0.00  0.00    +0.000 A 
ATOM     11  C   UNL     1       2.486   5.691  17.937  0.00  0.00    +0.000 A 
BRANCH   9  12
ATOM     12  C   UNL     1       1.639   2.269  19.376  0.00  0.00    +0.000 C 
ATOM     13  F   UNL     1       2.661   1.522  18.876  0.00  0.00    +0.000 F 
ATOM     14  F   UNL     1       1.466   1.856  20.661  0.00  0.00    +0.000 F 
ATOM     15  F   UNL     1       0.523   1.871  18.703  0.00  0.00    +0.000 F 
ENDBRANCH   9  12
ENDBRANCH   5   6
ENDBRANCH   4   5
ENDBRANCH   1   4
BRANCH   1  16
ATOM     16  C   UNL     1       1.197   9.935  19.434  0.00  0.00    +0.000 C 
BRANCH  16  17
ATOM     17  N   UNL     1      -0.211   9.907  19.871  0.00  0.00    +0.000 NA
ATOM     18  C   UNL     1      -0.381  10.133  21.317  0.00  0.00    +0.000 C 
ATOM     19  C   UNL     1      -0.185  11.603  21.773  0.00  0.00    +0.000 C 
ATOM     20  N   UNL     1      -1.000  12.591  21.023  0.00  0.00    +0.000 NA
ATOM     21  C   UNL     1      -0.773  12.370  19.578  0.00  0.00    +0.000 C 
ATOM     22  C   UNL     1      -0.995  10.910  19.114  0.00  0.00    +0.000 C 
BRANCH  20  23
ATOM     23  C   UNL     1      -2.419  12.450  21.408  0.00  0.00    +0.000 C 
BRANCH  23  24
ATOM     24  C   UNL     1      -2.941  13.532  22.331  0.00  0.00    +0.000 A 
ATOM     25  C   UNL     1      -3.344  14.768  21.801  0.00  0.00    +0.000 A 
ATOM     26  C   UNL     1      -3.849  15.765  22.634  0.00  0.00    +0.000 A 
ATOM     27  C   UNL     1      -3.958  15.530  24.003  0.00  0.00    +0.000 A 
ATOM     28 CL   UNL     1      -4.591  16.758  25.028  0.00  0.00    +0.000 Cl
ATOM     29  C   UNL     1      -3.556  14.311  24.546  0.00  0.00    +0.000 A 
ATOM     30  C   UNL     1      -3.049  13.310  23.710  0.00  0.00    +0.000 A 
ENDBRANCH  23  24
ENDBRANCH  20  23
ENDBRANCH  16  17
ENDBRANCH   1  16
TORSDOF 9
ENDMDL
MODEL 2
REMARK VINA RESULT:      -7.3      9.562     11.916
REMARK  Name = 
REMARK  9 active torsions:
REMARK  status: ('A' for Active; 'I' for Inactive)
REMARK    1  A    between atoms: O_1  and  C_2
REMARK    2  A    between atoms: C_2  and  C_3
REMARK    3  A    between atoms: C_2  and  C_15
REMARK    4  A    between atoms: C_3  and  O_4
REMARK    5  A    between atoms: O_4  and  C_5
REMARK    6  A    between atoms: C_8  and  C_9
REMARK    7  A    between atoms: C_15  and  N_16
REMARK    8  A    between atoms: N_19  and  C_20
REMARK    9  A    between atoms: C_20  and  C_21
REMARK                            x       y       z     vdW  Elec       q    Type
REMARK                         _______ _______ _______ _____ _____    ______ ____
ROOT
ATOM      1  C   UNL     1       7.654   7.923  18.260  0.00  0.00    +0.000 C 
ENDROOT
BRANCH   1   2
ATOM      2  O   UNL     1       8.576   7.064  18.939  0.00  0.00    +0.000 OA
ATOM      3  H   UNL     1       8.239   6.966  19.849  0.00  0.00    +0.000 HD
ENDBRANCH   1   2
BRANCH   1   4
ATOM      4  C   UNL     1       8.320   9.281  18.016  0.00  0.00    +0.000 C 
BRANCH   4   5
ATOM      5  O   UNL     1       9.255   9.547  19.069  0.00  0.00    +0.000 OA
BRANCH   5   6
ATOM      6  C   UNL     1       9.723  10.834  19.087  0.00  0.00    +0.000 A 
ATOM      7  C   UNL     1       9.540  11.526  20.285  0.00  0.00    +0.000 A 
ATOM      8  C   UNL     1       9.968  12.851  20.409  0.00  0.00    +0.000 A 
ATOM      9  C   UNL     1      10.602  13.496  19.337  0.00  0.00    +0.000 A 
ATOM     10  C   UNL     1      10.808  12.785  18.147  0.00  0.00    +0.000 A 
ATOM     11  C   UNL     1      10.374  11.462  18.024  0.00  0.00    +0.000 A 
BRANCH   9  12
ATOM     12  C   UNL     1      11.071  14.926  19.442  0.00  0.00    +0.000 C 
ATOM     13  F   UNL     1      11.615  15.237  20.649  0.00  0.00    +0.000 F 
ATOM     14  F   UNL     1      12.020  15.229  18.513  0.00  0.00    +0.000 F 
ATOM     15  F   UNL     1      10.061  15.819  19.247  0.00  0.00    +0.000 F 
ENDBRANCH   9  12
ENDBRANCH   5   6
ENDBRANCH   4   5
ENDBRANCH   1   4
BRANCH   1  16
ATOM     16  C   UNL     1       7.271   7.329  16.884  0.00  0.00    +0.000 C 
BRANCH  16  17
ATOM     17  N   UNL     1       5.861   6.945  16.686  0.00  0.00    +0.000 NA
ATOM     18  C   UNL     1       5.644   6.104  15.496  0.00  0.00    +0.000 C 
ATOM     19  C   UNL     1       6.107   4.630  15.648  0.00  0.00    +0.000 C 
ATOM     20  N   UNL     1       5.567   3.938  16.844  0.00  0.00    +0.000 NA
ATOM     21  C   UNL     1       5.841   4.783  18.027  0.00  0.00    +0.000 C 
ATOM     22  C   UNL     1       5.355   6.247  17.891  0.00  0.00    +0.000 C 
BRANCH  20  23
ATOM     23  C   UNL     1       4.127   3.674  16.650  0.00  0.00    +0.000 C 
BRANCH  23  24
ATOM     24  C   UNL     1       3.346   3.421  17.924  0.00  0.00    +0.000 A 
ATOM     25  C   UNL     1       3.807   2.470  18.847  0.00  0.00    +0.000 A 
ATOM     26  C   UNL     1       3.113   2.243  20.035  0.00  0.00    +0.000 A 
ATOM     27  C   UNL     1       1.956   2.970  20.308  0.00  0.00    +0.000 A 
ATOM     28 CL   UNL     1       1.106   2.696  21.778  0.00  0.00    +0.000 Cl
ATOM     29  C   UNL     1       1.481   3.913  19.398  0.00  0.00    +0.000 A 
ATOM     30  C   UNL     1       2.178   4.141  18.207  0.00  0.00    +0.000 A 
ENDBRANCH  23  24
ENDBRANCH  20  23
ENDBRANCH  16  17
ENDBRANCH   1  16
TORSDOF 9
ENDMDL
MODEL 3
REMARK VINA RESULT:      -7.2      1.409      1.821
REMARK  Name = 
REMARK  9 active torsions:
REMARK  status: ('A' for Active; 'I' for Inactive)
REMARK    1  A    between atoms: O_1  and  C_2
REMARK    2  A    between atoms: C_2  and  C_3
REMARK    3  A    between atoms: C_2  and  C_15
REMARK    4  A    between atoms: C_3  and  O_4
REMARK    5  A    between atoms: O_4  and  C_5
REMARK    6  A    between atoms: C_8  and  C_9
REMARK    7  A    between atoms: C_15  and  N_16
REMARK    8  A    between atoms: N_19  and  C_20
REMARK    9  A    between atoms: C_20  and  C_21
REMARK                            x       y       z     vdW  Elec       q    Type
REMARK                         _______ _______ _______ _____ _____    ______ ____
ROOT
ATOM      1  C   UNL     1       1.760   8.821  18.103  0.00  0.00    +0.000 C 
ENDROOT
BRANCH   1   2
ATOM      2  O   UNL     1       1.791  10.044  17.360  0.00  0.00    +0.000 OA
ATOM      3  H   UNL     1       2.495   9.940  16.693  0.00  0.00    +0.000 HD
ENDBRANCH   1   2
BRANCH   1   4
ATOM      4  C   UNL     1       3.128   8.138  18.000  0.00  0.00    +0.000 C 
BRANCH   4   5
ATOM      5  O   UNL     1       2.982   6.881  17.329  0.00  0.00    +0.000 OA
BRANCH   5   6
ATOM      6  C   UNL     1       2.661   5.839  18.159  0.00  0.00    +0.000 A 
ATOM      7  C   UNL     1       3.344   5.804  19.375  0.00  0.00    +0.000 A 
ATOM      8  C   UNL     1       3.103   4.776  20.291  0.00  0.00    +0.000 A 
ATOM      9  C   UNL     1       2.160   3.777  20.008  0.00  0.00    +0.000 A 
ATOM     10  C   UNL     1       1.459   3.836  18.796  0.00  0.00    +0.000 A 
ATOM     11  C   UNL     1       1.705   4.862  17.879  0.00  0.00    +0.000 A 
BRANCH   9  12
ATOM     12  C   UNL     1       1.883   2.654  20.976  0.00  0.00    +0.000 C 
ATOM     13  F   UNL     1       0.794   2.868  21.764  0.00  0.00    +0.000 F 
ATOM     14  F   UNL     1       1.663   1.468  20.345  0.00  0.00    +0.000 F 
ATOM     15  F   UNL     1       2.923   2.436  21.829  0.00  0.00    +0.000 F 
ENDBRANCH   9  12
ENDBRANCH   5   6
ENDBRANCH   4   5
ENDBRANCH   1   4
BRANCH   1  16
ATOM     16  C   UNL     1       1.481   9.100  19.598  0.00  0.00    +0.000 C 
BRANCH  16  17
ATOM     17  N   UNL     1       0.072   9.271  19.998  0.00  0.00    +0.000 NA
ATOM     18  C   UNL     1      -0.200   8.848  21.383  0.00  0.00    +0.000 C 
ATOM     19  C   UNL     1       0.312   9.825  22.475  0.00  0.00    +0.000 C 
ATOM     20  N   UNL     1      -0.129  11.230  22.297  0.00  0.00    +0.000 NA
ATOM     21  C   UNL     1       0.199  11.641  20.914  0.00  0.00    +0.000 C 
ATOM     22  C   UNL     1      -0.335  10.685  19.820  0.00  0.00    +0.000 C 
BRANCH  20  23
ATOM     23  C   UNL     1      -1.571  11.334  22.598  0.00  0.00    +0.000 C 
BRANCH  23  24
ATOM     24  C   UNL     1      -1.997  12.638  23.240  0.00  0.00    +0.000 A 
ATOM     25  C   UNL     1      -3.317  12.793  23.694  0.00  0.00    +0.000 A 
ATOM     26  C   UNL     1      -3.718  13.979  24.310  0.00  0.00    +0.000 A 
ATOM     27  C   UNL     1      -2.801  15.014  24.477  0.00  0.00    +0.000 A 
ATOM     28 CL   UNL     1      -3.295  16.472  25.245  0.00  0.00    +0.000 Cl
ATOM     29  C   UNL     1      -1.489  14.878  24.024  0.00  0.00    +0.000 A 
ATOM     30  C   UNL     1      -1.086  13.689  23.408  0.00  0.00    +0.000 A 
ENDBRANCH  23  24
ENDBRANCH  20  23
ENDBRANCH  16  17
ENDBRANCH   1  16
TORSDOF 9
ENDMDL
MODEL 4
REMARK VINA RESULT:      -7.2      5.336      7.837
REMARK  Name = 
REMARK  9 active torsions:
REMARK  status: ('A' for Active; 'I' for Inactive)
REMARK    1  A    between atoms: O_1  and  C_2
REMARK    2  A    between atoms: C_2  and  C_3
REMARK    3  A    between atoms: C_2  and  C_15
REMARK    4  A    between atoms: C_3  and  O_4
REMARK    5  A    between atoms: O_4  and  C_5
REMARK    6  A    between atoms: C_8  and  C_9
REMARK    7  A    between atoms: C_15  and  N_16
REMARK    8  A    between atoms: N_19  and  C_20
REMARK    9  A    between atoms: C_20  and  C_21
REMARK                            x       y       z     vdW  Elec       q    Type
REMARK                         _______ _______ _______ _____ _____    ______ ____
ROOT
ATOM      1  C   UNL     1       7.256   4.849  17.640  0.00  0.00    +0.000 C 
ENDROOT
BRANCH   1   2
ATOM      2  O   UNL     1       8.326   3.960  17.300  0.00  0.00    +0.000 OA
ATOM      3  H   UNL     1       8.147   3.125  17.771  0.00  0.00    +0.000 HD
ENDBRANCH   1   2
BRANCH   1   4
ATOM      4  C   UNL     1       6.964   5.762  16.445  0.00  0.00    +0.000 C 
BRANCH   4   5
ATOM      5  O   UNL     1       7.732   5.328  15.317  0.00  0.00    +0.000 OA
BRANCH   5   6
ATOM      6  C   UNL     1       6.982   4.788  14.306  0.00  0.00    +0.000 A 
ATOM      7  C   UNL     1       5.632   4.587  14.597  0.00  0.00    +0.000 A 
ATOM      8  C   UNL     1       4.779   4.029  13.641  0.00  0.00    +0.000 A 
ATOM      9  C   UNL     1       5.263   3.680  12.372  0.00  0.00    +0.000 A 
ATOM     10  C   UNL     1       6.614   3.912  12.078  0.00  0.00    +0.000 A 
ATOM     11  C   UNL     1       7.466   4.465  13.038  0.00  0.00    +0.000 A 
BRANCH   9  12
ATOM     12  C   UNL     1       4.365   3.074  11.323  0.00  0.00    +0.000 C 
ATOM     13  F   UNL     1       4.844   1.913  10.797  0.00  0.00    +0.000 F 
ATOM     14  F   UNL     1       3.125   2.784  11.805  0.00  0.00    +0.000 F 
ATOM     15  F   UNL     1       4.167   3.908  10.264  0.00  0.00    +0.000 F 
ENDBRANCH   9  12
ENDBRANCH   5   6
ENDBRANCH   4   5
ENDBRANCH   1   4
BRANCH   1  16
ATOM     16  C   UNL     1       5.968   4.053  17.955  0.00  0.00    +0.000 C 
BRANCH  16  17
ATOM     17  N   UNL     1       5.269   4.375  19.213  0.00  0.00    +0.000 NA
ATOM     18  C   UNL     1       5.179   5.821  19.480  0.00  0.00    +0.000 C 
ATOM     19  C   UNL     1       4.138   6.579  18.614  0.00  0.00    +0.000 C 
ATOM     20  N   UNL     1       2.776   5.991  18.636  0.00  0.00    +0.000 NA
ATOM     21  C   UNL     1       2.894   4.551  18.320  0.00  0.00    +0.000 C 
ATOM     22  C   UNL     1       3.910   3.785  19.201  0.00  0.00    +0.000 C 
BRANCH  20  23
ATOM     23  C   UNL     1       2.157   6.239  19.954  0.00  0.00    +0.000 C 
BRANCH  23  24
ATOM     24  C   UNL     1       1.608   7.637  20.149  0.00  0.00    +0.000 A 
ATOM     25  C   UNL     1       1.596   8.539  19.073  0.00  0.00    +0.000 A 
ATOM     26  C   UNL     1       1.071   9.821  19.231  0.00  0.00    +0.000 A 
ATOM     27  C   UNL     1       0.552  10.208  20.464  0.00  0.00    +0.000 A 
ATOM     28 CL   UNL     1      -0.104  11.787  20.653  0.00  0.00    +0.000 Cl
ATOM     29  C   UNL     1       0.563   9.326  21.544  0.00  0.00    +0.000 A 
ATOM     30  C   UNL     1       1.088   8.040  21.386  0.00  0.00    +0.000 A 
ENDBRANCH  23  24
ENDBRANCH  20  23
ENDBRANCH  16  17
ENDBRANCH   1  16
TORSDOF 9
ENDMDL
MODEL 5
REMARK VINA RESULT:      -7.2      4.640      6.248
REMARK  Name = 
REMARK  9 active torsions:
REMARK  status: ('A' for Active; 'I' for Inactive)
REMARK    1  A    between atoms: O_1  and  C_2
REMARK    2  A    between atoms: C_2  and  C_3
REMARK    3  A    between atoms: C_2  and  C_15
REMARK    4  A    between atoms: C_3  and  O_4
REMARK    5  A    between atoms: O_4  and  C_5
REMARK    6  A    between atoms: C_8  and  C_9
REMARK    7  A    between atoms: C_15  and  N_16
REMARK    8  A    between atoms: N_19  and  C_20
REMARK    9  A    between atoms: C_20  and  C_21
REMARK                            x       y       z     vdW  Elec       q    Type
REMARK                         _______ _______ _______ _____ _____    ______ ____
ROOT
ATOM      1  C   UNL     1       2.258   3.268  21.289  0.00  0.00    +0.000 C 
ENDROOT
BRANCH   1   2
ATOM      2  O   UNL     1       0.875   2.900  21.288  0.00  0.00    +0.000 OA
ATOM      3  H   UNL     1       0.797   2.130  21.880  0.00  0.00    +0.000 HD
ENDBRANCH   1   2
BRANCH   1   4
ATOM      4  C   UNL     1       2.991   2.465  20.209  0.00  0.00    +0.000 C 
BRANCH   4   5
ATOM      5  O   UNL     1       4.365   2.866  20.170  0.00  0.00    +0.000 OA
BRANCH   5   6
ATOM      6  C   UNL     1       4.739   3.461  18.993  0.00  0.00    +0.000 A 
ATOM      7  C   UNL     1       4.028   3.060  17.862  0.00  0.00    +0.000 A 
ATOM      8  C   UNL     1       4.337   3.594  16.608  0.00  0.00    +0.000 A 
ATOM      9  C   UNL     1       5.352   4.551  16.472  0.00  0.00    +0.000 A 
ATOM     10  C   UNL     1       6.042   4.969  17.618  0.00  0.00    +0.000 A 
ATOM     11  C   UNL     1       5.736   4.430  18.871  0.00  0.00    +0.000 A 
BRANCH   9  12
ATOM     12  C   UNL     1       5.709   5.142  15.131  0.00  0.00    +0.000 C 
ATOM     13  F   UNL     1       7.048   5.254  14.921  0.00  0.00    +0.000 F 
ATOM     14  F   UNL     1       5.227   4.402  14.094  0.00  0.00    +0.000 F 
ATOM     15  F   UNL     1       5.198   6.394  14.963  0.00  0.00    +0.000 F 
ENDBRANCH   9  12
ENDBRANCH   5   6
ENDBRANCH   4   5
ENDBRANCH   1   4
BRANCH   1  16
ATOM     16  C   UNL     1       2.422   4.770  20.956  0.00  0.00    +0.000 C 
BRANCH  16  17
ATOM     17  N   UNL     1       1.388   5.386  20.104  0.00  0.00    +0.000 NA
ATOM     18  C   UNL     1       0.921   6.692  20.601  0.00  0.00    +0.000 C 
ATOM     19  C   UNL     1       1.914   7.865  20.382  0.00  0.00    +0.000 C 
ATOM     20  N   UNL     1       2.389   8.013  18.984  0.00  0.00    +0.000 NA
ATOM     21  C   UNL     1       2.893   6.699  18.529  0.00  0.00    +0.000 C 
ATOM     22  C   UNL     1       1.895   5.531  18.720  0.00  0.00    +0.000 C 
BRANCH  20  23
ATOM     23  C   UNL     1       1.288   8.525  18.143  0.00  0.00    +0.000 C 
BRANCH  23  24
ATOM     24  C   UNL     1       0.936   9.981  18.369  0.00  0.00    +0.000 A 
ATOM     25  C   UNL     1      -0.392  10.344  18.642  0.00  0.00    +0.000 A 
ATOM     26  C   UNL     1      -0.727  11.677  18.876  0.00  0.00    +0.000 A 
ATOM     27  C   UNL     1       0.264  12.655  18.842  0.00  0.00    +0.000 A 
ATOM     28 CL   UNL     1      -0.150  14.297  19.140  0.00  0.00    +0.000 Cl
ATOM     29  C   UNL     1       1.587  12.311  18.564  0.00  0.00    +0.000 A 
ATOM     30  C   UNL     1       1.924  10.974  18.330  0.00  0.00    +0.000 A 
ENDBRANCH  23  24
ENDBRANCH  20  23
ENDBRANCH  16  17
ENDBRANCH   1  16
TORSDOF 9
ENDMDL
MODEL 6
REMARK VINA RESULT:      -7.1      9.544     11.674
REMARK  Name = 
REMARK  9 active torsions:
REMARK  status: ('A' for Active; 'I' for Inactive)
REMARK    1  A    between atoms: O_1  and  C_2
REMARK    2  A    between atoms: C_2  and  C_3
REMARK    3  A    between atoms: C_2  and  C_15
REMARK    4  A    between atoms: C_3  and  O_4
REMARK    5  A    between atoms: O_4  and  C_5
REMARK    6  A    between atoms: C_8  and  C_9
REMARK    7  A    between atoms: C_15  and  N_16
REMARK    8  A    between atoms: N_19  and  C_20
REMARK    9  A    between atoms: C_20  and  C_21
REMARK                            x       y       z     vdW  Elec       q    Type
REMARK                         _______ _______ _______ _____ _____    ______ ____
ROOT
ATOM      1  C   UNL     1       7.716   8.127  18.182  0.00  0.00    +0.000 C 
ENDROOT
BRANCH   1   2
ATOM      2  O   UNL     1       8.760   7.743  19.084  0.00  0.00    +0.000 OA
ATOM      3  H   UNL     1       9.117   6.901  18.745  0.00  0.00    +0.000 HD
ENDBRANCH   1   2
BRANCH   1   4
ATOM      4  C   UNL     1       7.955   9.569  17.724  0.00  0.00    +0.000 C 
BRANCH   4   5
ATOM      5  O   UNL     1       9.335   9.904  17.911  0.00  0.00    +0.000 OA
BRANCH   5   6
ATOM      6  C   UNL     1       9.538  11.076  18.593  0.00  0.00    +0.000 A 
ATOM      7  C   UNL     1       9.345  11.011  19.973  0.00  0.00    +0.000 A 
ATOM      8  C   UNL     1       9.512  12.151  20.764  0.00  0.00    +0.000 A 
ATOM      9  C   UNL     1       9.891  13.370  20.184  0.00  0.00    +0.000 A 
ATOM     10  C   UNL     1      10.110  13.419  18.800  0.00  0.00    +0.000 A 
ATOM     11  C   UNL     1       9.938  12.279  18.011  0.00  0.00    +0.000 A 
BRANCH   9  12
ATOM     12  C   UNL     1      10.075  14.617  21.013  0.00  0.00    +0.000 C 
ATOM     13  F   UNL     1       9.934  14.411  22.350  0.00  0.00    +0.000 F 
ATOM     14  F   UNL     1      11.307  15.173  20.846  0.00  0.00    +0.000 F 
ATOM     15  F   UNL     1       9.180  15.592  20.689  0.00  0.00    +0.000 F 
ENDBRANCH   9  12
ENDBRANCH   5   6
ENDBRANCH   4   5
ENDBRANCH   1   4
BRANCH   1  16
ATOM     16  C   UNL     1       7.723   7.224  16.927  0.00  0.00    +0.000 C 
BRANCH  16  17
ATOM     17  N   UNL     1       7.392   5.800  17.121  0.00  0.00    +0.000 NA
ATOM     18  C   UNL     1       6.429   5.565  18.211  0.00  0.00    +0.000 C 
ATOM     19  C   UNL     1       4.962   5.943  17.877  0.00  0.00    +0.000 C 
ATOM     20  N   UNL     1       4.442   5.338  16.626  0.00  0.00    +0.000 NA
ATOM     21  C   UNL     1       5.405   5.629  15.541  0.00  0.00    +0.000 C 
ATOM     22  C   UNL     1       6.865   5.227  15.860  0.00  0.00    +0.000 C 
BRANCH  20  23
ATOM     23  C   UNL     1       4.233   3.890  16.831  0.00  0.00    +0.000 C 
BRANCH  23  24
ATOM     24  C   UNL     1       3.455   3.528  18.080  0.00  0.00    +0.000 A 
ATOM     25  C   UNL     1       4.111   2.907  19.155  0.00  0.00    +0.000 A 
ATOM     26  C   UNL     1       3.415   2.589  20.320  0.00  0.00    +0.000 A 
ATOM     27  C   UNL     1       2.059   2.895  20.419  0.00  0.00    +0.000 A 
ATOM     28 CL   UNL     1       1.204   2.511  21.861  0.00  0.00    +0.000 Cl
ATOM     29  C   UNL     1       1.392   3.505  19.358  0.00  0.00    +0.000 A 
ATOM     30  C   UNL     1       2.090   3.824  18.189  0.00  0.00    +0.000 A 
ENDBRANCH  23  24
ENDBRANCH  20  23
ENDBRANCH  16  17
ENDBRANCH   1  16
TORSDOF 9
ENDMDL
MODEL 7
REMARK VINA RESULT:      -7.0      1.039      1.589
REMARK  Name = 
REMARK  9 active torsions:
REMARK  status: ('A' for Active; 'I' for Inactive)
REMARK    1  A    between atoms: O_1  and  C_2
REMARK    2  A    between atoms: C_2  and  C_3
REMARK    3  A    between atoms: C_2  and  C_15
REMARK    4  A    between atoms: C_3  and  O_4
REMARK    5  A    between atoms: O_4  and  C_5
REMARK    6  A    between atoms: C_8  and  C_9
REMARK    7  A    between atoms: C_15  and  N_16
REMARK    8  A    between atoms: N_19  and  C_20
REMARK    9  A    between atoms: C_20  and  C_21
REMARK                            x       y       z     vdW  Elec       q    Type
REMARK                         _______ _______ _______ _____ _____    ______ ____
ROOT
ATOM      1  C   UNL     1       1.291   9.844  18.078  0.00  0.00    +0.000 C 
ENDROOT
BRANCH   1   2
ATOM      2  O   UNL     1       2.214  10.927  17.925  0.00  0.00    +0.000 OA
ATOM      3  H   UNL     1       2.518  10.898  17.000  0.00  0.00    +0.000 HD
ENDBRANCH   1   2
BRANCH   1   4
ATOM      4  C   UNL     1       1.988   8.534  17.694  0.00  0.00    +0.000 C 
BRANCH   4   5
ATOM      5  O   UNL     1       2.551   7.934  18.866  0.00  0.00    +0.000 OA
BRANCH   5   6
ATOM      6  C   UNL     1       2.339   6.583  18.957  0.00  0.00    +0.000 A 
ATOM      7  C   UNL     1       1.936   6.119  20.209  0.00  0.00    +0.000 A 
ATOM      8  C   UNL     1       1.706   4.756  20.417  0.00  0.00    +0.000 A 
ATOM      9  C   UNL     1       1.860   3.840  19.367  0.00  0.00    +0.000 A 
ATOM     10  C   UNL     1       2.238   4.319  18.104  0.00  0.00    +0.000 A 
ATOM     11  C   UNL     1       2.473   5.681  17.901  0.00  0.00    +0.000 A 
BRANCH   9  12
ATOM     12  C   UNL     1       1.621   2.364  19.563  0.00  0.00    +0.000 C 
ATOM     13  F   UNL     1       0.536   1.891  18.892  0.00  0.00    +0.000 F 
ATOM     14  F   UNL     1       2.676   1.609  19.150  0.00  0.00    +0.000 F 
ATOM     15  F   UNL     1       1.421   2.040  20.872  0.00  0.00    +0.000 F 
ENDBRANCH   9  12
ENDBRANCH   5   6
ENDBRANCH   4   5
ENDBRANCH   1   4
BRANCH   1  16
ATOM     16  C   UNL     1       0.834   9.723  19.551  0.00  0.00    +0.000 C 
BRANCH  16  17
ATOM     17  N   UNL     1       0.988  10.917  20.403  0.00  0.00    +0.000 NA
ATOM     18  C   UNL     1      -0.037  11.947  20.159  0.00  0.00    +0.000 C 
ATOM     19  C   UNL     1      -1.440  11.619  20.734  0.00  0.00    +0.000 C 
ATOM     20  N   UNL     1      -1.444  11.255  22.172  0.00  0.00    +0.000 NA
ATOM     21  C   UNL     1      -0.440  10.188  22.378  0.00  0.00    +0.000 C 
ATOM     22  C   UNL     1       0.969  10.523  21.831  0.00  0.00    +0.000 C 
BRANCH  20  23
ATOM     23  C   UNL     1      -1.173  12.459  22.984  0.00  0.00    +0.000 C 
BRANCH  23  24
ATOM     24  C   UNL     1      -2.389  13.307  23.294  0.00  0.00    +0.000 A 
ATOM     25  C   UNL     1      -2.226  14.644  23.689  0.00  0.00    +0.000 A 
ATOM     26  C   UNL     1      -3.337  15.444  23.955  0.00  0.00    +0.000 A 
ATOM     27  C   UNL     1      -4.618  14.912  23.824  0.00  0.00    +0.000 A 
ATOM     28 CL   UNL     1      -5.987  15.904  24.143  0.00  0.00    +0.000 Cl
ATOM     29  C   UNL     1      -4.796  13.584  23.440  0.00  0.00    +0.000 A 
ATOM     30  C   UNL     1      -3.683  12.782  23.172  0.00  0.00    +0.000 A 
ENDBRANCH  23  24
ENDBRANCH  20  23
ENDBRANCH  16  17
ENDBRANCH   1  16
TORSDOF 9
ENDMDL
MODEL 8
REMARK VINA RESULT:      -7.0      1.414      1.859
REMARK  Name = 
REMARK  9 active torsions:
REMARK  status: ('A' for Active; 'I' for Inactive)
REMARK    1  A    between atoms: O_1  and  C_2
REMARK    2  A    between atoms: C_2  and  C_3
REMARK    3  A    between atoms: C_2  and  C_15
REMARK    4  A    between atoms: C_3  and  O_4
REMARK    5  A    between atoms: O_4  and  C_5
REMARK    6  A    between atoms: C_8  and  C_9
REMARK    7  A    between atoms: C_15  and  N_16
REMARK    8  A    between atoms: N_19  and  C_20
REMARK    9  A    between atoms: C_20  and  C_21
REMARK                            x       y       z     vdW  Elec       q    Type
REMARK                         _______ _______ _______ _____ _____    ______ ____
ROOT
ATOM      1  C   UNL     1       1.648   9.667  17.803  0.00  0.00    +0.000 C 
ENDROOT
BRANCH   1   2
ATOM      2  O   UNL     1       2.416  10.730  17.230  0.00  0.00    +0.000 OA
ATOM      3  H   UNL     1       3.350  10.460  17.300  0.00  0.00    +0.000 HD
ENDBRANCH   1   2
BRANCH   1   4
ATOM      4  C   UNL     1       2.571   8.476  18.081  0.00  0.00    +0.000 C 
BRANCH   4   5
ATOM      5  O   UNL     1       2.144   7.814  19.278  0.00  0.00    +0.000 OA
BRANCH   5   6
ATOM      6  C   UNL     1       2.272   6.450  19.236  0.00  0.00    +0.000 A 
ATOM      7  C   UNL     1       2.390   5.894  17.962  0.00  0.00    +0.000 A 
ATOM      8  C   UNL     1       2.512   4.510  17.804  0.00  0.00    +0.000 A 
ATOM      9  C   UNL     1       2.534   3.665  18.923  0.00  0.00    +0.000 A 
ATOM     10  C   UNL     1       2.443   4.235  20.201  0.00  0.00    +0.000 A 
ATOM     11  C   UNL     1       2.316   5.618  20.356  0.00  0.00    +0.000 A 
BRANCH   9  12
ATOM     12  C   UNL     1       2.661   2.169  18.782  0.00  0.00    +0.000 C 
ATOM     13  F   UNL     1       2.736   1.745  17.491  0.00  0.00    +0.000 F 
ATOM     14  F   UNL     1       3.770   1.682  19.403  0.00  0.00    +0.000 F 
ATOM     15  F   UNL     1       1.605   1.505  19.331  0.00  0.00    +0.000 F 
ENDBRANCH   9  12
ENDBRANCH   5   6
ENDBRANCH   4   5
ENDBRANCH   1   4
BRANCH   1  16
ATOM     16  C   UNL     1       1.026  10.109  19.148  0.00  0.00    +0.000 C 
BRANCH  16  17
ATOM     17  N   UNL     1       0.090  11.248  19.115  0.00  0.00    +0.000 NA
ATOM     18  C   UNL     1      -1.090  11.064  19.978  0.00  0.00    +0.000 C 
ATOM     19  C   UNL     1      -0.817  11.230  21.496  0.00  0.00    +0.000 C 
ATOM     20  N   UNL     1      -0.135  12.495  21.863  0.00  0.00    +0.000 NA
ATOM     21  C   UNL     1       1.069  12.629  21.014  0.00  0.00    +0.000 C 
ATOM     22  C   UNL     1       0.797  12.493  19.496  0.00  0.00    +0.000 C 
BRANCH  20  23
ATOM     23  C   UNL     1      -1.075  13.623  21.705  0.00  0.00    +0.000 C 
BRANCH  23  24
ATOM     24  C   UNL     1      -2.435  13.414  22.339  0.00  0.00    +0.000 A 
ATOM     25  C   UNL     1      -3.580  13.353  21.529  0.00  0.00    +0.000 A 
ATOM     26  C   UNL     1      -4.836  13.136  22.095  0.00  0.00    +0.000 A 
ATOM     27  C   UNL     1      -4.954  12.977  23.474  0.00  0.00    +0.000 A 
ATOM     28 CL   UNL     1      -6.503  12.701  24.169  0.00  0.00    +0.000 Cl
ATOM     29  C   UNL     1      -3.827  13.043  24.292  0.00  0.00    +0.000 A 
ATOM     30  C   UNL     1      -2.567  13.258  23.725  0.00  0.00    +0.000 A 
ENDBRANCH  23  24
ENDBRANCH  20  23
ENDBRANCH  16  17
ENDBRANCH   1  16
TORSDOF 9
ENDMDL
MODEL 9
REMARK VINA RESULT:      -7.0      2.576      3.282
REMARK  Name = 
REMARK  9 active torsions:
REMARK  status: ('A' for Active; 'I' for Inactive)
REMARK    1  A    between atoms: O_1  and  C_2
REMARK    2  A    between atoms: C_2  and  C_3
REMARK    3  A    between atoms: C_2  and  C_15
REMARK    4  A    between atoms: C_3  and  O_4
REMARK    5  A    between atoms: O_4  and  C_5
REMARK    6  A    between atoms: C_8  and  C_9
REMARK    7  A    between atoms: C_15  and  N_16
REMARK    8  A    between atoms: N_19  and  C_20
REMARK    9  A    between atoms: C_20  and  C_21
REMARK                            x       y       z     vdW  Elec       q    Type
REMARK                         _______ _______ _______ _____ _____    ______ ____
ROOT
ATOM      1  C   UNL     1       0.737   9.801  18.647  0.00  0.00    +0.000 C 
ENDROOT
BRANCH   1   2
ATOM      2  O   UNL     1      -0.197   9.904  17.567  0.00  0.00    +0.000 OA
ATOM      3  H   UNL     1       0.040   9.201  16.934  0.00  0.00    +0.000 HD
ENDBRANCH   1   2
BRANCH   1   4
ATOM      4  C   UNL     1       2.007   9.105  18.147  0.00  0.00    +0.000 C 
BRANCH   4   5
ATOM      5  O   UNL     1       2.128   7.826  18.781  0.00  0.00    +0.000 OA
BRANCH   5   6
ATOM      6  C   UNL     1       2.927   6.942  18.105  0.00  0.00    +0.000 A 
ATOM      7  C   UNL     1       3.927   7.513  17.317  0.00  0.00    +0.000 A 
ATOM      8  C   UNL     1       4.790   6.702  16.574  0.00  0.00    +0.000 A 
ATOM      9  C   UNL     1       4.675   5.306  16.624  0.00  0.00    +0.000 A 
ATOM     10  C   UNL     1       3.686   4.740  17.441  0.00  0.00    +0.000 A 
ATOM     11  C   UNL     1       2.820   5.552  18.178  0.00  0.00    +0.000 A 
BRANCH   9  12
ATOM     12  C   UNL     1       5.590   4.408  15.831  0.00  0.00    +0.000 C 
ATOM     13  F   UNL     1       5.476   3.090  16.150  0.00  0.00    +0.000 F 
ATOM     14  F   UNL     1       5.364   4.491  14.491  0.00  0.00    +0.000 F 
ATOM     15  F   UNL     1       6.905   4.721  16.007  0.00  0.00    +0.000 F 
ENDBRANCH   9  12
ENDBRANCH   5   6
ENDBRANCH   4   5
ENDBRANCH   1   4
BRANCH   1  16
ATOM     16  C   UNL     1       1.136  11.206  19.156  0.00  0.00    +0.000 C 
BRANCH  16  17
ATOM     17  N   UNL     1       0.902  11.496  20.583  0.00  0.00    +0.000 NA
ATOM     18  C   UNL     1       0.987  12.930  20.912  0.00  0.00    +0.000 C 
ATOM     19  C   UNL     1      -0.233  13.775  20.458  0.00  0.00    +0.000 C 
ATOM     20  N   UNL     1      -1.546  13.246  20.904  0.00  0.00    +0.000 NA
ATOM     21  C   UNL     1      -1.620  11.819  20.520  0.00  0.00    +0.000 C 
ATOM     22  C   UNL     1      -0.419  10.967  20.995  0.00  0.00    +0.000 C 
BRANCH  20  23
ATOM     23  C   UNL     1      -1.690  13.455  22.359  0.00  0.00    +0.000 C 
BRANCH  23  24
ATOM     24  C   UNL     1      -3.114  13.414  22.873  0.00  0.00    +0.000 A 
ATOM     25  C   UNL     1      -4.090  14.239  22.290  0.00  0.00    +0.000 A 
ATOM     26  C   UNL     1      -5.411  14.195  22.735  0.00  0.00    +0.000 A 
ATOM     27  C   UNL     1      -5.764  13.325  23.764  0.00  0.00    +0.000 A 
ATOM     28 CL   UNL     1      -7.396  13.266  24.305  0.00  0.00    +0.000 Cl
ATOM     29  C   UNL     1      -4.805  12.505  24.358  0.00  0.00    +0.000 A 
ATOM     30  C   UNL     1      -3.481  12.548  23.911  0.00  0.00    +0.000 A 
ENDBRANCH  23  24
ENDBRANCH  20  23
ENDBRANCH  16  17
ENDBRANCH   1  16
TORSDOF 9
ENDMDL
