MODEL 1
REMARK VINA RESULT:      -6.7      0.000      0.000
REMARK  Name = 
REMARK  6 active torsions:
REMARK  status: ('A' for Active; 'I' for Inactive)
REMARK    1  A    between atoms: C_1  and  O_2
REMARK    2  A    between atoms: O_2  and  C_3
REMARK    3  A    between atoms: C_6  and  O_7
REMARK    4  A    between atoms: O_7  and  C_8
REMARK    5  A    between atoms: C_10  and  C_11
REMARK    6  A    between atoms: C_11  and  N_12
REMARK                            x       y       z     vdW  Elec       q    Type
REMARK                         _______ _______ _______ _____ _____    ______ ____
ROOT
ATOM      1  C   UNL     1       7.051   4.716  14.684  0.00  0.00    +0.000 A 
ATOM      2  C   UNL     1       6.196   3.837  14.029  0.00  0.00    +0.000 A 
ATOM      3  C   UNL     1       6.294   3.722  12.638  0.00  0.00    +0.000 A 
ATOM      4  C   UNL     1       7.238   4.513  11.973  0.00  0.00    +0.000 A 
ATOM      5  C   UNL     1       8.015   5.393  12.710  0.00  0.00    +0.000 A 
ATOM      6  N   UNL     1       7.936   5.519  14.049  0.00  0.00    +0.000 NA
ENDROOT
BRANCH   1   7
ATOM      7  O   UNL     1       6.965   4.754  16.070  0.00  0.00    +0.000 OA
BRANCH   7  11
ATOM      8  C   UNL     1       3.206   5.261  17.835  0.00  0.00    +0.000 A 
ATOM      9  C   UNL     1       3.731   3.991  17.581  0.00  0.00    +0.000 A 
ATOM     10  C   UNL     1       4.992   3.846  16.994  0.00  0.00    +0.000 A 
ATOM     11  C   UNL     1       5.725   4.976  16.631  0.00  0.00    +0.000 A 
ATOM     12  C   UNL     1       5.212   6.245  16.909  0.00  0.00    +0.000 A 
ATOM     13  C   UNL     1       3.949   6.389  17.489  0.00  0.00    +0.000 A 
BRANCH   8  15
ATOM     14  C   UNL     1       1.458   4.024  18.835  0.00  0.00    +0.000 C 
ATOM     15  O   UNL     1       1.955   5.280  18.387  0.00  0.00    +0.000 OA
ENDBRANCH   8  15
ENDBRANCH   7  11
ENDBRANCH   1   7
BRANCH   3  16
ATOM     16  C   UNL     1       5.453   2.734  11.877  0.00  0.00    +0.000 C 
BRANCH  16  17
ATOM     17  N   UNL     1       6.219   1.552  11.503  0.00  0.00    +0.000 NA
ATOM     18  H   UNL     1       7.158   1.630  11.891  0.00  0.00    +0.000 HD
ATOM     19  H   UNL     1       6.327   1.531  10.491  0.00  0.00    +0.000 HD
ENDBRANCH  16  17
ENDBRANCH   3  16
TORSDOF 5
ENDMDL
MODEL 2
REMARK VINA RESULT:      -6.6      3.905      6.740
REMARK  Name = 
REMARK  6 active torsions:
REMARK  status: ('A' for Active; 'I' for Inactive)
REMARK    1  A    between atoms: C_1  and  O_2
REMARK    2  A    between atoms: O_2  and  C_3
REMARK    3  A    between atoms: C_6  and  O_7
REMARK    4  A    between atoms: O_7  and  C_8
REMARK    5  A    between atoms: C_10  and  C_11
REMARK    6  A    between atoms: C_11  and  N_12
REMARK                            x       y       z     vdW  Elec       q    Type
REMARK                         _______ _______ _______ _____ _____    ______ ____
ROOT
ATOM      1  C   UNL     1       3.400   3.417  18.070  0.00  0.00    +0.000 A 
ATOM      2  C   UNL     1       3.457   3.530  19.455  0.00  0.00    +0.000 A 
ATOM      3  C   UNL     1       2.257   3.531  20.174  0.00  0.00    +0.000 A 
ATOM      4  C   UNL     1       1.057   3.437  19.461  0.00  0.00    +0.000 A 
ATOM      5  C   UNL     1       1.102   3.374  18.077  0.00  0.00    +0.000 A 
ATOM      6  N   UNL     1       2.246   3.372  17.365  0.00  0.00    +0.000 NA
ENDROOT
BRANCH   1   7
ATOM      7  O   UNL     1       4.615   3.356  17.399  0.00  0.00    +0.000 OA
BRANCH   7  11
ATOM      8  C   UNL     1       6.804   6.917  17.236  0.00  0.00    +0.000 A 
ATOM      9  C   UNL     1       5.560   6.793  16.612  0.00  0.00    +0.000 A 
ATOM     10  C   UNL     1       4.844   5.594  16.685  0.00  0.00    +0.000 A 
ATOM     11  C   UNL     1       5.385   4.499  17.360  0.00  0.00    +0.000 A 
ATOM     12  C   UNL     1       6.617   4.631  18.004  0.00  0.00    +0.000 A 
ATOM     13  C   UNL     1       7.334   5.828  17.925  0.00  0.00    +0.000 A 
BRANCH   8  15
ATOM     14  C   UNL     1       8.269   8.534  18.145  0.00  0.00    +0.000 C 
ATOM     15  O   UNL     1       7.424   8.126  17.076  0.00  0.00    +0.000 OA
ENDBRANCH   8  15
ENDBRANCH   7  11
ENDBRANCH   1   7
BRANCH   3  16
ATOM     16  C   UNL     1       2.250   3.571  21.678  0.00  0.00    +0.000 C 
BRANCH  16  17
ATOM     17  N   UNL     1       1.510   2.450  22.243  0.00  0.00    +0.000 NA
ATOM     18  H   UNL     1       0.692   2.269  21.664  0.00  0.00    +0.000 HD
ATOM     19  H   UNL     1       1.158   2.712  23.162  0.00  0.00    +0.000 HD
ENDBRANCH  16  17
ENDBRANCH   3  16
TORSDOF 5
ENDMDL
MODEL 3
REMARK VINA RESULT:      -6.6      2.025      3.267
REMARK  Name = 
REMARK  6 active torsions:
REMARK  status: ('A' for Active; 'I' for Inactive)
REMARK    1  A    between atoms: C_1  and  O_2
REMARK    2  A    between atoms: O_2  and  C_3
REMARK    3  A    between atoms: C_6  and  O_7
REMARK    4  A    between atoms: O_7  and  C_8
REMARK    5  A    between atoms: C_10  and  C_11
REMARK    6  A    between atoms: C_11  and  N_12
REMARK                            x       y       z     vdW  Elec       q    Type
REMARK                         _______ _______ _______ _____ _____    ______ ____
ROOT
ATOM      1  C   UNL     1       5.149   5.938  16.868  0.00  0.00    +0.000 A 
ATOM      2  C   UNL     1       5.326   5.669  15.516  0.00  0.00    +0.000 A 
ATOM      3  C   UNL     1       6.493   5.011  15.113  0.00  0.00    +0.000 A 
ATOM      4  C   UNL     1       7.434   4.674  16.093  0.00  0.00    +0.000 A 
ATOM      5  C   UNL     1       7.187   5.025  17.410  0.00  0.00    +0.000 A 
ATOM      6  N   UNL     1       6.070   5.658  17.819  0.00  0.00    +0.000 NA
ENDROOT
BRANCH   1   7
ATOM      7  O   UNL     1       3.948   6.534  17.233  0.00  0.00    +0.000 OA
BRANCH   7  11
ATOM      8  C   UNL     1       1.557   4.369  19.896  0.00  0.00    +0.000 A 
ATOM      9  C   UNL     1       1.854   3.885  18.619  0.00  0.00    +0.000 A 
ATOM     10  C   UNL     1       2.660   4.625  17.748  0.00  0.00    +0.000 A 
ATOM     11  C   UNL     1       3.150   5.870  18.141  0.00  0.00    +0.000 A 
ATOM     12  C   UNL     1       2.874   6.342  19.426  0.00  0.00    +0.000 A 
ATOM     13  C   UNL     1       2.063   5.604  20.294  0.00  0.00    +0.000 A 
BRANCH   8  15
ATOM     14  C   UNL     1       1.397   2.680  21.542  0.00  0.00    +0.000 C 
ATOM     15  O   UNL     1       0.739   3.572  20.650  0.00  0.00    +0.000 OA
ENDBRANCH   8  15
ENDBRANCH   7  11
ENDBRANCH   1   7
BRANCH   3  16
ATOM     16  C   UNL     1       6.712   4.621  13.677  0.00  0.00    +0.000 C 
BRANCH  16  17
ATOM     17  N   UNL     1       6.267   3.258  13.416  0.00  0.00    +0.000 NA
ATOM     18  H   UNL     1       6.547   2.994  12.472  0.00  0.00    +0.000 HD
ATOM     19  H   UNL     1       5.249   3.231  13.431  0.00  0.00    +0.000 HD
ENDBRANCH  16  17
ENDBRANCH   3  16
TORSDOF 5
ENDMDL
MODEL 4
REMARK VINA RESULT:      -6.6      1.063      1.801
REMARK  Name = 
REMARK  6 active torsions:
REMARK  status: ('A' for Active; 'I' for Inactive)
REMARK    1  A    between atoms: C_1  and  O_2
REMARK    2  A    between atoms: O_2  and  C_3
REMARK    3  A    between atoms: C_6  and  O_7
REMARK    4  A    between atoms: O_7  and  C_8
REMARK    5  A    between atoms: C_10  and  C_11
REMARK    6  A    between atoms: C_11  and  N_12
REMARK                            x       y       z     vdW  Elec       q    Type
REMARK                         _______ _______ _______ _____ _____    ______ ____
ROOT
ATOM      1  C   UNL     1       6.900   4.518  14.736  0.00  0.00    +0.000 A 
ATOM      2  C   UNL     1       6.098   3.659  13.992  0.00  0.00    +0.000 A 
ATOM      3  C   UNL     1       6.251   3.641  12.602  0.00  0.00    +0.000 A 
ATOM      4  C   UNL     1       7.191   4.504  12.027  0.00  0.00    +0.000 A 
ATOM      5  C   UNL     1       7.912   5.355  12.850  0.00  0.00    +0.000 A 
ATOM      6  N   UNL     1       7.780   5.388  14.191  0.00  0.00    +0.000 NA
ENDROOT
BRANCH   1   7
ATOM      7  O   UNL     1       6.762   4.459  16.118  0.00  0.00    +0.000 OA
BRANCH   7  11
ATOM      8  C   UNL     1       3.348   6.257  17.734  0.00  0.00    +0.000 A 
ATOM      9  C   UNL     1       4.457   7.011  17.342  0.00  0.00    +0.000 A 
ATOM     10  C   UNL     1       5.586   6.388  16.800  0.00  0.00    +0.000 A 
ATOM     11  C   UNL     1       5.621   4.999  16.673  0.00  0.00    +0.000 A 
ATOM     12  C   UNL     1       4.503   4.248  17.041  0.00  0.00    +0.000 A 
ATOM     13  C   UNL     1       3.378   4.871  17.589  0.00  0.00    +0.000 A 
BRANCH   8  15
ATOM     14  C   UNL     1       2.215   8.327  17.856  0.00  0.00    +0.000 C 
ATOM     15  O   UNL     1       2.314   6.971  18.274  0.00  0.00    +0.000 OA
ENDBRANCH   8  15
ENDBRANCH   7  11
ENDBRANCH   1   7
BRANCH   3  16
ATOM     16  C   UNL     1       5.471   2.681  11.745  0.00  0.00    +0.000 C 
BRANCH  16  17
ATOM     17  N   UNL     1       4.155   3.209  11.407  0.00  0.00    +0.000 NA
ATOM     18  H   UNL     1       3.866   3.864  12.132  0.00  0.00    +0.000 HD
ATOM     19  H   UNL     1       3.477   2.449  11.421  0.00  0.00    +0.000 HD
ENDBRANCH  16  17
ENDBRANCH   3  16
TORSDOF 5
ENDMDL
MODEL 5
REMARK VINA RESULT:      -6.6      2.088      3.518
REMARK  Name = 
REMARK  6 active torsions:
REMARK  status: ('A' for Active; 'I' for Inactive)
REMARK    1  A    between atoms: C_1  and  O_2
REMARK    2  A    between atoms: O_2  and  C_3
REMARK    3  A    between atoms: C_6  and  O_7
REMARK    4  A    between atoms: O_7  and  C_8
REMARK    5  A    between atoms: C_10  and  C_11
REMARK    6  A    between atoms: C_11  and  N_12
REMARK                            x       y       z     vdW  Elec       q    Type
REMARK                         _______ _______ _______ _____ _____    ______ ____
ROOT
ATOM      1  C   UNL     1       5.193   5.831  17.100  0.00  0.00    +0.000 A 
ATOM      2  C   UNL     1       5.367   5.618  15.737  0.00  0.00    +0.000 A 
ATOM      3  C   UNL     1       6.561   5.035  15.300  0.00  0.00    +0.000 A 
ATOM      4  C   UNL     1       7.530   4.713  16.256  0.00  0.00    +0.000 A 
ATOM      5  C   UNL     1       7.282   5.006  17.588  0.00  0.00    +0.000 A 
ATOM      6  N   UNL     1       6.140   5.567  18.030  0.00  0.00    +0.000 NA
ENDROOT
BRANCH   1   7
ATOM      7  O   UNL     1       3.969   6.353  17.499  0.00  0.00    +0.000 OA
BRANCH   7  11
ATOM      8  C   UNL     1       1.457   4.019  19.894  0.00  0.00    +0.000 A 
ATOM      9  C   UNL     1       2.294   4.994  20.443  0.00  0.00    +0.000 A 
ATOM     10  C   UNL     1       3.122   5.765  19.622  0.00  0.00    +0.000 A 
ATOM     11  C   UNL     1       3.137   5.545  18.244  0.00  0.00    +0.000 A 
ATOM     12  C   UNL     1       2.282   4.588  17.693  0.00  0.00    +0.000 A 
ATOM     13  C   UNL     1       1.460   3.813  18.516  0.00  0.00    +0.000 A 
BRANCH   8  15
ATOM     14  C   UNL     1       1.447   2.645  21.817  0.00  0.00    +0.000 C 
ATOM     15  O   UNL     1       0.712   3.309  20.796  0.00  0.00    +0.000 OA
ENDBRANCH   8  15
ENDBRANCH   7  11
ENDBRANCH   1   7
BRANCH   3  16
ATOM     16  C   UNL     1       6.780   4.705  13.848  0.00  0.00    +0.000 C 
BRANCH  16  17
ATOM     17  N   UNL     1       6.294   3.371  13.520  0.00  0.00    +0.000 NA
ATOM     18  H   UNL     1       6.587   2.724  14.251  0.00  0.00    +0.000 HD
ATOM     19  H   UNL     1       6.742   3.054  12.662  0.00  0.00    +0.000 HD
ENDBRANCH  16  17
ENDBRANCH   3  16
TORSDOF 5
ENDMDL
MODEL 6
REMARK VINA RESULT:      -6.6      4.058      6.665
REMARK  Name = 
REMARK  6 active torsions:
REMARK  status: ('A' for Active; 'I' for Inactive)
REMARK    1  A    between atoms: C_1  and  O_2
REMARK    2  A    between atoms: O_2  and  C_3
REMARK    3  A    between atoms: C_6  and  O_7
REMARK    4  A    between atoms: O_7  and  C_8
REMARK    5  A    between atoms: C_10  and  C_11
REMARK    6  A    between atoms: C_11  and  N_12
REMARK                            x       y       z     vdW  Elec       q    Type
REMARK                         _______ _______ _______ _____ _____    ______ ____
ROOT
ATOM      1  C   UNL     1       4.319   3.537  18.920  0.00  0.00    +0.000 A 
ATOM      2  C   UNL     1       3.481   4.349  19.677  0.00  0.00    +0.000 A 
ATOM      3  C   UNL     1       2.106   4.095  19.654  0.00  0.00    +0.000 A 
ATOM      4  C   UNL     1       1.639   3.047  18.852  0.00  0.00    +0.000 A 
ATOM      5  C   UNL     1       2.549   2.323  18.099  0.00  0.00    +0.000 A 
ATOM      6  N   UNL     1       3.877   2.551  18.107  0.00  0.00    +0.000 NA
ENDROOT
BRANCH   1   7
ATOM      7  O   UNL     1       5.682   3.782  19.021  0.00  0.00    +0.000 OA
BRANCH   7  11
ATOM      8  C   UNL     1       7.303   7.326  17.498  0.00  0.00    +0.000 A 
ATOM      9  C   UNL     1       7.880   6.664  18.585  0.00  0.00    +0.000 A 
ATOM     10  C   UNL     1       7.323   5.479  19.074  0.00  0.00    +0.000 A 
ATOM     11  C   UNL     1       6.164   4.961  18.493  0.00  0.00    +0.000 A 
ATOM     12  C   UNL     1       5.602   5.608  17.390  0.00  0.00    +0.000 A 
ATOM     13  C   UNL     1       6.157   6.797  16.907  0.00  0.00    +0.000 A 
BRANCH   8  15
ATOM     14  C   UNL     1       8.350   9.328  18.187  0.00  0.00    +0.000 C 
ATOM     15  O   UNL     1       7.918   8.488  17.124  0.00  0.00    +0.000 OA
ENDBRANCH   8  15
ENDBRANCH   7  11
ENDBRANCH   1   7
BRANCH   3  16
ATOM     16  C   UNL     1       1.153   4.885  20.509  0.00  0.00    +0.000 C 
BRANCH  16  17
ATOM     17  N   UNL     1       1.722   6.167  20.906  0.00  0.00    +0.000 NA
ATOM     18  H   UNL     1       2.601   6.305  20.409  0.00  0.00    +0.000 HD
ATOM     19  H   UNL     1       1.954   6.136  21.897  0.00  0.00    +0.000 HD
ENDBRANCH  16  17
ENDBRANCH   3  16
TORSDOF 5
ENDMDL
MODEL 7
REMARK VINA RESULT:      -6.5      3.536      6.781
REMARK  Name = 
REMARK  6 active torsions:
REMARK  status: ('A' for Active; 'I' for Inactive)
REMARK    1  A    between atoms: C_1  and  O_2
REMARK    2  A    between atoms: O_2  and  C_3
REMARK    3  A    between atoms: C_6  and  O_7
REMARK    4  A    between atoms: O_7  and  C_8
REMARK    5  A    between atoms: C_10  and  C_11
REMARK    6  A    between atoms: C_11  and  N_12
REMARK                            x       y       z     vdW  Elec       q    Type
REMARK                         _______ _______ _______ _____ _____    ______ ____
ROOT
ATOM      1  C   UNL     1       4.389   4.588  19.393  0.00  0.00    +0.000 A 
ATOM      2  C   UNL     1       3.641   3.523  19.884  0.00  0.00    +0.000 A 
ATOM      3  C   UNL     1       2.331   3.768  20.309  0.00  0.00    +0.000 A 
ATOM      4  C   UNL     1       1.844   5.078  20.235  0.00  0.00    +0.000 A 
ATOM      5  C   UNL     1       2.682   6.080  19.772  0.00  0.00    +0.000 A 
ATOM      6  N   UNL     1       3.946   5.866  19.358  0.00  0.00    +0.000 NA
ENDROOT
BRANCH   1   7
ATOM      7  O   UNL     1       5.662   4.292  18.923  0.00  0.00    +0.000 OA
BRANCH   7  11
ATOM      8  C   UNL     1       6.481   4.449  14.824  0.00  0.00    +0.000 A 
ATOM      9  C   UNL     1       7.453   4.765  15.778  0.00  0.00    +0.000 A 
ATOM     10  C   UNL     1       7.157   4.701  17.143  0.00  0.00    +0.000 A 
ATOM     11  C   UNL     1       5.874   4.346  17.562  0.00  0.00    +0.000 A 
ATOM     12  C   UNL     1       4.911   4.006  16.609  0.00  0.00    +0.000 A 
ATOM     13  C   UNL     1       5.206   4.077  15.245  0.00  0.00    +0.000 A 
BRANCH   8  15
ATOM     14  C   UNL     1       6.331   3.619  12.617  0.00  0.00    +0.000 C 
ATOM     15  O   UNL     1       6.876   4.572  13.520  0.00  0.00    +0.000 OA
ENDBRANCH   8  15
ENDBRANCH   7  11
ENDBRANCH   1   7
BRANCH   3  16
ATOM     16  C   UNL     1       1.443   2.648  20.778  0.00  0.00    +0.000 C 
BRANCH  16  17
ATOM     17  N   UNL     1       1.509   2.478  22.224  0.00  0.00    +0.000 NA
ATOM     18  H   UNL     1       0.600   2.167  22.562  0.00  0.00    +0.000 HD
ATOM     19  H   UNL     1       1.683   3.382  22.658  0.00  0.00    +0.000 HD
ENDBRANCH  16  17
ENDBRANCH   3  16
TORSDOF 5
ENDMDL
MODEL 8
REMARK VINA RESULT:      -6.5      3.155      6.379
REMARK  Name = 
REMARK  6 active torsions:
REMARK  status: ('A' for Active; 'I' for Inactive)
REMARK    1  A    between atoms: C_1  and  O_2
REMARK    2  A    between atoms: O_2  and  C_3
REMARK    3  A    between atoms: C_6  and  O_7
REMARK    4  A    between atoms: O_7  and  C_8
REMARK    5  A    between atoms: C_10  and  C_11
REMARK    6  A    between atoms: C_11  and  N_12
REMARK                            x       y       z     vdW  Elec       q    Type
REMARK                         _______ _______ _______ _____ _____    ______ ____
ROOT
ATOM      1  C   UNL     1       3.398   5.004  19.756  0.00  0.00    +0.000 A 
ATOM      2  C   UNL     1       3.491   3.722  19.225  0.00  0.00    +0.000 A 
ATOM      3  C   UNL     1       2.371   2.887  19.295  0.00  0.00    +0.000 A 
ATOM      4  C   UNL     1       1.216   3.379  19.913  0.00  0.00    +0.000 A 
ATOM      5  C   UNL     1       1.235   4.656  20.452  0.00  0.00    +0.000 A 
ATOM      6  N   UNL     1       2.303   5.475  20.396  0.00  0.00    +0.000 NA
ENDROOT
BRANCH   1   7
ATOM      7  O   UNL     1       4.511   5.822  19.610  0.00  0.00    +0.000 OA
BRANCH   7  11
ATOM      8  C   UNL     1       6.832   5.380  16.157  0.00  0.00    +0.000 A 
ATOM      9  C   UNL     1       5.587   6.015  16.127  0.00  0.00    +0.000 A 
ATOM     10  C   UNL     1       4.831   6.155  17.295  0.00  0.00    +0.000 A 
ATOM     11  C   UNL     1       5.306   5.633  18.499  0.00  0.00    +0.000 A 
ATOM     12  C   UNL     1       6.561   5.021  18.534  0.00  0.00    +0.000 A 
ATOM     13  C   UNL     1       7.313   4.876  17.364  0.00  0.00    +0.000 A 
BRANCH   8  15
ATOM     14  C   UNL     1       6.761   4.575  13.936  0.00  0.00    +0.000 C 
ATOM     15  O   UNL     1       7.469   5.279  14.951  0.00  0.00    +0.000 OA
ENDBRANCH   8  15
ENDBRANCH   7  11
ENDBRANCH   1   7
BRANCH   3  16
ATOM     16  C   UNL     1       2.380   1.518  18.672  0.00  0.00    +0.000 C 
BRANCH  16  17
ATOM     17  N   UNL     1       3.727   1.103  18.303  0.00  0.00    +0.000 NA
ATOM     18  H   UNL     1       3.835   0.111  18.507  0.00  0.00    +0.000 HD
ATOM     19  H   UNL     1       4.399   1.592  18.891  0.00  0.00    +0.000 HD
ENDBRANCH  16  17
ENDBRANCH   3  16
TORSDOF 5
ENDMDL
MODEL 9
REMARK VINA RESULT:      -6.5      3.143      6.367
REMARK  Name = 
REMARK  6 active torsions:
REMARK  status: ('A' for Active; 'I' for Inactive)
REMARK    1  A    between atoms: C_1  and  O_2
REMARK    2  A    between atoms: O_2  and  C_3
REMARK    3  A    between atoms: C_6  and  O_7
REMARK    4  A    between atoms: O_7  and  C_8
REMARK    5  A    between atoms: C_10  and  C_11
REMARK    6  A    between atoms: C_11  and  N_12
REMARK                            x       y       z     vdW  Elec       q    Type
REMARK                         _______ _______ _______ _____ _____    ______ ____
ROOT
ATOM      1  C   UNL     1       3.548   5.114  19.776  0.00  0.00    +0.000 A 
ATOM      2  C   UNL     1       3.405   3.807  19.324  0.00  0.00    +0.000 A 
ATOM      3  C   UNL     1       2.147   3.203  19.416  0.00  0.00    +0.000 A 
ATOM      4  C   UNL     1       1.098   3.940  19.977  0.00  0.00    +0.000 A 
ATOM      5  C   UNL     1       1.351   5.221  20.440  0.00  0.00    +0.000 A 
ATOM      6  N   UNL     1       2.555   5.821  20.361  0.00  0.00    +0.000 NA
ENDROOT
BRANCH   1   7
ATOM      7  O   UNL     1       4.798   5.698  19.608  0.00  0.00    +0.000 OA
BRANCH   7  11
ATOM      8  C   UNL     1       6.657   5.332  15.878  0.00  0.00    +0.000 A 
ATOM      9  C   UNL     1       7.202   4.753  17.028  0.00  0.00    +0.000 A 
ATOM     10  C   UNL     1       6.559   4.886  18.263  0.00  0.00    +0.000 A 
ATOM     11  C   UNL     1       5.379   5.624  18.360  0.00  0.00    +0.000 A 
ATOM     12  C   UNL     1       4.822   6.180  17.206  0.00  0.00    +0.000 A 
ATOM     13  C   UNL     1       5.468   6.053  15.973  0.00  0.00    +0.000 A 
BRANCH   8  15
ATOM     14  C   UNL     1       6.752   4.406  13.706  0.00  0.00    +0.000 C 
ATOM     15  O   UNL     1       7.385   5.159  14.733  0.00  0.00    +0.000 OA
ENDBRANCH   8  15
ENDBRANCH   7  11
ENDBRANCH   1   7
BRANCH   3  16
ATOM     16  C   UNL     1       1.905   1.820  18.875  0.00  0.00    +0.000 C 
BRANCH  16  17
ATOM     17  N   UNL     1       3.124   1.234  18.333  0.00  0.00    +0.000 NA
ATOM     18  H   UNL     1       3.439   1.798  17.545  0.00  0.00    +0.000 HD
ATOM     19  H   UNL     1       2.912   0.312  17.957  0.00  0.00    +0.000 HD
ENDBRANCH  16  17
ENDBRANCH   3  16
TORSDOF 5
ENDMDL
