MODEL 1
REMARK VINA RESULT:      -8.2      0.000      0.000
REMARK  Name = 
REMARK  6 active torsions:
REMARK  status: ('A' for Active; 'I' for Inactive)
REMARK    1  A    between atoms: C_2  and  C_17
REMARK    2  A    between atoms: N_3  and  C_4
REMARK    3  A    between atoms: C_4  and  C_5
REMARK    4  A    between atoms: C_4  and  C_12
REMARK    5  A    between atoms: N_20  and  C_21
REMARK    6  A    between atoms: C_21  and  C_22
REMARK                            x       y       z     vdW  Elec       q    Type
REMARK                         _______ _______ _______ _____ _____    ______ ____
ROOT
ATOM      1  O   UNL     1       6.038   4.728  20.118  0.00  0.00    +0.000 OA
ATOM      2  C   UNL     1       5.882   5.272  19.031  0.00  0.00    +0.000 C 
ATOM      3  N   UNL     1       4.685   5.836  18.651  0.00  0.00    +0.000 N 
ATOM      4  H   UNL     1       4.594   6.279  17.753  0.00  0.00    +0.000 HD
ENDROOT
BRANCH   2   5
ATOM      5  C   UNL     1       6.984   5.341  17.966  0.00  0.00    +0.000 C 
ATOM      6  C   UNL     1       8.285   5.925  18.532  0.00  0.00    +0.000 C 
ATOM      7  C   UNL     1       8.196   7.437  18.764  0.00  0.00    +0.000 C 
ATOM      8  N   UNL     1       7.812   8.156  17.537  0.00  0.00    +0.000 NA
ATOM      9  C   UNL     1       6.528   7.649  17.018  0.00  0.00    +0.000 C 
ATOM     10  C   UNL     1       6.568   6.147  16.732  0.00  0.00    +0.000 C 
BRANCH   8  11
ATOM     11  C   UNL     1       7.677   9.605  17.796  0.00  0.00    +0.000 C 
BRANCH  11  12
ATOM     12  C   UNL     1       8.898  10.275  18.395  0.00  0.00    +0.000 A 
ATOM     13  C   UNL     1       9.110  10.236  19.783  0.00  0.00    +0.000 A 
ATOM     14  C   UNL     1      10.177  10.926  20.362  0.00  0.00    +0.000 A 
ATOM     15  C   UNL     1      11.053  11.653  19.559  0.00  0.00    +0.000 A 
ATOM     16  C   UNL     1      10.870  11.670  18.177  0.00  0.00    +0.000 A 
ATOM     17 CL   UNL     1      11.969  12.551  17.186  0.00  0.00    +0.000 Cl
ATOM     18  C   UNL     1       9.800  10.991  17.593  0.00  0.00    +0.000 A 
ENDBRANCH  11  12
ENDBRANCH   8  11
ENDBRANCH   2   5
BRANCH   3  19
ATOM     19  C   UNL     1       3.531   5.831  19.526  0.00  0.00    +0.000 C 
BRANCH  19  20
ATOM     20  C   UNL     1       2.633   7.043  19.312  0.00  0.00    +0.000 A 
ATOM     21  C   UNL     1       1.887   7.628  20.354  0.00  0.00    +0.000 A 
ATOM     22  C   UNL     1       1.143   8.792  20.141  0.00  0.00    +0.000 A 
ATOM     23  C   UNL     1       1.114   9.375  18.879  0.00  0.00    +0.000 A 
ATOM     24 CL   UNL     1       0.219  10.821  18.625  0.00  0.00    +0.000 Cl
ATOM     25  C   UNL     1       1.814   8.796  17.823  0.00  0.00    +0.000 A 
ATOM     26  C   UNL     1       2.565   7.637  18.038  0.00  0.00    +0.000 A 
ENDBRANCH  19  20
BRANCH  19  27
ATOM     27  C   UNL     1       2.647   4.628  19.260  0.00  0.00    +0.000 A 
ATOM     28  C   UNL     1       1.541   4.168  20.063  0.00  0.00    +0.000 A 
ATOM     29  C   UNL     1       0.986   2.997  19.597  0.00  0.00    +0.000 A 
ATOM     30  S   UNL     1       1.742   2.458  18.166  0.00  0.00    +0.000 S 
ATOM     31  C   UNL     1       2.824   3.778  18.176  0.00  0.00    +0.000 A 
ENDBRANCH  19  27
ENDBRANCH   3  19
TORSDOF 6
ENDMDL
MODEL 2
REMARK VINA RESULT:      -8.2      0.501      1.127
REMARK  Name = 
REMARK  6 active torsions:
REMARK  status: ('A' for Active; 'I' for Inactive)
REMARK    1  A    between atoms: C_2  and  C_17
REMARK    2  A    between atoms: N_3  and  C_4
REMARK    3  A    between atoms: C_4  and  C_5
REMARK    4  A    between atoms: C_4  and  C_12
REMARK    5  A    between atoms: N_20  and  C_21
REMARK    6  A    between atoms: C_21  and  C_22
REMARK                            x       y       z     vdW  Elec       q    Type
REMARK                         _______ _______ _______ _____ _____    ______ ____
ROOT
ATOM      1  O   UNL     1       5.955   4.667  20.123  0.00  0.00    +0.000 OA
ATOM      2  C   UNL     1       5.879   5.244  19.045  0.00  0.00    +0.000 C 
ATOM      3  N   UNL     1       4.735   5.887  18.629  0.00  0.00    +0.000 N 
ATOM      4  H   UNL     1       4.710   6.355  17.739  0.00  0.00    +0.000 HD
ENDROOT
BRANCH   2   5
ATOM      5  C   UNL     1       7.029   5.272  18.029  0.00  0.00    +0.000 C 
ATOM      6  C   UNL     1       8.302   5.880  18.630  0.00  0.00    +0.000 C 
ATOM      7  C   UNL     1       8.203   7.400  18.796  0.00  0.00    +0.000 C 
ATOM      8  N   UNL     1       7.876   8.068  17.525  0.00  0.00    +0.000 NA
ATOM      9  C   UNL     1       6.617   7.538  16.969  0.00  0.00    +0.000 C 
ATOM     10  C   UNL     1       6.670   6.026  16.746  0.00  0.00    +0.000 C 
BRANCH   8  11
ATOM     11  C   UNL     1       7.730   9.527  17.718  0.00  0.00    +0.000 C 
BRANCH  11  12
ATOM     12  C   UNL     1       8.920  10.222  18.350  0.00  0.00    +0.000 A 
ATOM     13  C   UNL     1       9.108  10.166  19.741  0.00  0.00    +0.000 A 
ATOM     14  C   UNL     1      10.144  10.877  20.351  0.00  0.00    +0.000 A 
ATOM     15  C   UNL     1      11.014  11.642  19.575  0.00  0.00    +0.000 A 
ATOM     16  C   UNL     1      10.855  11.675  18.190  0.00  0.00    +0.000 A 
ATOM     17 CL   UNL     1      11.945  12.603  17.234  0.00  0.00    +0.000 Cl
ATOM     18  C   UNL     1       9.815  10.975  17.576  0.00  0.00    +0.000 A 
ENDBRANCH  11  12
ENDBRANCH   8  11
ENDBRANCH   2   5
BRANCH   3  19
ATOM     19  C   UNL     1       3.545   5.931  19.454  0.00  0.00    +0.000 C 
BRANCH  19  20
ATOM     20  C   UNL     1       2.733   7.201  19.236  0.00  0.00    +0.000 A 
ATOM     21  C   UNL     1       2.741   7.910  18.018  0.00  0.00    +0.000 A 
ATOM     22  C   UNL     1       1.916   9.021  17.825  0.00  0.00    +0.000 A 
ATOM     23  C   UNL     1       1.087   9.455  18.855  0.00  0.00    +0.000 A 
ATOM     24 CL   UNL     1       0.053  10.807  18.607  0.00  0.00    +0.000 Cl
ATOM     25  C   UNL     1       1.086   8.794  20.081  0.00  0.00    +0.000 A 
ATOM     26  C   UNL     1       1.905   7.677  20.270  0.00  0.00    +0.000 A 
ENDBRANCH  19  20
BRANCH  19  27
ATOM     27  C   UNL     1       2.603   4.792  19.117  0.00  0.00    +0.000 A 
ATOM     28  C   UNL     1       1.995   4.516  17.839  0.00  0.00    +0.000 A 
ATOM     29  C   UNL     1       1.123   3.451  17.875  0.00  0.00    +0.000 A 
ATOM     30  S   UNL     1       1.055   2.733  19.420  0.00  0.00    +0.000 S 
ATOM     31  C   UNL     1       2.178   3.855  20.049  0.00  0.00    +0.000 A 
ENDBRANCH  19  27
ENDBRANCH   3  19
TORSDOF 6
ENDMDL
MODEL 3
REMARK VINA RESULT:      -7.7      5.032      8.944
REMARK  Name = 
REMARK  6 active torsions:
REMARK  status: ('A' for Active; 'I' for Inactive)
REMARK    1  A    between atoms: C_2  and  C_17
REMARK    2  A    between atoms: N_3  and  C_4
REMARK    3  A    between atoms: C_4  and  C_5
REMARK    4  A    between atoms: C_4  and  C_12
REMARK    5  A    between atoms: N_20  and  C_21
REMARK    6  A    between atoms: C_21  and  C_22
REMARK                            x       y       z     vdW  Elec       q    Type
REMARK                         _______ _______ _______ _____ _____    ______ ____
ROOT
ATOM      1  O   UNL     1       1.592   8.507  20.072  0.00  0.00    +0.000 OA
ATOM      2  C   UNL     1       1.772   8.721  18.879  0.00  0.00    +0.000 C 
ATOM      3  N   UNL     1       2.653   7.987  18.120  0.00  0.00    +0.000 N 
ATOM      4  H   UNL     1       2.772   8.188  17.142  0.00  0.00    +0.000 HD
ENDROOT
BRANCH   2   5
ATOM      5  C   UNL     1       1.070   9.856  18.120  0.00  0.00    +0.000 C 
ATOM      6  C   UNL     1       1.711  11.218  18.414  0.00  0.00    +0.000 C 
ATOM      7  C   UNL     1       1.373  11.734  19.816  0.00  0.00    +0.000 C 
ATOM      8  N   UNL     1      -0.081  11.804  20.035  0.00  0.00    +0.000 NA
ATOM      9  C   UNL     1      -0.703  10.484  19.821  0.00  0.00    +0.000 C 
ATOM     10  C   UNL     1      -0.429   9.932  18.421  0.00  0.00    +0.000 C 
BRANCH   8  11
ATOM     11  C   UNL     1      -0.387  12.251  21.412  0.00  0.00    +0.000 C 
BRANCH  11  12
ATOM     12  C   UNL     1      -1.851  12.524  21.697  0.00  0.00    +0.000 A 
ATOM     13  C   UNL     1      -2.663  13.102  20.708  0.00  0.00    +0.000 A 
ATOM     14  C   UNL     1      -3.988  13.447  20.984  0.00  0.00    +0.000 A 
ATOM     15  C   UNL     1      -4.521  13.204  22.248  0.00  0.00    +0.000 A 
ATOM     16  C   UNL     1      -3.733  12.598  23.226  0.00  0.00    +0.000 A 
ATOM     17 CL   UNL     1      -4.403  12.280  24.779  0.00  0.00    +0.000 Cl
ATOM     18  C   UNL     1      -2.404  12.261  22.959  0.00  0.00    +0.000 A 
ENDBRANCH  11  12
ENDBRANCH   8  11
ENDBRANCH   2   5
BRANCH   3  19
ATOM     19  C   UNL     1       3.421   6.898  18.688  0.00  0.00    +0.000 C 
BRANCH  19  20
ATOM     20  C   UNL     1       2.603   5.621  18.832  0.00  0.00    +0.000 A 
ATOM     21  C   UNL     1       2.070   4.932  17.724  0.00  0.00    +0.000 A 
ATOM     22  C   UNL     1       1.400   3.716  17.888  0.00  0.00    +0.000 A 
ATOM     23  C   UNL     1       1.230   3.184  19.162  0.00  0.00    +0.000 A 
ATOM     24 CL   UNL     1       0.427   1.676  19.357  0.00  0.00    +0.000 Cl
ATOM     25  C   UNL     1       1.715   3.864  20.276  0.00  0.00    +0.000 A 
ATOM     26  C   UNL     1       2.394   5.075  20.112  0.00  0.00    +0.000 A 
ENDBRANCH  19  20
BRANCH  19  27
ATOM     27  C   UNL     1       4.588   6.525  17.794  0.00  0.00    +0.000 A 
ATOM     28  C   UNL     1       4.717   6.784  16.381  0.00  0.00    +0.000 A 
ATOM     29  C   UNL     1       5.864   6.250  15.837  0.00  0.00    +0.000 A 
ATOM     30  S   UNL     1       6.828   5.478  17.013  0.00  0.00    +0.000 S 
ATOM     31  C   UNL     1       5.706   5.839  18.248  0.00  0.00    +0.000 A 
ENDBRANCH  19  27
ENDBRANCH   3  19
TORSDOF 6
ENDMDL
MODEL 4
REMARK VINA RESULT:      -7.6      4.388      9.049
REMARK  Name = 
REMARK  6 active torsions:
REMARK  status: ('A' for Active; 'I' for Inactive)
REMARK    1  A    between atoms: C_2  and  C_17
REMARK    2  A    between atoms: N_3  and  C_4
REMARK    3  A    between atoms: C_4  and  C_5
REMARK    4  A    between atoms: C_4  and  C_12
REMARK    5  A    between atoms: N_20  and  C_21
REMARK    6  A    between atoms: C_21  and  C_22
REMARK                            x       y       z     vdW  Elec       q    Type
REMARK                         _______ _______ _______ _____ _____    ______ ____
ROOT
ATOM      1  O   UNL     1       2.140   8.785  17.379  0.00  0.00    +0.000 OA
ATOM      2  C   UNL     1       2.065   8.563  18.582  0.00  0.00    +0.000 C 
ATOM      3  N   UNL     1       2.189   7.298  19.110  0.00  0.00    +0.000 N 
ATOM      4  H   UNL     1       2.127   7.153  20.103  0.00  0.00    +0.000 HD
ENDROOT
BRANCH   2   5
ATOM      5  C   UNL     1       1.781   9.659  19.617  0.00  0.00    +0.000 C 
ATOM      6  C   UNL     1       0.501   9.372  20.412  0.00  0.00    +0.000 C 
ATOM      7  C   UNL     1      -0.767   9.605  19.585  0.00  0.00    +0.000 C 
ATOM      8  N   UNL     1      -0.813  10.968  19.029  0.00  0.00    +0.000 NA
ATOM      9  C   UNL     1       0.382  11.235  18.207  0.00  0.00    +0.000 C 
ATOM     10  C   UNL     1       1.682  11.053  18.992  0.00  0.00    +0.000 C 
BRANCH   8  11
ATOM     11  C   UNL     1      -2.016  11.155  18.189  0.00  0.00    +0.000 C 
BRANCH  11  12
ATOM     12  C   UNL     1      -3.196  11.811  18.878  0.00  0.00    +0.000 A 
ATOM     13  C   UNL     1      -2.993  12.584  20.033  0.00  0.00    +0.000 A 
ATOM     14  C   UNL     1      -4.077  13.118  20.735  0.00  0.00    +0.000 A 
ATOM     15  C   UNL     1      -5.376  12.897  20.281  0.00  0.00    +0.000 A 
ATOM     16  C   UNL     1      -5.584  12.160  19.116  0.00  0.00    +0.000 A 
ATOM     17 CL   UNL     1      -7.190  11.908  18.548  0.00  0.00    +0.000 Cl
ATOM     18  C   UNL     1      -4.506  11.615  18.417  0.00  0.00    +0.000 A 
ENDBRANCH  11  12
ENDBRANCH   8  11
ENDBRANCH   2   5
BRANCH   3  19
ATOM     19  C   UNL     1       2.430   6.144  18.268  0.00  0.00    +0.000 C 
BRANCH  19  20
ATOM     20  C   UNL     1       3.908   5.788  18.176  0.00  0.00    +0.000 A 
ATOM     21  C   UNL     1       4.701   5.538  19.314  0.00  0.00    +0.000 A 
ATOM     22  C   UNL     1       6.032   5.128  19.188  0.00  0.00    +0.000 A 
ATOM     23  C   UNL     1       6.596   4.984  17.925  0.00  0.00    +0.000 A 
ATOM     24 CL   UNL     1       8.225   4.455  17.772  0.00  0.00    +0.000 Cl
ATOM     25  C   UNL     1       5.844   5.260  16.786  0.00  0.00    +0.000 A 
ATOM     26  C   UNL     1       4.511   5.661  16.911  0.00  0.00    +0.000 A 
ENDBRANCH  19  20
BRANCH  19  27
ATOM     27  C   UNL     1       1.755   4.907  18.829  0.00  0.00    +0.000 A 
ATOM     28  C   UNL     1       1.321   4.695  20.188  0.00  0.00    +0.000 A 
ATOM     29  C   UNL     1       0.813   3.432  20.402  0.00  0.00    +0.000 A 
ATOM     30  S   UNL     1       0.799   2.500  18.974  0.00  0.00    +0.000 S 
ATOM     31  C   UNL     1       1.489   3.775  18.071  0.00  0.00    +0.000 A 
ENDBRANCH  19  27
ENDBRANCH   3  19
TORSDOF 6
ENDMDL
MODEL 5
REMARK VINA RESULT:      -7.6      1.056      1.340
REMARK  Name = 
REMARK  6 active torsions:
REMARK  status: ('A' for Active; 'I' for Inactive)
REMARK    1  A    between atoms: C_2  and  C_17
REMARK    2  A    between atoms: N_3  and  C_4
REMARK    3  A    between atoms: C_4  and  C_5
REMARK    4  A    between atoms: C_4  and  C_12
REMARK    5  A    between atoms: N_20  and  C_21
REMARK    6  A    between atoms: C_21  and  C_22
REMARK                            x       y       z     vdW  Elec       q    Type
REMARK                         _______ _______ _______ _____ _____    ______ ____
ROOT
ATOM      1  O   UNL     1       6.302   4.931  20.253  0.00  0.00    +0.000 OA
ATOM      2  C   UNL     1       6.179   5.351  19.108  0.00  0.00    +0.000 C 
ATOM      3  N   UNL     1       4.962   5.717  18.580  0.00  0.00    +0.000 N 
ATOM      4  H   UNL     1       4.900   6.062  17.638  0.00  0.00    +0.000 HD
ENDROOT
BRANCH   2   5
ATOM      5  C   UNL     1       7.357   5.469  18.132  0.00  0.00    +0.000 C 
ATOM      6  C   UNL     1       8.566   6.156  18.781  0.00  0.00    +0.000 C 
ATOM      7  C   UNL     1       8.358   7.663  18.958  0.00  0.00    +0.000 C 
ATOM      8  N   UNL     1       8.027   8.322  17.683  0.00  0.00    +0.000 NA
ATOM      9  C   UNL     1       6.826   7.714  17.080  0.00  0.00    +0.000 C 
ATOM     10  C   UNL     1       6.989   6.211  16.845  0.00  0.00    +0.000 C 
BRANCH   8  11
ATOM     11  C   UNL     1       7.774   9.765  17.884  0.00  0.00    +0.000 C 
BRANCH  11  12
ATOM     12  C   UNL     1       8.924  10.548  18.487  0.00  0.00    +0.000 A 
ATOM     13  C   UNL     1      10.105  10.739  17.751  0.00  0.00    +0.000 A 
ATOM     14  C   UNL     1      11.209  11.376  18.324  0.00  0.00    +0.000 A 
ATOM     15  C   UNL     1      11.139  11.843  19.635  0.00  0.00    +0.000 A 
ATOM     16  C   UNL     1       9.959  11.688  20.361  0.00  0.00    +0.000 A 
ATOM     17 CL   UNL     1       9.870  12.286  21.973  0.00  0.00    +0.000 Cl
ATOM     18  C   UNL     1       8.856  11.043  19.798  0.00  0.00    +0.000 A 
ENDBRANCH  11  12
ENDBRANCH   8  11
ENDBRANCH   2   5
BRANCH   3  19
ATOM     19  C   UNL     1       3.742   5.639  19.358  0.00  0.00    +0.000 C 
BRANCH  19  20
ATOM     20  C   UNL     1       2.853   6.862  19.171  0.00  0.00    +0.000 A 
ATOM     21  C   UNL     1       2.074   7.400  20.214  0.00  0.00    +0.000 A 
ATOM     22  C   UNL     1       1.339   8.575  20.030  0.00  0.00    +0.000 A 
ATOM     23  C   UNL     1       1.353   9.215  18.796  0.00  0.00    +0.000 A 
ATOM     24 CL   UNL     1       0.468  10.674  18.580  0.00  0.00    +0.000 Cl
ATOM     25  C   UNL     1       2.086   8.683  17.738  0.00  0.00    +0.000 A 
ATOM     26  C   UNL     1       2.828   7.514  17.924  0.00  0.00    +0.000 A 
ENDBRANCH  19  20
BRANCH  19  27
ATOM     27  C   UNL     1       2.893   4.459  18.927  0.00  0.00    +0.000 A 
ATOM     28  C   UNL     1       1.533   4.179  19.317  0.00  0.00    +0.000 A 
ATOM     29  C   UNL     1       1.064   2.984  18.817  0.00  0.00    +0.000 A 
ATOM     30  S   UNL     1       2.220   2.204  17.835  0.00  0.00    +0.000 S 
ATOM     31  C   UNL     1       3.357   3.453  18.090  0.00  0.00    +0.000 A 
ENDBRANCH  19  27
ENDBRANCH   3  19
TORSDOF 6
ENDMDL
MODEL 6
REMARK VINA RESULT:      -7.5      4.085      8.465
REMARK  Name = 
REMARK  6 active torsions:
REMARK  status: ('A' for Active; 'I' for Inactive)
REMARK    1  A    between atoms: C_2  and  C_17
REMARK    2  A    between atoms: N_3  and  C_4
REMARK    3  A    between atoms: C_4  and  C_5
REMARK    4  A    between atoms: C_4  and  C_12
REMARK    5  A    between atoms: N_20  and  C_21
REMARK    6  A    between atoms: C_21  and  C_22
REMARK                            x       y       z     vdW  Elec       q    Type
REMARK                         _______ _______ _______ _____ _____    ______ ____
ROOT
ATOM      1  O   UNL     1       1.547   8.781  19.186  0.00  0.00    +0.000 OA
ATOM      2  C   UNL     1       1.548   8.227  20.279  0.00  0.00    +0.000 C 
ATOM      3  N   UNL     1       1.768   6.876  20.423  0.00  0.00    +0.000 N 
ATOM      4  H   UNL     1       1.767   6.456  21.336  0.00  0.00    +0.000 HD
ENDROOT
BRANCH   2   5
ATOM      5  C   UNL     1       1.260   8.968  21.591  0.00  0.00    +0.000 C 
ATOM      6  C   UNL     1      -0.238   8.976  21.923  0.00  0.00    +0.000 C 
ATOM      7  C   UNL     1      -1.032   9.931  21.025  0.00  0.00    +0.000 C 
ATOM      8  N   UNL     1      -0.497  11.301  21.079  0.00  0.00    +0.000 NA
ATOM      9  C   UNL     1       0.928  11.319  20.698  0.00  0.00    +0.000 C 
ATOM     10  C   UNL     1       1.779  10.408  21.585  0.00  0.00    +0.000 C 
BRANCH   8  11
ATOM     11  C   UNL     1      -1.240  12.195  20.165  0.00  0.00    +0.000 C 
BRANCH  11  12
ATOM     12  C   UNL     1      -1.997  11.499  19.050  0.00  0.00    +0.000 A 
ATOM     13  C   UNL     1      -1.313  10.664  18.152  0.00  0.00    +0.000 A 
ATOM     14  C   UNL     1      -1.976  10.090  17.064  0.00  0.00    +0.000 A 
ATOM     15  C   UNL     1      -3.334  10.334  16.869  0.00  0.00    +0.000 A 
ATOM     16  C   UNL     1      -4.029  11.135  17.776  0.00  0.00    +0.000 A 
ATOM     17 CL   UNL     1      -5.711  11.416  17.543  0.00  0.00    +0.000 Cl
ATOM     18  C   UNL     1      -3.370  11.720  18.859  0.00  0.00    +0.000 A 
ENDBRANCH  11  12
ENDBRANCH   8  11
ENDBRANCH   2   5
BRANCH   3  19
ATOM     19  C   UNL     1       2.026   6.022  19.282  0.00  0.00    +0.000 C 
BRANCH  19  20
ATOM     20  C   UNL     1       3.485   6.059  18.845  0.00  0.00    +0.000 A 
ATOM     21  C   UNL     1       4.503   5.377  19.540  0.00  0.00    +0.000 A 
ATOM     22  C   UNL     1       5.816   5.360  19.060  0.00  0.00    +0.000 A 
ATOM     23  C   UNL     1       6.135   6.046  17.893  0.00  0.00    +0.000 A 
ATOM     24 CL   UNL     1       7.746   6.003  17.290  0.00  0.00    +0.000 Cl
ATOM     25  C   UNL     1       5.155   6.758  17.207  0.00  0.00    +0.000 A 
ATOM     26  C   UNL     1       3.840   6.766  17.681  0.00  0.00    +0.000 A 
ENDBRANCH  19  20
BRANCH  19  27
ATOM     27  C   UNL     1       1.744   4.569  19.611  0.00  0.00    +0.000 A 
ATOM     28  C   UNL     1       1.575   3.992  20.921  0.00  0.00    +0.000 A 
ATOM     29  C   UNL     1       1.408   2.625  20.891  0.00  0.00    +0.000 A 
ATOM     30  S   UNL     1       1.399   2.018  19.297  0.00  0.00    +0.000 S 
ATOM     31  C   UNL     1       1.637   3.577  18.645  0.00  0.00    +0.000 A 
ENDBRANCH  19  27
ENDBRANCH   3  19
TORSDOF 6
ENDMDL
MODEL 7
REMARK VINA RESULT:      -7.4      4.936      8.608
REMARK  Name = 
REMARK  6 active torsions:
REMARK  status: ('A' for Active; 'I' for Inactive)
REMARK    1  A    between atoms: C_2  and  C_17
REMARK    2  A    between atoms: N_3  and  C_4
REMARK    3  A    between atoms: C_4  and  C_5
REMARK    4  A    between atoms: C_4  and  C_12
REMARK    5  A    between atoms: N_20  and  C_21
REMARK    6  A    between atoms: C_21  and  C_22
REMARK                            x       y       z     vdW  Elec       q    Type
REMARK                         _______ _______ _______ _____ _____    ______ ____
ROOT
ATOM      1  O   UNL     1       1.674   8.451  19.953  0.00  0.00    +0.000 OA
ATOM      2  C   UNL     1       1.857   8.655  18.759  0.00  0.00    +0.000 C 
ATOM      3  N   UNL     1       2.760   7.932  18.014  0.00  0.00    +0.000 N 
ATOM      4  H   UNL     1       2.881   8.123  17.035  0.00  0.00    +0.000 HD
ENDROOT
BRANCH   2   5
ATOM      5  C   UNL     1       1.136   9.765  17.982  0.00  0.00    +0.000 C 
ATOM      6  C   UNL     1       1.881  11.102  18.078  0.00  0.00    +0.000 C 
ATOM      7  C   UNL     1       1.734  11.756  19.456  0.00  0.00    +0.000 C 
ATOM      8  N   UNL     1       0.321  11.937  19.827  0.00  0.00    +0.000 NA
ATOM      9  C   UNL     1      -0.393  10.647  19.803  0.00  0.00    +0.000 C 
ATOM     10  C   UNL     1      -0.312   9.963  18.437  0.00  0.00    +0.000 C 
BRANCH   8  11
ATOM     11  C   UNL     1       0.201  12.517  21.183  0.00  0.00    +0.000 C 
BRANCH  11  12
ATOM     12  C   UNL     1      -1.214  12.651  21.710  0.00  0.00    +0.000 A 
ATOM     13  C   UNL     1      -1.573  12.037  22.921  0.00  0.00    +0.000 A 
ATOM     14  C   UNL     1      -2.894  12.071  23.374  0.00  0.00    +0.000 A 
ATOM     15  C   UNL     1      -3.869  12.731  22.628  0.00  0.00    +0.000 A 
ATOM     16  C   UNL     1      -3.514  13.372  21.442  0.00  0.00    +0.000 A 
ATOM     17 CL   UNL     1      -4.718  14.205  20.536  0.00  0.00    +0.000 Cl
ATOM     18  C   UNL     1      -2.198  13.333  20.978  0.00  0.00    +0.000 A 
ENDBRANCH  11  12
ENDBRANCH   8  11
ENDBRANCH   2   5
BRANCH   3  19
ATOM     19  C   UNL     1       3.548   6.867  18.600  0.00  0.00    +0.000 C 
BRANCH  19  20
ATOM     20  C   UNL     1       2.740   5.591  18.806  0.00  0.00    +0.000 A 
ATOM     21  C   UNL     1       2.020   4.972  17.766  0.00  0.00    +0.000 A 
ATOM     22  C   UNL     1       1.363   3.755  17.970  0.00  0.00    +0.000 A 
ATOM     23  C   UNL     1       1.396   3.152  19.223  0.00  0.00    +0.000 A 
ATOM     24 CL   UNL     1       0.609   1.642  19.465  0.00  0.00    +0.000 Cl
ATOM     25  C   UNL     1       2.071   3.761  20.277  0.00  0.00    +0.000 A 
ATOM     26  C   UNL     1       2.736   4.973  20.071  0.00  0.00    +0.000 A 
ENDBRANCH  19  20
BRANCH  19  27
ATOM     27  C   UNL     1       4.695   6.470  17.692  0.00  0.00    +0.000 A 
ATOM     28  C   UNL     1       4.776   6.655  16.264  0.00  0.00    +0.000 A 
ATOM     29  C   UNL     1       5.918   6.116  15.714  0.00  0.00    +0.000 A 
ATOM     30  S   UNL     1       6.933   5.427  16.899  0.00  0.00    +0.000 S 
ATOM     31  C   UNL     1       5.841   5.832  18.147  0.00  0.00    +0.000 A 
ENDBRANCH  19  27
ENDBRANCH   3  19
TORSDOF 6
ENDMDL
MODEL 8
REMARK VINA RESULT:      -7.3      3.782      7.931
REMARK  Name = 
REMARK  6 active torsions:
REMARK  status: ('A' for Active; 'I' for Inactive)
REMARK    1  A    between atoms: C_2  and  C_17
REMARK    2  A    between atoms: N_3  and  C_4
REMARK    3  A    between atoms: C_4  and  C_5
REMARK    4  A    between atoms: C_4  and  C_12
REMARK    5  A    between atoms: N_20  and  C_21
REMARK    6  A    between atoms: C_21  and  C_22
REMARK                            x       y       z     vdW  Elec       q    Type
REMARK                         _______ _______ _______ _____ _____    ______ ____
ROOT
ATOM      1  O   UNL     1       4.745   2.931  18.971  0.00  0.00    +0.000 OA
ATOM      2  C   UNL     1       4.039   3.553  18.186  0.00  0.00    +0.000 C 
ATOM      3  N   UNL     1       4.552   4.211  17.092  0.00  0.00    +0.000 N 
ATOM      4  H   UNL     1       3.943   4.709  16.465  0.00  0.00    +0.000 HD
ENDROOT
BRANCH   2   5
ATOM      5  C   UNL     1       2.522   3.703  18.364  0.00  0.00    +0.000 C 
ATOM      6  C   UNL     1       1.983   4.937  17.630  0.00  0.00    +0.000 C 
ATOM      7  C   UNL     1       2.354   6.246  18.335  0.00  0.00    +0.000 C 
ATOM      8  N   UNL     1       1.905   6.257  19.738  0.00  0.00    +0.000 NA
ATOM      9  C   UNL     1       2.471   5.110  20.474  0.00  0.00    +0.000 C 
ATOM     10  C   UNL     1       2.102   3.770  19.835  0.00  0.00    +0.000 C 
BRANCH   8  11
ATOM     11  C   UNL     1       2.321   7.504  20.416  0.00  0.00    +0.000 C 
BRANCH  11  12
ATOM     12  C   UNL     1       1.270   8.594  20.475  0.00  0.00    +0.000 A 
ATOM     13  C   UNL     1       0.951   9.325  19.319  0.00  0.00    +0.000 A 
ATOM     14  C   UNL     1       0.054  10.395  19.375  0.00  0.00    +0.000 A 
ATOM     15  C   UNL     1      -0.546  10.737  20.586  0.00  0.00    +0.000 A 
ATOM     16  C   UNL     1      -0.262   9.994  21.731  0.00  0.00    +0.000 A 
ATOM     17 CL   UNL     1      -1.023  10.406  23.219  0.00  0.00    +0.000 Cl
ATOM     18  C   UNL     1       0.641   8.931  21.683  0.00  0.00    +0.000 A 
ENDBRANCH  11  12
ENDBRANCH   8  11
ENDBRANCH   2   5
BRANCH   3  19
ATOM     19  C   UNL     1       5.970   4.198  16.793  0.00  0.00    +0.000 C 
BRANCH  19  20
ATOM     20  C   UNL     1       6.250   4.260  15.296  0.00  0.00    +0.000 A 
ATOM     21  C   UNL     1       7.353   4.953  14.759  0.00  0.00    +0.000 A 
ATOM     22  C   UNL     1       7.629   4.915  13.389  0.00  0.00    +0.000 A 
ATOM     23  C   UNL     1       6.792   4.206  12.533  0.00  0.00    +0.000 A 
ATOM     24 CL   UNL     1       7.148   4.140  10.852  0.00  0.00    +0.000 Cl
ATOM     25  C   UNL     1       5.675   3.543  13.035  0.00  0.00    +0.000 A 
ATOM     26  C   UNL     1       5.405   3.572  14.406  0.00  0.00    +0.000 A 
ENDBRANCH  19  20
BRANCH  19  27
ATOM     27  C   UNL     1       6.665   5.410  17.380  0.00  0.00    +0.000 A 
ATOM     28  C   UNL     1       7.614   5.426  18.466  0.00  0.00    +0.000 A 
ATOM     29  C   UNL     1       8.008   6.698  18.820  0.00  0.00    +0.000 A 
ATOM     30  S   UNL     1       7.292   7.887  17.828  0.00  0.00    +0.000 S 
ATOM     31  C   UNL     1       6.440   6.706  16.936  0.00  0.00    +0.000 A 
ENDBRANCH  19  27
ENDBRANCH   3  19
TORSDOF 6
ENDMDL
MODEL 9
REMARK VINA RESULT:      -7.3      3.620      7.791
REMARK  Name = 
REMARK  6 active torsions:
REMARK  status: ('A' for Active; 'I' for Inactive)
REMARK    1  A    between atoms: C_2  and  C_17
REMARK    2  A    between atoms: N_3  and  C_4
REMARK    3  A    between atoms: C_4  and  C_5
REMARK    4  A    between atoms: C_4  and  C_12
REMARK    5  A    between atoms: N_20  and  C_21
REMARK    6  A    between atoms: C_21  and  C_22
REMARK                            x       y       z     vdW  Elec       q    Type
REMARK                         _______ _______ _______ _____ _____    ______ ____
ROOT
ATOM      1  O   UNL     1       5.044   2.977  19.420  0.00  0.00    +0.000 OA
ATOM      2  C   UNL     1       4.286   3.631  18.713  0.00  0.00    +0.000 C 
ATOM      3  N   UNL     1       4.726   4.354  17.628  0.00  0.00    +0.000 N 
ATOM      4  H   UNL     1       4.075   4.876  17.067  0.00  0.00    +0.000 HD
ENDROOT
BRANCH   2   5
ATOM      5  C   UNL     1       2.781   3.749  18.989  0.00  0.00    +0.000 C 
ATOM      6  C   UNL     1       2.055   4.499  17.864  0.00  0.00    +0.000 C 
ATOM      7  C   UNL     1       2.337   6.005  17.887  0.00  0.00    +0.000 C 
ATOM      8  N   UNL     1       2.003   6.603  19.190  0.00  0.00    +0.000 NA
ATOM      9  C   UNL     1       2.746   5.935  20.275  0.00  0.00    +0.000 C 
ATOM     10  C   UNL     1       2.474   4.430  20.325  0.00  0.00    +0.000 C 
BRANCH   8  11
ATOM     11  C   UNL     1       2.335   8.044  19.210  0.00  0.00    +0.000 C 
BRANCH  11  12
ATOM     12  C   UNL     1       1.247   8.955  19.744  0.00  0.00    +0.000 A 
ATOM     13  C   UNL     1       0.610   9.866  18.886  0.00  0.00    +0.000 A 
ATOM     14  C   UNL     1      -0.327  10.776  19.380  0.00  0.00    +0.000 A 
ATOM     15  C   UNL     1      -0.649  10.777  20.736  0.00  0.00    +0.000 A 
ATOM     16  C   UNL     1      -0.047   9.853  21.589  0.00  0.00    +0.000 A 
ATOM     17 CL   UNL     1      -0.464   9.843  23.259  0.00  0.00    +0.000 Cl
ATOM     18  C   UNL     1       0.898   8.947  21.104  0.00  0.00    +0.000 A 
ENDBRANCH  11  12
ENDBRANCH   8  11
ENDBRANCH   2   5
BRANCH   3  19
ATOM     19  C   UNL     1       6.123   4.377  17.246  0.00  0.00    +0.000 C 
BRANCH  19  20
ATOM     20  C   UNL     1       6.317   4.251  15.740  0.00  0.00    +0.000 A 
ATOM     21  C   UNL     1       5.379   3.612  14.904  0.00  0.00    +0.000 A 
ATOM     22  C   UNL     1       5.547   3.593  13.517  0.00  0.00    +0.000 A 
ATOM     23  C   UNL     1       6.666   4.190  12.946  0.00  0.00    +0.000 A 
ATOM     24 CL   UNL     1       6.858   4.187  11.237  0.00  0.00    +0.000 Cl
ATOM     25  C   UNL     1       7.626   4.796  13.753  0.00  0.00    +0.000 A 
ATOM     26  C   UNL     1       7.453   4.824  15.139  0.00  0.00    +0.000 A 
ENDBRANCH  19  20
BRANCH  19  27
ATOM     27  C   UNL     1       6.773   5.694  17.623  0.00  0.00    +0.000 A 
ATOM     28  C   UNL     1       7.826   5.898  18.586  0.00  0.00    +0.000 A 
ATOM     29  C   UNL     1       8.148   7.226  18.761  0.00  0.00    +0.000 A 
ATOM     30  S   UNL     1       7.234   8.243  17.741  0.00  0.00    +0.000 S 
ATOM     31  C   UNL     1       6.394   6.913  17.077  0.00  0.00    +0.000 A 
ENDBRANCH  19  27
ENDBRANCH   3  19
TORSDOF 6
ENDMDL
