MODEL 1
REMARK VINA RESULT:      -6.5      0.000      0.000
REMARK  Name = 
REMARK  9 active torsions:
REMARK  status: ('A' for Active; 'I' for Inactive)
REMARK    1  A    between atoms: C_1  and  O_2
REMARK    2  A    between atoms: O_2  and  C_3
REMARK    3  A    between atoms: C_6  and  O_7
REMARK    4  A    between atoms: O_7  and  C_8
REMARK    5  A    between atoms: C_8  and  C_9
REMARK    6  A    between atoms: C_9  and  O_10
REMARK    7  A    between atoms: C_9  and  C_11
REMARK    8  A    between atoms: C_11  and  N_12
REMARK    9  A    between atoms: C_13  and  C_15
REMARK                            x       y       z     vdW  Elec       q    Type
REMARK                         _______ _______ _______ _____ _____    ______ ____
ROOT
ATOM      1  C   UNL     1       2.526   2.441  19.871  0.00  0.00    +0.000 C 
ENDROOT
BRANCH   1   2
ATOM      2  O   UNL     1       2.222   1.679  18.689  0.00  0.00    +0.000 OA
ATOM      3  H   UNL     1       1.249   1.597  18.660  0.00  0.00    +0.000 HD
ENDBRANCH   1   2
BRANCH   1   4
ATOM      4  C   UNL     1       1.767   3.773  19.836  0.00  0.00    +0.000 C 
BRANCH   4   5
ATOM      5  O   UNL     1       2.629   4.810  20.325  0.00  0.00    +0.000 OA
BRANCH   5   9
ATOM      6  C   UNL     1       1.936   8.515  18.537  0.00  0.00    +0.000 A 
ATOM      7  C   UNL     1       2.519   7.457  17.842  0.00  0.00    +0.000 A 
ATOM      8  C   UNL     1       2.733   6.228  18.472  0.00  0.00    +0.000 A 
ATOM      9  C   UNL     1       2.400   6.058  19.817  0.00  0.00    +0.000 A 
ATOM     10  C   UNL     1       1.831   7.121  20.518  0.00  0.00    +0.000 A 
ATOM     11  C   UNL     1       1.602   8.348  19.880  0.00  0.00    +0.000 A 
BRANCH   6  13
ATOM     12  C   UNL     1       1.459  10.830  18.575  0.00  0.00    +0.000 C 
ATOM     13  O   UNL     1       1.768   9.666  17.818  0.00  0.00    +0.000 OA
ENDBRANCH   6  13
ENDBRANCH   5   9
ENDBRANCH   4   5
ENDBRANCH   1   4
BRANCH   1  14
ATOM     14  C   UNL     1       4.044   2.629  19.965  0.00  0.00    +0.000 C 
BRANCH  14  15
ATOM     15  N   UNL     1       4.585   3.010  18.673  0.00  0.00    +0.000 N 
ATOM     16  C   UNL     1       5.469   4.052  18.505  0.00  0.00    +0.000 C 
ATOM     17  O   UNL     1       5.921   4.670  19.466  0.00  0.00    +0.000 OA
ATOM     18  H   UNL     1       4.149   2.613  17.848  0.00  0.00    +0.000 HD
BRANCH  16  19
ATOM     19  C   UNL     1       5.828   4.360  17.124  0.00  0.00    +0.000 A 
ATOM     20  C   UNL     1       4.975   4.385  16.035  0.00  0.00    +0.000 A 
ATOM     21  C   UNL     1       5.636   4.739  14.824  0.00  0.00    +0.000 A 
ATOM     22  C   UNL     1       6.979   4.968  15.023  0.00  0.00    +0.000 A 
ATOM     23  S   UNL     1       7.430   4.757  16.658  0.00  0.00    +0.000 S 
ENDBRANCH  16  19
ENDBRANCH  14  15
ENDBRANCH   1  14
TORSDOF 8
ENDMDL
MODEL 2
REMARK VINA RESULT:      -6.3      1.398      1.975
REMARK  Name = 
REMARK  9 active torsions:
REMARK  status: ('A' for Active; 'I' for Inactive)
REMARK    1  A    between atoms: C_1  and  O_2
REMARK    2  A    between atoms: O_2  and  C_3
REMARK    3  A    between atoms: C_6  and  O_7
REMARK    4  A    between atoms: O_7  and  C_8
REMARK    5  A    between atoms: C_8  and  C_9
REMARK    6  A    between atoms: C_9  and  O_10
REMARK    7  A    between atoms: C_9  and  C_11
REMARK    8  A    between atoms: C_11  and  N_12
REMARK    9  A    between atoms: C_13  and  C_15
REMARK                            x       y       z     vdW  Elec       q    Type
REMARK                         _______ _______ _______ _____ _____    ______ ____
ROOT
ATOM      1  C   UNL     1       2.437   3.342  21.092  0.00  0.00    +0.000 C 
ENDROOT
BRANCH   1   2
ATOM      2  O   UNL     1       1.569   2.574  21.944  0.00  0.00    +0.000 OA
ATOM      3  H   UNL     1       1.274   1.808  21.415  0.00  0.00    +0.000 HD
ENDBRANCH   1   2
BRANCH   1   4
ATOM      4  C   UNL     1       1.806   4.711  20.813  0.00  0.00    +0.000 C 
BRANCH   4   5
ATOM      5  O   UNL     1       2.803   5.574  20.248  0.00  0.00    +0.000 OA
BRANCH   5   9
ATOM      6  C   UNL     1       1.377   9.235  18.842  0.00  0.00    +0.000 A 
ATOM      7  C   UNL     1       1.191   8.827  20.163  0.00  0.00    +0.000 A 
ATOM      8  C   UNL     1       1.686   7.596  20.600  0.00  0.00    +0.000 A 
ATOM      9  C   UNL     1       2.339   6.742  19.710  0.00  0.00    +0.000 A 
ATOM     10  C   UNL     1       2.511   7.142  18.385  0.00  0.00    +0.000 A 
ATOM     11  C   UNL     1       2.029   8.384  17.951  0.00  0.00    +0.000 A 
BRANCH   6  13
ATOM     12  C   UNL     1      -0.542  10.492  18.274  0.00  0.00    +0.000 C 
ATOM     13  O   UNL     1       0.857  10.460  18.530  0.00  0.00    +0.000 OA
ENDBRANCH   6  13
ENDBRANCH   5   9
ENDBRANCH   4   5
ENDBRANCH   1   4
BRANCH   1  14
ATOM     14  C   UNL     1       2.709   2.546  19.812  0.00  0.00    +0.000 C 
BRANCH  14  15
ATOM     15  N   UNL     1       3.834   3.118  19.093  0.00  0.00    +0.000 N 
ATOM     16  C   UNL     1       3.739   3.598  17.807  0.00  0.00    +0.000 C 
ATOM     17  O   UNL     1       2.661   3.651  17.220  0.00  0.00    +0.000 OA
ATOM     18  H   UNL     1       4.758   2.981  19.487  0.00  0.00    +0.000 HD
BRANCH  16  19
ATOM     19  C   UNL     1       4.993   4.040  17.203  0.00  0.00    +0.000 A 
ATOM     20  C   UNL     1       5.338   3.962  15.865  0.00  0.00    +0.000 A 
ATOM     21  C   UNL     1       6.631   4.496  15.596  0.00  0.00    +0.000 A 
ATOM     22  C   UNL     1       7.240   4.961  16.740  0.00  0.00    +0.000 A 
ATOM     23  S   UNL     1       6.254   4.753  18.121  0.00  0.00    +0.000 S 
ENDBRANCH  16  19
ENDBRANCH  14  15
ENDBRANCH   1  14
TORSDOF 8
ENDMDL
MODEL 3
REMARK VINA RESULT:      -6.2      3.710      7.075
REMARK  Name = 
REMARK  9 active torsions:
REMARK  status: ('A' for Active; 'I' for Inactive)
REMARK    1  A    between atoms: C_1  and  O_2
REMARK    2  A    between atoms: O_2  and  C_3
REMARK    3  A    between atoms: C_6  and  O_7
REMARK    4  A    between atoms: O_7  and  C_8
REMARK    5  A    between atoms: C_8  and  C_9
REMARK    6  A    between atoms: C_9  and  O_10
REMARK    7  A    between atoms: C_9  and  C_11
REMARK    8  A    between atoms: C_11  and  N_12
REMARK    9  A    between atoms: C_13  and  C_15
REMARK                            x       y       z     vdW  Elec       q    Type
REMARK                         _______ _______ _______ _____ _____    ______ ____
ROOT
ATOM      1  C   UNL     1       6.764   4.727  17.395  0.00  0.00    +0.000 C 
ENDROOT
BRANCH   1   2
ATOM      2  O   UNL     1       8.178   4.465  17.454  0.00  0.00    +0.000 OA
ATOM      3  H   UNL     1       8.272   3.501  17.581  0.00  0.00    +0.000 HD
ENDBRANCH   1   2
BRANCH   1   4
ATOM      4  C   UNL     1       6.496   5.892  16.435  0.00  0.00    +0.000 C 
BRANCH   4   5
ATOM      5  O   UNL     1       7.395   5.792  15.322  0.00  0.00    +0.000 OA
BRANCH   5   9
ATOM      6  C   UNL     1       5.888   3.364  12.282  0.00  0.00    +0.000 A 
ATOM      7  C   UNL     1       5.201   3.561  13.479  0.00  0.00    +0.000 A 
ATOM      8  C   UNL     1       5.735   4.385  14.474  0.00  0.00    +0.000 A 
ATOM      9  C   UNL     1       6.980   4.989  14.297  0.00  0.00    +0.000 A 
ATOM     10  C   UNL     1       7.676   4.780  13.106  0.00  0.00    +0.000 A 
ATOM     11  C   UNL     1       7.132   3.967  12.102  0.00  0.00    +0.000 A 
BRANCH   6  13
ATOM     12  C   UNL     1       5.872   1.273  11.180  0.00  0.00    +0.000 C 
ATOM     13  O   UNL     1       5.268   2.545  11.380  0.00  0.00    +0.000 OA
ENDBRANCH   6  13
ENDBRANCH   5   9
ENDBRANCH   4   5
ENDBRANCH   1   4
BRANCH   1  14
ATOM     14  C   UNL     1       6.249   4.999  18.812  0.00  0.00    +0.000 C 
BRANCH  14  15
ATOM     15  N   UNL     1       4.844   4.650  18.913  0.00  0.00    +0.000 N 
ATOM     16  C   UNL     1       4.397   3.488  19.500  0.00  0.00    +0.000 C 
ATOM     17  O   UNL     1       5.171   2.713  20.057  0.00  0.00    +0.000 OA
ATOM     18  H   UNL     1       4.187   5.193  18.363  0.00  0.00    +0.000 HD
BRANCH  16  19
ATOM     19  C   UNL     1       2.959   3.251  19.420  0.00  0.00    +0.000 A 
ATOM     20  C   UNL     1       2.063   3.245  20.473  0.00  0.00    +0.000 A 
ATOM     21  C   UNL     1       0.723   2.997  20.057  0.00  0.00    +0.000 A 
ATOM     22  C   UNL     1       0.637   2.813  18.695  0.00  0.00    +0.000 A 
ATOM     23  S   UNL     1       2.161   2.941  17.933  0.00  0.00    +0.000 S 
ENDBRANCH  16  19
ENDBRANCH  14  15
ENDBRANCH   1  14
TORSDOF 8
ENDMDL
MODEL 4
REMARK VINA RESULT:      -6.2      2.364      4.445
REMARK  Name = 
REMARK  9 active torsions:
REMARK  status: ('A' for Active; 'I' for Inactive)
REMARK    1  A    between atoms: C_1  and  O_2
REMARK    2  A    between atoms: O_2  and  C_3
REMARK    3  A    between atoms: C_6  and  O_7
REMARK    4  A    between atoms: O_7  and  C_8
REMARK    5  A    between atoms: C_8  and  C_9
REMARK    6  A    between atoms: C_9  and  O_10
REMARK    7  A    between atoms: C_9  and  C_11
REMARK    8  A    between atoms: C_11  and  N_12
REMARK    9  A    between atoms: C_13  and  C_15
REMARK                            x       y       z     vdW  Elec       q    Type
REMARK                         _______ _______ _______ _____ _____    ______ ____
ROOT
ATOM      1  C   UNL     1       5.147   6.172  16.409  0.00  0.00    +0.000 C 
ENDROOT
BRANCH   1   2
ATOM      2  O   UNL     1       6.511   6.554  16.151  0.00  0.00    +0.000 OA
ATOM      3  H   UNL     1       6.952   6.598  17.022  0.00  0.00    +0.000 HD
ENDBRANCH   1   2
BRANCH   1   4
ATOM      4  C   UNL     1       4.572   7.043  17.532  0.00  0.00    +0.000 C 
BRANCH   4   5
ATOM      5  O   UNL     1       3.171   7.238  17.294  0.00  0.00    +0.000 OA
BRANCH   5   9
ATOM      6  C   UNL     1       0.911   9.171  20.221  0.00  0.00    +0.000 A 
ATOM      7  C   UNL     1       1.036   9.680  18.929  0.00  0.00    +0.000 A 
ATOM      8  C   UNL     1       1.798   9.003  17.973  0.00  0.00    +0.000 A 
ATOM      9  C   UNL     1       2.475   7.831  18.311  0.00  0.00    +0.000 A 
ATOM     10  C   UNL     1       2.363   7.329  19.609  0.00  0.00    +0.000 A 
ATOM     11  C   UNL     1       1.585   8.000  20.562  0.00  0.00    +0.000 A 
BRANCH   6  13
ATOM     12  C   UNL     1       0.218   9.567  22.446  0.00  0.00    +0.000 C 
ATOM     13  O   UNL     1       0.135   9.913  21.068  0.00  0.00    +0.000 OA
ENDBRANCH   6  13
ENDBRANCH   5   9
ENDBRANCH   4   5
ENDBRANCH   1   4
BRANCH   1  14
ATOM     14  C   UNL     1       5.103   4.677  16.741  0.00  0.00    +0.000 C 
BRANCH  14  15
ATOM     15  N   UNL     1       4.012   4.396  17.657  0.00  0.00    +0.000 N 
ATOM     16  C   UNL     1       4.200   3.845  18.904  0.00  0.00    +0.000 C 
ATOM     17  O   UNL     1       5.326   3.638  19.351  0.00  0.00    +0.000 OA
ATOM     18  H   UNL     1       3.069   4.434  17.286  0.00  0.00    +0.000 HD
BRANCH  16  19
ATOM     19  C   UNL     1       2.983   3.534  19.648  0.00  0.00    +0.000 A 
ATOM     20  C   UNL     1       1.686   3.827  19.268  0.00  0.00    +0.000 A 
ATOM     21  C   UNL     1       0.718   3.374  20.211  0.00  0.00    +0.000 A 
ATOM     22  C   UNL     1       1.308   2.752  21.289  0.00  0.00    +0.000 A 
ATOM     23  S   UNL     1       3.011   2.718  21.157  0.00  0.00    +0.000 S 
ENDBRANCH  16  19
ENDBRANCH  14  15
ENDBRANCH   1  14
TORSDOF 8
ENDMDL
MODEL 5
REMARK VINA RESULT:      -6.2      1.617      2.205
REMARK  Name = 
REMARK  9 active torsions:
REMARK  status: ('A' for Active; 'I' for Inactive)
REMARK    1  A    between atoms: C_1  and  O_2
REMARK    2  A    between atoms: O_2  and  C_3
REMARK    3  A    between atoms: C_6  and  O_7
REMARK    4  A    between atoms: O_7  and  C_8
REMARK    5  A    between atoms: C_8  and  C_9
REMARK    6  A    between atoms: C_9  and  O_10
REMARK    7  A    between atoms: C_9  and  C_11
REMARK    8  A    between atoms: C_11  and  N_12
REMARK    9  A    between atoms: C_13  and  C_15
REMARK                            x       y       z     vdW  Elec       q    Type
REMARK                         _______ _______ _______ _____ _____    ______ ____
ROOT
ATOM      1  C   UNL     1       1.699   3.899  19.873  0.00  0.00    +0.000 C 
ENDROOT
BRANCH   1   2
ATOM      2  O   UNL     1       0.685   3.057  20.450  0.00  0.00    +0.000 OA
ATOM      3  H   UNL     1       1.133   2.514  21.128  0.00  0.00    +0.000 HD
ENDBRANCH   1   2
BRANCH   1   4
ATOM      4  C   UNL     1       1.648   5.287  20.522  0.00  0.00    +0.000 C 
BRANCH   4   5
ATOM      5  O   UNL     1       2.615   6.132  19.884  0.00  0.00    +0.000 OA
BRANCH   5   9
ATOM      6  C   UNL     1       1.205   9.930  18.884  0.00  0.00    +0.000 A 
ATOM      7  C   UNL     1       1.014   9.380  20.152  0.00  0.00    +0.000 A 
ATOM      8  C   UNL     1       1.504   8.107  20.452  0.00  0.00    +0.000 A 
ATOM      9  C   UNL     1       2.156   7.353  19.475  0.00  0.00    +0.000 A 
ATOM     10  C   UNL     1       2.334   7.896  18.202  0.00  0.00    +0.000 A 
ATOM     11  C   UNL     1       1.856   9.180  17.907  0.00  0.00    +0.000 A 
BRANCH   6  13
ATOM     12  C   UNL     1      -0.235  11.619  19.697  0.00  0.00    +0.000 C 
ATOM     13  O   UNL     1       0.690  11.184  18.707  0.00  0.00    +0.000 OA
ENDBRANCH   6  13
ENDBRANCH   5   9
ENDBRANCH   4   5
ENDBRANCH   1   4
BRANCH   1  14
ATOM     14  C   UNL     1       1.500   3.949  18.355  0.00  0.00    +0.000 C 
BRANCH  14  15
ATOM     15  N   UNL     1       2.733   4.344  17.698  0.00  0.00    +0.000 N 
ATOM     16  C   UNL     1       3.767   3.469  17.452  0.00  0.00    +0.000 C 
ATOM     17  O   UNL     1       3.667   2.270  17.701  0.00  0.00    +0.000 OA
ATOM     18  H   UNL     1       2.908   5.336  17.589  0.00  0.00    +0.000 HD
BRANCH  16  19
ATOM     19  C   UNL     1       4.972   4.061  16.877  0.00  0.00    +0.000 A 
ATOM     20  C   UNL     1       5.264   4.197  15.532  0.00  0.00    +0.000 A 
ATOM     21  C   UNL     1       6.518   4.833  15.300  0.00  0.00    +0.000 A 
ATOM     22  C   UNL     1       7.150   5.159  16.479  0.00  0.00    +0.000 A 
ATOM     23  S   UNL     1       6.234   4.700  17.847  0.00  0.00    +0.000 S 
ENDBRANCH  16  19
ENDBRANCH  14  15
ENDBRANCH   1  14
TORSDOF 8
ENDMDL
MODEL 6
REMARK VINA RESULT:      -6.2      3.330      6.775
REMARK  Name = 
REMARK  9 active torsions:
REMARK  status: ('A' for Active; 'I' for Inactive)
REMARK    1  A    between atoms: C_1  and  O_2
REMARK    2  A    between atoms: O_2  and  C_3
REMARK    3  A    between atoms: C_6  and  O_7
REMARK    4  A    between atoms: O_7  and  C_8
REMARK    5  A    between atoms: C_8  and  C_9
REMARK    6  A    between atoms: C_9  and  O_10
REMARK    7  A    between atoms: C_9  and  C_11
REMARK    8  A    between atoms: C_11  and  N_12
REMARK    9  A    between atoms: C_13  and  C_15
REMARK                            x       y       z     vdW  Elec       q    Type
REMARK                         _______ _______ _______ _____ _____    ______ ____
ROOT
ATOM      1  C   UNL     1       7.526   6.088  18.042  0.00  0.00    +0.000 C 
ENDROOT
BRANCH   1   2
ATOM      2  O   UNL     1       6.781   7.225  17.569  0.00  0.00    +0.000 OA
ATOM      3  H   UNL     1       7.143   8.003  18.036  0.00  0.00    +0.000 HD
ENDBRANCH   1   2
BRANCH   1   4
ATOM      4  C   UNL     1       7.546   4.999  16.964  0.00  0.00    +0.000 C 
BRANCH   4   5
ATOM      5  O   UNL     1       7.517   5.625  15.673  0.00  0.00    +0.000 OA
BRANCH   5   9
ATOM      6  C   UNL     1       5.791   3.459  12.553  0.00  0.00    +0.000 A 
ATOM      7  C   UNL     1       7.004   4.130  12.404  0.00  0.00    +0.000 A 
ATOM      8  C   UNL     1       7.554   4.842  13.472  0.00  0.00    +0.000 A 
ATOM      9  C   UNL     1       6.877   4.923  14.690  0.00  0.00    +0.000 A 
ATOM     10  C   UNL     1       5.656   4.265  14.835  0.00  0.00    +0.000 A 
ATOM     11  C   UNL     1       5.113   3.537  13.768  0.00  0.00    +0.000 A 
BRANCH   6  13
ATOM     12  C   UNL     1       5.896   1.489  11.251  0.00  0.00    +0.000 C 
ATOM     13  O   UNL     1       5.353   2.790  11.444  0.00  0.00    +0.000 OA
ENDBRANCH   6  13
ENDBRANCH   5   9
ENDBRANCH   4   5
ENDBRANCH   1   4
BRANCH   1  14
ATOM     14  C   UNL     1       6.911   5.604  19.359  0.00  0.00    +0.000 C 
BRANCH  14  15
ATOM     15  N   UNL     1       5.867   4.628  19.099  0.00  0.00    +0.000 N 
ATOM     16  C   UNL     1       4.547   4.969  18.915  0.00  0.00    +0.000 C 
ATOM     17  O   UNL     1       4.188   6.144  18.875  0.00  0.00    +0.000 OA
ATOM     18  H   UNL     1       6.094   3.651  19.246  0.00  0.00    +0.000 HD
BRANCH  16  19
ATOM     19  C   UNL     1       3.619   3.852  18.769  0.00  0.00    +0.000 A 
ATOM     20  C   UNL     1       3.264   3.222  17.590  0.00  0.00    +0.000 A 
ATOM     21  C   UNL     1       2.345   2.151  17.790  0.00  0.00    +0.000 A 
ATOM     22  C   UNL     1       2.020   1.999  19.119  0.00  0.00    +0.000 A 
ATOM     23  S   UNL     1       2.819   3.139  20.110  0.00  0.00    +0.000 S 
ENDBRANCH  16  19
ENDBRANCH  14  15
ENDBRANCH   1  14
TORSDOF 8
ENDMDL
MODEL 7
REMARK VINA RESULT:      -6.1      3.345      7.268
REMARK  Name = 
REMARK  9 active torsions:
REMARK  status: ('A' for Active; 'I' for Inactive)
REMARK    1  A    between atoms: C_1  and  O_2
REMARK    2  A    between atoms: O_2  and  C_3
REMARK    3  A    between atoms: C_6  and  O_7
REMARK    4  A    between atoms: O_7  and  C_8
REMARK    5  A    between atoms: C_8  and  C_9
REMARK    6  A    between atoms: C_9  and  O_10
REMARK    7  A    between atoms: C_9  and  C_11
REMARK    8  A    between atoms: C_11  and  N_12
REMARK    9  A    between atoms: C_13  and  C_15
REMARK                            x       y       z     vdW  Elec       q    Type
REMARK                         _______ _______ _______ _____ _____    ______ ____
ROOT
ATOM      1  C   UNL     1       6.418   6.563  17.395  0.00  0.00    +0.000 C 
ENDROOT
BRANCH   1   2
ATOM      2  O   UNL     1       7.024   7.752  16.857  0.00  0.00    +0.000 OA
ATOM      3  H   UNL     1       6.863   8.460  17.510  0.00  0.00    +0.000 HD
ENDBRANCH   1   2
BRANCH   1   4
ATOM      4  C   UNL     1       7.043   5.324  16.743  0.00  0.00    +0.000 C 
BRANCH   4   5
ATOM      5  O   UNL     1       7.603   5.701  15.477  0.00  0.00    +0.000 OA
BRANCH   5   9
ATOM      6  C   UNL     1       6.035   3.485  12.308  0.00  0.00    +0.000 A 
ATOM      7  C   UNL     1       5.510   3.404  13.598  0.00  0.00    +0.000 A 
ATOM      8  C   UNL     1       6.058   4.165  14.634  0.00  0.00    +0.000 A 
ATOM      9  C   UNL     1       7.163   4.984  14.399  0.00  0.00    +0.000 A 
ATOM     10  C   UNL     1       7.698   5.054  13.113  0.00  0.00    +0.000 A 
ATOM     11  C   UNL     1       7.137   4.304  12.071  0.00  0.00    +0.000 A 
BRANCH   6  13
ATOM     12  C   UNL     1       5.902   1.371  11.258  0.00  0.00    +0.000 C 
ATOM     13  O   UNL     1       5.414   2.703  11.374  0.00  0.00    +0.000 OA
ENDBRANCH   6  13
ENDBRANCH   5   9
ENDBRANCH   4   5
ENDBRANCH   1   4
BRANCH   1  14
ATOM     14  C   UNL     1       4.902   6.638  17.186  0.00  0.00    +0.000 C 
BRANCH  14  15
ATOM     15  N   UNL     1       4.213   5.887  18.219  0.00  0.00    +0.000 N 
ATOM     16  C   UNL     1       3.551   4.705  17.975  0.00  0.00    +0.000 C 
ATOM     17  O   UNL     1       3.582   4.168  16.870  0.00  0.00    +0.000 OA
ATOM     18  H   UNL     1       4.057   6.350  19.108  0.00  0.00    +0.000 HD
BRANCH  16  19
ATOM     19  C   UNL     1       2.825   4.141  19.110  0.00  0.00    +0.000 A 
ATOM     20  C   UNL     1       2.482   2.813  19.293  0.00  0.00    +0.000 A 
ATOM     21  C   UNL     1       1.788   2.586  20.517  0.00  0.00    +0.000 A 
ATOM     22  C   UNL     1       1.616   3.751  21.230  0.00  0.00    +0.000 A 
ATOM     23  S   UNL     1       2.288   5.101  20.426  0.00  0.00    +0.000 S 
ENDBRANCH  16  19
ENDBRANCH  14  15
ENDBRANCH   1  14
TORSDOF 8
ENDMDL
MODEL 8
REMARK VINA RESULT:      -6.0      2.382      4.476
REMARK  Name = 
REMARK  9 active torsions:
REMARK  status: ('A' for Active; 'I' for Inactive)
REMARK    1  A    between atoms: C_1  and  O_2
REMARK    2  A    between atoms: O_2  and  C_3
REMARK    3  A    between atoms: C_6  and  O_7
REMARK    4  A    between atoms: O_7  and  C_8
REMARK    5  A    between atoms: C_8  and  C_9
REMARK    6  A    between atoms: C_9  and  O_10
REMARK    7  A    between atoms: C_9  and  C_11
REMARK    8  A    between atoms: C_11  and  N_12
REMARK    9  A    between atoms: C_13  and  C_15
REMARK                            x       y       z     vdW  Elec       q    Type
REMARK                         _______ _______ _______ _____ _____    ______ ____
ROOT
ATOM      1  C   UNL     1       5.829   5.776  16.847  0.00  0.00    +0.000 C 
ENDROOT
BRANCH   1   2
ATOM      2  O   UNL     1       7.045   6.329  16.313  0.00  0.00    +0.000 OA
ATOM      3  H   UNL     1       7.078   7.258  16.615  0.00  0.00    +0.000 HD
ENDBRANCH   1   2
BRANCH   1   4
ATOM      4  C   UNL     1       5.043   6.869  17.580  0.00  0.00    +0.000 C 
BRANCH   4   5
ATOM      5  O   UNL     1       3.640   6.614  17.423  0.00  0.00    +0.000 OA
BRANCH   5   9
ATOM      6  C   UNL     1       1.197   8.946  19.874  0.00  0.00    +0.000 A 
ATOM      7  C   UNL     1       1.738   7.736  20.307  0.00  0.00    +0.000 A 
ATOM      8  C   UNL     1       2.556   6.983  19.460  0.00  0.00    +0.000 A 
ATOM      9  C   UNL     1       2.809   7.414  18.157  0.00  0.00    +0.000 A 
ATOM     10  C   UNL     1       2.255   8.617  17.718  0.00  0.00    +0.000 A 
ATOM     11  C   UNL     1       1.448   9.379  18.573  0.00  0.00    +0.000 A 
BRANCH   6  13
ATOM     12  C   UNL     1       0.378   9.023  22.090  0.00  0.00    +0.000 C 
ATOM     13  O   UNL     1       0.419   9.599  20.789  0.00  0.00    +0.000 OA
ENDBRANCH   6  13
ENDBRANCH   5   9
ENDBRANCH   4   5
ENDBRANCH   1   4
BRANCH   1  14
ATOM     14  C   UNL     1       6.177   4.590  17.753  0.00  0.00    +0.000 C 
BRANCH  14  15
ATOM     15  N   UNL     1       5.079   4.310  18.660  0.00  0.00    +0.000 N 
ATOM     16  C   UNL     1       4.100   3.380  18.390  0.00  0.00    +0.000 C 
ATOM     17  O   UNL     1       4.152   2.665  17.392  0.00  0.00    +0.000 OA
ATOM     18  H   UNL     1       4.928   4.956  19.426  0.00  0.00    +0.000 HD
BRANCH  16  19
ATOM     19  C   UNL     1       3.015   3.303  19.364  0.00  0.00    +0.000 A 
ATOM     20  C   UNL     1       3.145   3.186  20.737  0.00  0.00    +0.000 A 
ATOM     21  C   UNL     1       1.889   3.153  21.409  0.00  0.00    +0.000 A 
ATOM     22  C   UNL     1       0.835   3.238  20.528  0.00  0.00    +0.000 A 
ATOM     23  S   UNL     1       1.363   3.359  18.907  0.00  0.00    +0.000 S 
ENDBRANCH  16  19
ENDBRANCH  14  15
ENDBRANCH   1  14
TORSDOF 8
ENDMDL
MODEL 9
REMARK VINA RESULT:      -6.0      1.511      1.756
REMARK  Name = 
REMARK  9 active torsions:
REMARK  status: ('A' for Active; 'I' for Inactive)
REMARK    1  A    between atoms: C_1  and  O_2
REMARK    2  A    between atoms: O_2  and  C_3
REMARK    3  A    between atoms: C_6  and  O_7
REMARK    4  A    between atoms: O_7  and  C_8
REMARK    5  A    between atoms: C_8  and  C_9
REMARK    6  A    between atoms: C_9  and  O_10
REMARK    7  A    between atoms: C_9  and  C_11
REMARK    8  A    between atoms: C_11  and  N_12
REMARK    9  A    between atoms: C_13  and  C_15
REMARK                            x       y       z     vdW  Elec       q    Type
REMARK                         _______ _______ _______ _____ _____    ______ ____
ROOT
ATOM      1  C   UNL     1       1.876   3.886  20.885  0.00  0.00    +0.000 C 
ENDROOT
BRANCH   1   2
ATOM      2  O   UNL     1       0.776   2.966  21.010  0.00  0.00    +0.000 OA
ATOM      3  H   UNL     1       0.953   2.437  21.811  0.00  0.00    +0.000 HD
ENDBRANCH   1   2
BRANCH   1   4
ATOM      4  C   UNL     1       1.442   5.098  20.052  0.00  0.00    +0.000 C 
BRANCH   4   5
ATOM      5  O   UNL     1       2.408   6.145  20.221  0.00  0.00    +0.000 OA
BRANCH   5   9
ATOM      6  C   UNL     1       1.009   9.954  19.248  0.00  0.00    +0.000 A 
ATOM      7  C   UNL     1       1.634   9.133  18.309  0.00  0.00    +0.000 A 
ATOM      8  C   UNL     1       2.086   7.862  18.670  0.00  0.00    +0.000 A 
ATOM      9  C   UNL     1       1.954   7.412  19.984  0.00  0.00    +0.000 A 
ATOM     10  C   UNL     1       1.343   8.238  20.928  0.00  0.00    +0.000 A 
ATOM     11  C   UNL     1       0.875   9.507  20.561  0.00  0.00    +0.000 A 
BRANCH   6  13
ATOM     12  C   UNL     1      -0.794  11.306  18.535  0.00  0.00    +0.000 C 
ATOM     13  O   UNL     1       0.601  11.172  18.781  0.00  0.00    +0.000 OA
ENDBRANCH   6  13
ENDBRANCH   5   9
ENDBRANCH   4   5
ENDBRANCH   1   4
BRANCH   1  14
ATOM     14  C   UNL     1       3.073   3.149  20.276  0.00  0.00    +0.000 C 
BRANCH  14  15
ATOM     15  N   UNL     1       3.476   3.783  19.033  0.00  0.00    +0.000 N 
ATOM     16  C   UNL     1       4.785   4.083  18.731  0.00  0.00    +0.000 C 
ATOM     17  O   UNL     1       5.707   3.746  19.470  0.00  0.00    +0.000 OA
ATOM     18  H   UNL     1       2.746   4.187  18.456  0.00  0.00    +0.000 HD
BRANCH  16  19
ATOM     19  C   UNL     1       4.995   4.813  17.485  0.00  0.00    +0.000 A 
ATOM     20  C   UNL     1       4.777   6.162  17.272  0.00  0.00    +0.000 A 
ATOM     21  C   UNL     1       5.095   6.571  15.944  0.00  0.00    +0.000 A 
ATOM     22  C   UNL     1       5.542   5.517  15.179  0.00  0.00    +0.000 A 
ATOM     23  S   UNL     1       5.576   4.053  16.060  0.00  0.00    +0.000 S 
ENDBRANCH  16  19
ENDBRANCH  14  15
ENDBRANCH   1  14
TORSDOF 8
ENDMDL
