MODEL 1
REMARK VINA RESULT:      -7.8      0.000      0.000
REMARK  Name = 
REMARK  9 active torsions:
REMARK  status: ('A' for Active; 'I' for Inactive)
REMARK    1  A    between atoms: C_1  and  O_2
REMARK    2  A    between atoms: O_2  and  C_3
REMARK    3  A    between atoms: C_3  and  C_5
REMARK    4  A    between atoms: C_5  and  C_6
REMARK    5  A    between atoms: C_6  and  C_7
REMARK    6  A    between atoms: C_7  and  C_8
REMARK    7  A    between atoms: C_14  and  C_15
REMARK    8  A    between atoms: C_15  and  C_17
REMARK    9  A    between atoms: C_20  and  C_21
REMARK                            x       y       z     vdW  Elec       q    Type
REMARK                         _______ _______ _______ _____ _____    ______ ____
ROOT
ATOM      1  C   UNL     1       7.198   6.575  16.986  0.00  0.00    +0.000 C 
ATOM      2  O   UNL     1       7.935   6.649  15.999  0.00  0.00    +0.000 OA
ATOM      3  N   UNL     1       6.548   5.397  17.323  0.00  0.00    +0.000 N 
ATOM      4  C   UNL     1       6.763   4.208  16.498  0.00  0.00    +0.000 C 
ATOM      5  C   UNL     1       5.472   3.811  15.785  0.00  0.00    +0.000 C 
ATOM      6  C   UNL     1       4.328   3.624  16.784  0.00  0.00    +0.000 C 
ATOM      7  C   UNL     1       4.173   4.865  17.680  0.00  0.00    +0.000 C 
ATOM      8  C   UNL     1       5.507   5.234  18.342  0.00  0.00    +0.000 C 
ENDROOT
BRANCH   7   9
ATOM      9  C   UNL     1       3.140   4.652  18.780  0.00  0.00    +0.000 C 
ATOM     10  O   UNL     1       2.911   3.542  19.256  0.00  0.00    +0.000 OA
BRANCH   9  11
ATOM     11  C   UNL     1       2.473   5.845  19.378  0.00  0.00    +0.000 A 
ATOM     12  C   UNL     1       2.546   7.102  18.780  0.00  0.00    +0.000 A 
ATOM     13  C   UNL     1       1.950   8.206  19.394  0.00  0.00    +0.000 A 
ATOM     14  C   UNL     1       1.239   8.096  20.601  0.00  0.00    +0.000 A 
ATOM     15  C   UNL     1       1.158   6.814  21.178  0.00  0.00    +0.000 A 
ATOM     16  C   UNL     1       1.767   5.703  20.575  0.00  0.00    +0.000 A 
BRANCH  14  17
ATOM     17  C   UNL     1       0.616   9.291  21.221  0.00  0.00    +0.000 A 
ATOM     18  C   UNL     1      -0.024   9.207  22.474  0.00  0.00    +0.000 A 
ATOM     19  C   UNL     1      -0.675  10.305  23.043  0.00  0.00    +0.000 A 
ATOM     20  C   UNL     1      -0.680  11.526  22.382  0.00  0.00    +0.000 A 
ATOM     21  C   UNL     1      -0.033  11.649  21.157  0.00  0.00    +0.000 A 
ATOM     22  C   UNL     1       0.604  10.542  20.582  0.00  0.00    +0.000 A 
ENDBRANCH  14  17
ENDBRANCH   9  11
ENDBRANCH   7   9
BRANCH   1  23
ATOM     23  C   UNL     1       7.029   7.779  17.902  0.00  0.00    +0.000 C 
BRANCH  23  24
ATOM     24  C   UNL     1       8.352   8.487  18.207  0.00  0.00    +0.000 C 
BRANCH  24  25
ATOM     25  C   UNL     1       8.379   9.903  17.626  0.00  0.00    +0.000 C 
BRANCH  25  26
ATOM     26  C   UNL     1       9.170  10.849  18.495  0.00  0.00    +0.000 C 
ATOM     27  O   UNL     1       9.510  11.984  18.183  0.00  0.00    +0.000 OA
BRANCH  26  29
ATOM     28  C   UNL     1       9.387  11.104  20.805  0.00  0.00    +0.000 C 
ATOM     29  O   UNL     1       9.473  10.237  19.673  0.00  0.00    +0.000 OA
ENDBRANCH  26  29
ENDBRANCH  25  26
ENDBRANCH  24  25
ENDBRANCH  23  24
ENDBRANCH   1  23
TORSDOF 8
ENDMDL
MODEL 2
REMARK VINA RESULT:      -7.8      1.223      1.922
REMARK  Name = 
REMARK  9 active torsions:
REMARK  status: ('A' for Active; 'I' for Inactive)
REMARK    1  A    between atoms: C_1  and  O_2
REMARK    2  A    between atoms: O_2  and  C_3
REMARK    3  A    between atoms: C_3  and  C_5
REMARK    4  A    between atoms: C_5  and  C_6
REMARK    5  A    between atoms: C_6  and  C_7
REMARK    6  A    between atoms: C_7  and  C_8
REMARK    7  A    between atoms: C_14  and  C_15
REMARK    8  A    between atoms: C_15  and  C_17
REMARK    9  A    between atoms: C_20  and  C_21
REMARK                            x       y       z     vdW  Elec       q    Type
REMARK                         _______ _______ _______ _____ _____    ______ ____
ROOT
ATOM      1  C   UNL     1       7.266   6.268  17.267  0.00  0.00    +0.000 C 
ATOM      2  O   UNL     1       7.852   6.174  16.186  0.00  0.00    +0.000 OA
ATOM      3  N   UNL     1       6.251   5.392  17.625  0.00  0.00    +0.000 N 
ATOM      4  C   UNL     1       5.887   4.315  16.703  0.00  0.00    +0.000 C 
ATOM      5  C   UNL     1       4.470   4.522  16.173  0.00  0.00    +0.000 C 
ATOM      6  C   UNL     1       3.469   4.665  17.322  0.00  0.00    +0.000 C 
ATOM      7  C   UNL     1       3.917   5.758  18.307  0.00  0.00    +0.000 C 
ATOM      8  C   UNL     1       5.356   5.515  18.778  0.00  0.00    +0.000 C 
ENDROOT
BRANCH   7   9
ATOM      9  C   UNL     1       3.019   5.823  19.537  0.00  0.00    +0.000 C 
ATOM     10  O   UNL     1       3.001   4.930  20.382  0.00  0.00    +0.000 OA
BRANCH   9  11
ATOM     11  C   UNL     1       2.225   7.063  19.780  0.00  0.00    +0.000 A 
ATOM     12  C   UNL     1       1.545   7.275  20.977  0.00  0.00    +0.000 A 
ATOM     13  C   UNL     1       0.771   8.425  21.150  0.00  0.00    +0.000 A 
ATOM     14  C   UNL     1       0.670   9.414  20.157  0.00  0.00    +0.000 A 
ATOM     15  C   UNL     1       1.381   9.190  18.962  0.00  0.00    +0.000 A 
ATOM     16  C   UNL     1       2.148   8.030  18.774  0.00  0.00    +0.000 A 
BRANCH  14  17
ATOM     17  C   UNL     1      -0.159  10.623  20.378  0.00  0.00    +0.000 A 
ATOM     18  C   UNL     1      -1.164  10.992  19.461  0.00  0.00    +0.000 A 
ATOM     19  C   UNL     1      -1.909  12.164  19.616  0.00  0.00    +0.000 A 
ATOM     20  C   UNL     1      -1.683  12.988  20.711  0.00  0.00    +0.000 A 
ATOM     21  C   UNL     1      -0.717  12.638  21.649  0.00  0.00    +0.000 A 
ATOM     22  C   UNL     1       0.039  11.471  21.481  0.00  0.00    +0.000 A 
ENDBRANCH  14  17
ENDBRANCH   9  11
ENDBRANCH   7   9
BRANCH   1  23
ATOM     23  C   UNL     1       7.689   7.330  18.273  0.00  0.00    +0.000 C 
BRANCH  23  24
ATOM     24  C   UNL     1       8.012   8.675  17.619  0.00  0.00    +0.000 C 
BRANCH  24  25
ATOM     25  C   UNL     1       8.770   9.599  18.576  0.00  0.00    +0.000 C 
BRANCH  25  26
ATOM     26  C   UNL     1       9.080  10.931  17.940  0.00  0.00    +0.000 C 
ATOM     27  O   UNL     1       8.259  11.800  17.676  0.00  0.00    +0.000 OA
BRANCH  26  29
ATOM     28  C   UNL     1      11.132  11.823  18.607  0.00  0.00    +0.000 C 
ATOM     29  O   UNL     1      10.414  11.009  17.678  0.00  0.00    +0.000 OA
ENDBRANCH  26  29
ENDBRANCH  25  26
ENDBRANCH  24  25
ENDBRANCH  23  24
ENDBRANCH   1  23
TORSDOF 8
ENDMDL
MODEL 3
REMARK VINA RESULT:      -7.8      2.806      5.430
REMARK  Name = 
REMARK  9 active torsions:
REMARK  status: ('A' for Active; 'I' for Inactive)
REMARK    1  A    between atoms: C_1  and  O_2
REMARK    2  A    between atoms: O_2  and  C_3
REMARK    3  A    between atoms: C_3  and  C_5
REMARK    4  A    between atoms: C_5  and  C_6
REMARK    5  A    between atoms: C_6  and  C_7
REMARK    6  A    between atoms: C_7  and  C_8
REMARK    7  A    between atoms: C_14  and  C_15
REMARK    8  A    between atoms: C_15  and  C_17
REMARK    9  A    between atoms: C_20  and  C_21
REMARK                            x       y       z     vdW  Elec       q    Type
REMARK                         _______ _______ _______ _____ _____    ______ ____
ROOT
ATOM      1  C   UNL     1       6.596   4.732  15.575  0.00  0.00    +0.000 C 
ATOM      2  O   UNL     1       7.826   4.705  15.483  0.00  0.00    +0.000 OA
ATOM      3  N   UNL     1       5.957   5.411  16.602  0.00  0.00    +0.000 N 
ATOM      4  C   UNL     1       6.766   6.133  17.585  0.00  0.00    +0.000 C 
ATOM      5  C   UNL     1       6.630   5.491  18.963  0.00  0.00    +0.000 C 
ATOM      6  C   UNL     1       5.161   5.392  19.382  0.00  0.00    +0.000 C 
ATOM      7  C   UNL     1       4.328   4.689  18.297  0.00  0.00    +0.000 C 
ATOM      8  C   UNL     1       4.530   5.357  16.930  0.00  0.00    +0.000 C 
ENDROOT
BRANCH   7   9
ATOM      9  C   UNL     1       2.838   4.706  18.618  0.00  0.00    +0.000 C 
ATOM     10  O   UNL     1       2.119   3.725  18.443  0.00  0.00    +0.000 OA
BRANCH   9  11
ATOM     11  C   UNL     1       2.261   5.917  19.273  0.00  0.00    +0.000 A 
ATOM     12  C   UNL     1       2.316   7.172  18.672  0.00  0.00    +0.000 A 
ATOM     13  C   UNL     1       1.810   8.291  19.337  0.00  0.00    +0.000 A 
ATOM     14  C   UNL     1       1.206   8.199  20.603  0.00  0.00    +0.000 A 
ATOM     15  C   UNL     1       1.141   6.917  21.184  0.00  0.00    +0.000 A 
ATOM     16  C   UNL     1       1.662   5.791  20.529  0.00  0.00    +0.000 A 
BRANCH  14  17
ATOM     17  C   UNL     1       0.676   9.408  21.276  0.00  0.00    +0.000 A 
ATOM     18  C   UNL     1      -0.067   9.307  22.470  0.00  0.00    +0.000 A 
ATOM     19  C   UNL     1      -0.632  10.429  23.083  0.00  0.00    +0.000 A 
ATOM     20  C   UNL     1      -0.446  11.689  22.528  0.00  0.00    +0.000 A 
ATOM     21  C   UNL     1       0.306  11.825  21.365  0.00  0.00    +0.000 A 
ATOM     22  C   UNL     1       0.857  10.697  20.745  0.00  0.00    +0.000 A 
ENDBRANCH  14  17
ENDBRANCH   9  11
ENDBRANCH   7   9
BRANCH   1  23
ATOM     23  C   UNL     1       5.738   4.056  14.514  0.00  0.00    +0.000 C 
BRANCH  23  24
ATOM     24  C   UNL     1       6.472   3.869  13.184  0.00  0.00    +0.000 C 
BRANCH  24  25
ATOM     25  C   UNL     1       5.511   3.953  11.994  0.00  0.00    +0.000 C 
BRANCH  25  26
ATOM     26  C   UNL     1       5.161   2.586  11.461  0.00  0.00    +0.000 C 
ATOM     27  O   UNL     1       5.879   1.595  11.522  0.00  0.00    +0.000 OA
BRANCH  26  29
ATOM     28  C   UNL     1       3.515   3.948  10.522  0.00  0.00    +0.000 C 
ATOM     29  O   UNL     1       3.934   2.628  10.873  0.00  0.00    +0.000 OA
ENDBRANCH  26  29
ENDBRANCH  25  26
ENDBRANCH  24  25
ENDBRANCH  23  24
ENDBRANCH   1  23
TORSDOF 8
ENDMDL
MODEL 4
REMARK VINA RESULT:      -7.8      2.924      5.408
REMARK  Name = 
REMARK  9 active torsions:
REMARK  status: ('A' for Active; 'I' for Inactive)
REMARK    1  A    between atoms: C_1  and  O_2
REMARK    2  A    between atoms: O_2  and  C_3
REMARK    3  A    between atoms: C_3  and  C_5
REMARK    4  A    between atoms: C_5  and  C_6
REMARK    5  A    between atoms: C_6  and  C_7
REMARK    6  A    between atoms: C_7  and  C_8
REMARK    7  A    between atoms: C_14  and  C_15
REMARK    8  A    between atoms: C_15  and  C_17
REMARK    9  A    between atoms: C_20  and  C_21
REMARK                            x       y       z     vdW  Elec       q    Type
REMARK                         _______ _______ _______ _____ _____    ______ ____
ROOT
ATOM      1  C   UNL     1       6.737   4.770  15.919  0.00  0.00    +0.000 C 
ATOM      2  O   UNL     1       7.916   4.449  16.083  0.00  0.00    +0.000 OA
ATOM      3  N   UNL     1       6.051   5.528  16.857  0.00  0.00    +0.000 N 
ATOM      4  C   UNL     1       6.755   5.975  18.059  0.00  0.00    +0.000 C 
ATOM      5  C   UNL     1       6.166   5.311  19.301  0.00  0.00    +0.000 C 
ATOM      6  C   UNL     1       4.657   5.552  19.390  0.00  0.00    +0.000 C 
ATOM      7  C   UNL     1       3.957   5.134  18.086  0.00  0.00    +0.000 C 
ATOM      8  C   UNL     1       4.613   5.807  16.872  0.00  0.00    +0.000 C 
ENDROOT
BRANCH   7   9
ATOM      9  C   UNL     1       2.477   5.499  18.088  0.00  0.00    +0.000 C 
ATOM     10  O   UNL     1       1.620   4.761  17.606  0.00  0.00    +0.000 OA
BRANCH   9  11
ATOM     11  C   UNL     1       2.045   6.736  18.803  0.00  0.00    +0.000 A 
ATOM     12  C   UNL     1       1.729   6.726  20.160  0.00  0.00    +0.000 A 
ATOM     13  C   UNL     1       1.281   7.892  20.784  0.00  0.00    +0.000 A 
ATOM     14  C   UNL     1       1.160   9.110  20.093  0.00  0.00    +0.000 A 
ATOM     15  C   UNL     1       1.504   9.104  18.727  0.00  0.00    +0.000 A 
ATOM     16  C   UNL     1       1.941   7.933  18.089  0.00  0.00    +0.000 A 
BRANCH  14  17
ATOM     17  C   UNL     1       0.684  10.329  20.790  0.00  0.00    +0.000 A 
ATOM     18  C   UNL     1      -0.190  10.239  21.893  0.00  0.00    +0.000 A 
ATOM     19  C   UNL     1      -0.703  11.378  22.520  0.00  0.00    +0.000 A 
ATOM     20  C   UNL     1      -0.334  12.640  22.074  0.00  0.00    +0.000 A 
ATOM     21  C   UNL     1       0.548  12.763  21.005  0.00  0.00    +0.000 A 
ATOM     22  C   UNL     1       1.048  11.619  20.369  0.00  0.00    +0.000 A 
ENDBRANCH  14  17
ENDBRANCH   9  11
ENDBRANCH   7   9
BRANCH   1  23
ATOM     23  C   UNL     1       6.015   4.385  14.635  0.00  0.00    +0.000 C 
BRANCH  23  24
ATOM     24  C   UNL     1       6.966   3.914  13.533  0.00  0.00    +0.000 C 
BRANCH  24  25
ATOM     25  C   UNL     1       6.346   4.083  12.144  0.00  0.00    +0.000 C 
BRANCH  25  26
ATOM     26  C   UNL     1       5.364   2.982  11.831  0.00  0.00    +0.000 C 
ATOM     27  O   UNL     1       5.655   1.815  11.598  0.00  0.00    +0.000 OA
BRANCH  26  29
ATOM     28  C   UNL     1       3.370   3.176  10.633  0.00  0.00    +0.000 C 
ATOM     29  O   UNL     1       4.101   3.491  11.820  0.00  0.00    +0.000 OA
ENDBRANCH  26  29
ENDBRANCH  25  26
ENDBRANCH  24  25
ENDBRANCH  23  24
ENDBRANCH   1  23
TORSDOF 8
ENDMDL
MODEL 5
REMARK VINA RESULT:      -7.7      2.644      5.484
REMARK  Name = 
REMARK  9 active torsions:
REMARK  status: ('A' for Active; 'I' for Inactive)
REMARK    1  A    between atoms: C_1  and  O_2
REMARK    2  A    between atoms: O_2  and  C_3
REMARK    3  A    between atoms: C_3  and  C_5
REMARK    4  A    between atoms: C_5  and  C_6
REMARK    5  A    between atoms: C_6  and  C_7
REMARK    6  A    between atoms: C_7  and  C_8
REMARK    7  A    between atoms: C_14  and  C_15
REMARK    8  A    between atoms: C_15  and  C_17
REMARK    9  A    between atoms: C_20  and  C_21
REMARK                            x       y       z     vdW  Elec       q    Type
REMARK                         _______ _______ _______ _____ _____    ______ ____
ROOT
ATOM      1  C   UNL     1       6.516   5.539  15.407  0.00  0.00    +0.000 C 
ATOM      2  O   UNL     1       7.738   5.538  15.233  0.00  0.00    +0.000 OA
ATOM      3  N   UNL     1       5.950   5.986  16.591  0.00  0.00    +0.000 N 
ATOM      4  C   UNL     1       6.825   6.491  17.649  0.00  0.00    +0.000 C 
ATOM      5  C   UNL     1       6.772   5.576  18.870  0.00  0.00    +0.000 C 
ATOM      6  C   UNL     1       5.331   5.385  19.351  0.00  0.00    +0.000 C 
ATOM      7  C   UNL     1       4.425   4.919  18.199  0.00  0.00    +0.000 C 
ATOM      8  C   UNL     1       4.546   5.858  16.992  0.00  0.00    +0.000 C 
ENDROOT
BRANCH   7   9
ATOM      9  C   UNL     1       2.959   4.862  18.611  0.00  0.00    +0.000 C 
ATOM     10  O   UNL     1       2.305   3.823  18.562  0.00  0.00    +0.000 OA
BRANCH   9  11
ATOM     11  C   UNL     1       2.334   6.081  19.203  0.00  0.00    +0.000 A 
ATOM     12  C   UNL     1       2.278   7.287  18.508  0.00  0.00    +0.000 A 
ATOM     13  C   UNL     1       1.730   8.420  19.113  0.00  0.00    +0.000 A 
ATOM     14  C   UNL     1       1.192   8.388  20.412  0.00  0.00    +0.000 A 
ATOM     15  C   UNL     1       1.239   7.155  21.089  0.00  0.00    +0.000 A 
ATOM     16  C   UNL     1       1.803   6.016  20.494  0.00  0.00    +0.000 A 
BRANCH  14  17
ATOM     17  C   UNL     1       0.615   9.611  21.020  0.00  0.00    +0.000 A 
ATOM     18  C   UNL     1       0.924  10.889  20.511  0.00  0.00    +0.000 A 
ATOM     19  C   UNL     1       0.444  12.056  21.113  0.00  0.00    +0.000 A 
ATOM     20  C   UNL     1      -0.380  11.973  22.227  0.00  0.00    +0.000 A 
ATOM     21  C   UNL     1      -0.726  10.726  22.737  0.00  0.00    +0.000 A 
ATOM     22  C   UNL     1      -0.230   9.558  22.141  0.00  0.00    +0.000 A 
ENDBRANCH  14  17
ENDBRANCH   9  11
ENDBRANCH   7   9
BRANCH   1  23
ATOM     23  C   UNL     1       5.587   5.095  14.285  0.00  0.00    +0.000 C 
BRANCH  23  24
ATOM     24  C   UNL     1       5.795   3.634  13.881  0.00  0.00    +0.000 C 
BRANCH  24  25
ATOM     25  C   UNL     1       6.461   3.519  12.507  0.00  0.00    +0.000 C 
BRANCH  25  26
ATOM     26  C   UNL     1       5.718   2.567  11.603  0.00  0.00    +0.000 C 
ATOM     27  O   UNL     1       4.519   2.611  11.359  0.00  0.00    +0.000 OA
BRANCH  26  29
ATOM     28  C   UNL     1       6.091   0.295  11.222  0.00  0.00    +0.000 C 
ATOM     29  O   UNL     1       6.582   1.633  11.120  0.00  0.00    +0.000 OA
ENDBRANCH  26  29
ENDBRANCH  25  26
ENDBRANCH  24  25
ENDBRANCH  23  24
ENDBRANCH   1  23
TORSDOF 8
ENDMDL
MODEL 6
REMARK VINA RESULT:      -7.7      0.717      1.463
REMARK  Name = 
REMARK  9 active torsions:
REMARK  status: ('A' for Active; 'I' for Inactive)
REMARK    1  A    between atoms: C_1  and  O_2
REMARK    2  A    between atoms: O_2  and  C_3
REMARK    3  A    between atoms: C_3  and  C_5
REMARK    4  A    between atoms: C_5  and  C_6
REMARK    5  A    between atoms: C_6  and  C_7
REMARK    6  A    between atoms: C_7  and  C_8
REMARK    7  A    between atoms: C_14  and  C_15
REMARK    8  A    between atoms: C_15  and  C_17
REMARK    9  A    between atoms: C_20  and  C_21
REMARK                            x       y       z     vdW  Elec       q    Type
REMARK                         _______ _______ _______ _____ _____    ______ ____
ROOT
ATOM      1  C   UNL     1       7.274   6.651  17.224  0.00  0.00    +0.000 C 
ATOM      2  O   UNL     1       7.974   6.719  16.211  0.00  0.00    +0.000 OA
ATOM      3  N   UNL     1       6.461   5.555  17.474  0.00  0.00    +0.000 N 
ATOM      4  C   UNL     1       6.456   4.444  16.522  0.00  0.00    +0.000 C 
ATOM      5  C   UNL     1       5.093   4.327  15.844  0.00  0.00    +0.000 C 
ATOM      6  C   UNL     1       3.972   4.208  16.881  0.00  0.00    +0.000 C 
ATOM      7  C   UNL     1       4.048   5.353  17.904  0.00  0.00    +0.000 C 
ATOM      8  C   UNL     1       5.447   5.442  18.526  0.00  0.00    +0.000 C 
ENDROOT
BRANCH   7   9
ATOM      9  C   UNL     1       3.037   5.180  19.032  0.00  0.00    +0.000 C 
ATOM     10  O   UNL     1       2.841   4.095  19.575  0.00  0.00    +0.000 OA
BRANCH   9  11
ATOM     11  C   UNL     1       2.350   6.391  19.570  0.00  0.00    +0.000 A 
ATOM     12  C   UNL     1       1.728   6.387  20.817  0.00  0.00    +0.000 A 
ATOM     13  C   UNL     1       1.052   7.523  21.267  0.00  0.00    +0.000 A 
ATOM     14  C   UNL     1       0.995   8.707  20.511  0.00  0.00    +0.000 A 
ATOM     15  C   UNL     1       1.647   8.697  19.263  0.00  0.00    +0.000 A 
ATOM     16  C   UNL     1       2.315   7.554  18.797  0.00  0.00    +0.000 A 
BRANCH  14  17
ATOM     17  C   UNL     1       0.270   9.895  21.023  0.00  0.00    +0.000 A 
ATOM     18  C   UNL     1       0.127  11.054  20.234  0.00  0.00    +0.000 A 
ATOM     19  C   UNL     1      -0.493  12.207  20.724  0.00  0.00    +0.000 A 
ATOM     20  C   UNL     1      -1.010  12.221  22.012  0.00  0.00    +0.000 A 
ATOM     21  C   UNL     1      -0.910  11.084  22.807  0.00  0.00    +0.000 A 
ATOM     22  C   UNL     1      -0.273   9.935  22.319  0.00  0.00    +0.000 A 
ENDBRANCH  14  17
ENDBRANCH   9  11
ENDBRANCH   7   9
BRANCH   1  23
ATOM     23  C   UNL     1       7.330   7.760  18.265  0.00  0.00    +0.000 C 
BRANCH  23  24
ATOM     24  C   UNL     1       8.114   8.986  17.789  0.00  0.00    +0.000 C 
BRANCH  24  25
ATOM     25  C   UNL     1       8.998   9.555  18.902  0.00  0.00    +0.000 C 
BRANCH  25  26
ATOM     26  C   UNL     1       9.554  10.909  18.537  0.00  0.00    +0.000 C 
ATOM     27  O   UNL     1      10.341  11.131  17.625  0.00  0.00    +0.000 OA
BRANCH  26  29
ATOM     28  C   UNL     1       9.290  11.529  20.772  0.00  0.00    +0.000 C 
ATOM     29  O   UNL     1       9.068  11.846  19.397  0.00  0.00    +0.000 OA
ENDBRANCH  26  29
ENDBRANCH  25  26
ENDBRANCH  24  25
ENDBRANCH  23  24
ENDBRANCH   1  23
TORSDOF 8
ENDMDL
MODEL 7
REMARK VINA RESULT:      -7.6      2.004      3.260
REMARK  Name = 
REMARK  9 active torsions:
REMARK  status: ('A' for Active; 'I' for Inactive)
REMARK    1  A    between atoms: C_1  and  O_2
REMARK    2  A    between atoms: O_2  and  C_3
REMARK    3  A    between atoms: C_3  and  C_5
REMARK    4  A    between atoms: C_5  and  C_6
REMARK    5  A    between atoms: C_6  and  C_7
REMARK    6  A    between atoms: C_7  and  C_8
REMARK    7  A    between atoms: C_14  and  C_15
REMARK    8  A    between atoms: C_15  and  C_17
REMARK    9  A    between atoms: C_20  and  C_21
REMARK                            x       y       z     vdW  Elec       q    Type
REMARK                         _______ _______ _______ _____ _____    ______ ____
ROOT
ATOM      1  C   UNL     1       5.107   4.241  16.456  0.00  0.00    +0.000 C 
ATOM      2  O   UNL     1       5.249   3.476  15.498  0.00  0.00    +0.000 OA
ATOM      3  N   UNL     1       4.439   3.849  17.607  0.00  0.00    +0.000 N 
ATOM      4  C   UNL     1       3.911   2.487  17.692  0.00  0.00    +0.000 C 
ATOM      5  C   UNL     1       2.386   2.507  17.739  0.00  0.00    +0.000 C 
ATOM      6  C   UNL     1       1.882   3.396  18.879  0.00  0.00    +0.000 C 
ATOM      7  C   UNL     1       2.508   4.799  18.798  0.00  0.00    +0.000 C 
ATOM      8  C   UNL     1       4.038   4.713  18.720  0.00  0.00    +0.000 C 
ENDROOT
BRANCH   7   9
ATOM      9  C   UNL     1       2.141   5.659  20.001  0.00  0.00    +0.000 C 
ATOM     10  O   UNL     1       2.189   5.230  21.152  0.00  0.00    +0.000 OA
BRANCH   9  11
ATOM     11  C   UNL     1       1.827   7.102  19.781  0.00  0.00    +0.000 A 
ATOM     12  C   UNL     1       1.234   7.882  20.772  0.00  0.00    +0.000 A 
ATOM     13  C   UNL     1       0.909   9.215  20.513  0.00  0.00    +0.000 A 
ATOM     14  C   UNL     1       1.187   9.826  19.278  0.00  0.00    +0.000 A 
ATOM     15  C   UNL     1       1.805   9.027  18.298  0.00  0.00    +0.000 A 
ATOM     16  C   UNL     1       2.120   7.682  18.545  0.00  0.00    +0.000 A 
BRANCH  14  17
ATOM     17  C   UNL     1       0.830  11.246  19.042  0.00  0.00    +0.000 A 
ATOM     18  C   UNL     1       1.815  12.194  18.698  0.00  0.00    +0.000 A 
ATOM     19  C   UNL     1       1.509  13.548  18.537  0.00  0.00    +0.000 A 
ATOM     20  C   UNL     1       0.201  13.986  18.694  0.00  0.00    +0.000 A 
ATOM     21  C   UNL     1      -0.799  13.071  19.006  0.00  0.00    +0.000 A 
ATOM     22  C   UNL     1      -0.487  11.717  19.182  0.00  0.00    +0.000 A 
ENDBRANCH  14  17
ENDBRANCH   9  11
ENDBRANCH   7   9
BRANCH   1  23
ATOM     23  C   UNL     1       5.722   5.633  16.416  0.00  0.00    +0.000 C 
BRANCH  23  24
ATOM     24  C   UNL     1       7.236   5.623  16.641  0.00  0.00    +0.000 C 
BRANCH  24  25
ATOM     25  C   UNL     1       7.611   6.276  17.974  0.00  0.00    +0.000 C 
BRANCH  25  26
ATOM     26  C   UNL     1       7.788   7.768  17.836  0.00  0.00    +0.000 C 
ATOM     27  O   UNL     1       7.306   8.461  16.947  0.00  0.00    +0.000 OA
BRANCH  26  29
ATOM     28  C   UNL     1       8.945   9.602  18.699  0.00  0.00    +0.000 C 
ATOM     29  O   UNL     1       8.590   8.225  18.836  0.00  0.00    +0.000 OA
ENDBRANCH  26  29
ENDBRANCH  25  26
ENDBRANCH  24  25
ENDBRANCH  23  24
ENDBRANCH   1  23
TORSDOF 8
ENDMDL
MODEL 8
REMARK VINA RESULT:      -7.6      0.556      1.228
REMARK  Name = 
REMARK  9 active torsions:
REMARK  status: ('A' for Active; 'I' for Inactive)
REMARK    1  A    between atoms: C_1  and  O_2
REMARK    2  A    between atoms: O_2  and  C_3
REMARK    3  A    between atoms: C_3  and  C_5
REMARK    4  A    between atoms: C_5  and  C_6
REMARK    5  A    between atoms: C_6  and  C_7
REMARK    6  A    between atoms: C_7  and  C_8
REMARK    7  A    between atoms: C_14  and  C_15
REMARK    8  A    between atoms: C_15  and  C_17
REMARK    9  A    between atoms: C_20  and  C_21
REMARK                            x       y       z     vdW  Elec       q    Type
REMARK                         _______ _______ _______ _____ _____    ______ ____
ROOT
ATOM      1  C   UNL     1       7.194   6.717  17.044  0.00  0.00    +0.000 C 
ATOM      2  O   UNL     1       8.007   6.773  16.118  0.00  0.00    +0.000 OA
ATOM      3  N   UNL     1       6.505   5.549  17.339  0.00  0.00    +0.000 N 
ATOM      4  C   UNL     1       6.771   4.350  16.545  0.00  0.00    +0.000 C 
ATOM      5  C   UNL     1       5.537   3.960  15.736  0.00  0.00    +0.000 C 
ATOM      6  C   UNL     1       4.314   3.795  16.643  0.00  0.00    +0.000 C 
ATOM      7  C   UNL     1       4.104   5.047  17.512  0.00  0.00    +0.000 C 
ATOM      8  C   UNL     1       5.386   5.408  18.274  0.00  0.00    +0.000 C 
ENDROOT
BRANCH   7   9
ATOM      9  C   UNL     1       2.985   4.856  18.529  0.00  0.00    +0.000 C 
ATOM     10  O   UNL     1       2.603   3.742  18.881  0.00  0.00    +0.000 OA
BRANCH   9  11
ATOM     11  C   UNL     1       2.417   6.060  19.204  0.00  0.00    +0.000 A 
ATOM     12  C   UNL     1       1.909   6.003  20.500  0.00  0.00    +0.000 A 
ATOM     13  C   UNL     1       1.340   7.138  21.081  0.00  0.00    +0.000 A 
ATOM     14  C   UNL     1       1.283   8.372  20.411  0.00  0.00    +0.000 A 
ATOM     15  C   UNL     1       1.820   8.414  19.110  0.00  0.00    +0.000 A 
ATOM     16  C   UNL     1       2.379   7.274  18.513  0.00  0.00    +0.000 A 
BRANCH  14  17
ATOM     17  C   UNL     1       0.674   9.556  21.062  0.00  0.00    +0.000 A 
ATOM     18  C   UNL     1      -0.037   9.433  22.273  0.00  0.00    +0.000 A 
ATOM     19  C   UNL     1      -0.675  10.527  22.866  0.00  0.00    +0.000 A 
ATOM     20  C   UNL     1      -0.597  11.780  22.274  0.00  0.00    +0.000 A 
ATOM     21  C   UNL     1       0.122  11.940  21.093  0.00  0.00    +0.000 A 
ATOM     22  C   UNL     1       0.746  10.839  20.493  0.00  0.00    +0.000 A 
ENDBRANCH  14  17
ENDBRANCH   9  11
ENDBRANCH   7   9
BRANCH   1  23
ATOM     23  C   UNL     1       6.967   7.933  17.932  0.00  0.00    +0.000 C 
BRANCH  23  24
ATOM     24  C   UNL     1       8.262   8.673  18.273  0.00  0.00    +0.000 C 
BRANCH  24  25
ATOM     25  C   UNL     1       8.260  10.098  17.714  0.00  0.00    +0.000 C 
BRANCH  25  26
ATOM     26  C   UNL     1       9.293  10.965  18.389  0.00  0.00    +0.000 C 
ATOM     27  O   UNL     1      10.074  10.595  19.257  0.00  0.00    +0.000 OA
BRANCH  26  29
ATOM     28  C   UNL     1       9.007  13.220  18.920  0.00  0.00    +0.000 C 
ATOM     29  O   UNL     1       9.206  12.235  17.905  0.00  0.00    +0.000 OA
ENDBRANCH  26  29
ENDBRANCH  25  26
ENDBRANCH  24  25
ENDBRANCH  23  24
ENDBRANCH   1  23
TORSDOF 8
ENDMDL
MODEL 9
REMARK VINA RESULT:      -7.5      1.477      2.170
REMARK  Name = 
REMARK  9 active torsions:
REMARK  status: ('A' for Active; 'I' for Inactive)
REMARK    1  A    between atoms: C_1  and  O_2
REMARK    2  A    between atoms: O_2  and  C_3
REMARK    3  A    between atoms: C_3  and  C_5
REMARK    4  A    between atoms: C_5  and  C_6
REMARK    5  A    between atoms: C_6  and  C_7
REMARK    6  A    between atoms: C_7  and  C_8
REMARK    7  A    between atoms: C_14  and  C_15
REMARK    8  A    between atoms: C_15  and  C_17
REMARK    9  A    between atoms: C_20  and  C_21
REMARK                            x       y       z     vdW  Elec       q    Type
REMARK                         _______ _______ _______ _____ _____    ______ ____
ROOT
ATOM      1  C   UNL     1       7.074   5.643  17.490  0.00  0.00    +0.000 C 
ATOM      2  O   UNL     1       7.685   5.275  16.484  0.00  0.00    +0.000 OA
ATOM      3  N   UNL     1       5.951   4.968  17.947  0.00  0.00    +0.000 N 
ATOM      4  C   UNL     1       5.500   3.776  17.229  0.00  0.00    +0.000 C 
ATOM      5  C   UNL     1       4.138   4.023  16.585  0.00  0.00    +0.000 C 
ATOM      6  C   UNL     1       3.117   4.497  17.623  0.00  0.00    +0.000 C 
ATOM      7  C   UNL     1       3.651   5.709  18.405  0.00  0.00    +0.000 C 
ATOM      8  C   UNL     1       5.034   5.411  19.000  0.00  0.00    +0.000 C 
ENDROOT
BRANCH   7   9
ATOM      9  C   UNL     1       2.721   6.110  19.543  0.00  0.00    +0.000 C 
ATOM     10  O   UNL     1       2.542   5.394  20.526  0.00  0.00    +0.000 OA
BRANCH   9  11
ATOM     11  C   UNL     1       2.100   7.468  19.517  0.00  0.00    +0.000 A 
ATOM     12  C   UNL     1       2.125   8.262  18.373  0.00  0.00    +0.000 A 
ATOM     13  C   UNL     1       1.578   9.547  18.400  0.00  0.00    +0.000 A 
ATOM     14  C   UNL     1       0.963  10.074  19.549  0.00  0.00    +0.000 A 
ATOM     15  C   UNL     1       0.930   9.246  20.688  0.00  0.00    +0.000 A 
ATOM     16  C   UNL     1       1.491   7.960  20.674  0.00  0.00    +0.000 A 
BRANCH  14  17
ATOM     17  C   UNL     1       0.390  11.441  19.539  0.00  0.00    +0.000 A 
ATOM     18  C   UNL     1      -0.752  11.754  20.303  0.00  0.00    +0.000 A 
ATOM     19  C   UNL     1      -1.347  13.018  20.254  0.00  0.00    +0.000 A 
ATOM     20  C   UNL     1      -0.798  14.012  19.454  0.00  0.00    +0.000 A 
ATOM     21  C   UNL     1       0.346  13.743  18.709  0.00  0.00    +0.000 A 
ATOM     22  C   UNL     1       0.930  12.470  18.749  0.00  0.00    +0.000 A 
ENDBRANCH  14  17
ENDBRANCH   9  11
ENDBRANCH   7   9
BRANCH   1  23
ATOM     23  C   UNL     1       7.579   6.831  18.296  0.00  0.00    +0.000 C 
BRANCH  23  24
ATOM     24  C   UNL     1       8.159   7.943  17.419  0.00  0.00    +0.000 C 
BRANCH  24  25
ATOM     25  C   UNL     1       7.739   9.329  17.917  0.00  0.00    +0.000 C 
BRANCH  25  26
ATOM     26  C   UNL     1       8.894  10.075  18.537  0.00  0.00    +0.000 C 
ATOM     27  O   UNL     1       9.388   9.834  19.632  0.00  0.00    +0.000 OA
BRANCH  26  29
ATOM     28  C   UNL     1      10.311  11.908  18.255  0.00  0.00    +0.000 C 
ATOM     29  O   UNL     1       9.286  11.078  17.705  0.00  0.00    +0.000 OA
ENDBRANCH  26  29
ENDBRANCH  25  26
ENDBRANCH  24  25
ENDBRANCH  23  24
ENDBRANCH   1  23
TORSDOF 8
ENDMDL
