MODEL 1
REMARK VINA RESULT:      -7.7      0.000      0.000
REMARK  Name = 
REMARK  5 active torsions:
REMARK  status: ('A' for Active; 'I' for Inactive)
REMARK    1  A    between atoms: N_3  and  C_4
REMARK    2  A    between atoms: C_4  and  C_5
REMARK    3  A    between atoms: C_4  and  C_23
REMARK    4  A    between atoms: C_11  and  C_12
REMARK    5  A    between atoms: C_14  and  C_15
REMARK                            x       y       z     vdW  Elec       q    Type
REMARK                         _______ _______ _______ _____ _____    ______ ____
ROOT
ATOM      1  C   UNL     1       0.699  10.859  21.144  0.00  0.00    +0.000 C 
ATOM      2  O   UNL     1       1.044  10.469  22.264  0.00  0.00    +0.000 OA
ATOM      3  N   UNL     1       0.842  10.041  20.034  0.00  0.00    +0.000 N 
ATOM      4  C   UNL     1       1.089   8.618  20.139  0.00  0.00    +0.000 C 
ATOM      5  C   UNL     1       1.957   8.341  18.928  0.00  0.00    +0.000 C 
ATOM      6  C   UNL     1       1.412   9.286  17.854  0.00  0.00    +0.000 C 
ATOM      7  C   UNL     1       0.711  10.422  18.622  0.00  0.00    +0.000 C 
ENDROOT
BRANCH   7   8
ATOM      8  C   UNL     1      -0.735  10.485  18.258  0.00  0.00    +0.000 A 
ATOM      9  N   UNL     1      -1.660  11.313  18.688  0.00  0.00    +0.000 NA
ATOM     10  C   UNL     1      -2.766  10.934  17.964  0.00  0.00    +0.000 A 
ATOM     11  N   UNL     1      -2.540   9.899  17.135  0.00  0.00    +0.000 NA
ATOM     12  O   UNL     1      -1.189   9.606  17.326  0.00  0.00    +0.000 OA
BRANCH  10  13
ATOM     13  C   UNL     1      -4.037  11.630  18.103  0.00  0.00    +0.000 A 
ATOM     14  C   UNL     1      -4.402  12.191  19.338  0.00  0.00    +0.000 A 
ATOM     15  C   UNL     1      -5.618  12.860  19.486  0.00  0.00    +0.000 A 
ATOM     16  C   UNL     1      -6.480  12.978  18.399  0.00  0.00    +0.000 A 
ATOM     17  C   UNL     1      -6.130  12.431  17.165  0.00  0.00    +0.000 A 
ATOM     18  C   UNL     1      -4.913  11.762  17.017  0.00  0.00    +0.000 A 
ENDBRANCH  10  13
ENDBRANCH   7   8
BRANCH   1  19
ATOM     19  C   UNL     1       0.179  12.310  20.909  0.00  0.00    +0.000 C 
BRANCH  19  22
ATOM     20  O   UNL     1       0.468  13.949  18.749  0.00  0.00    +0.000 OA
ATOM     21  C   UNL     1       1.309  14.058  19.639  0.00  0.00    +0.000 C 
ATOM     22  N   UNL     1       1.273  13.263  20.754  0.00  0.00    +0.000 N 
ATOM     23  N   UNL     1       2.374  14.920  19.528  0.00  0.00    +0.000 N 
ATOM     24  C   UNL     1       2.446  15.811  18.363  0.00  0.00    +0.000 C 
ATOM     25  C   UNL     1       3.826  15.737  17.705  0.00  0.00    +0.000 C 
ATOM     26  O   UNL     1       4.863  16.019  18.659  0.00  0.00    +0.000 OA
ATOM     27  C   UNL     1       4.831  15.066  19.731  0.00  0.00    +0.000 C 
ATOM     28  C   UNL     1       3.486  15.091  20.469  0.00  0.00    +0.000 C 
ATOM     29  H   UNL     1       1.629  13.654  21.618  0.00  0.00    +0.000 HD
ENDBRANCH  19  22
BRANCH  19  30
ATOM     30  C   UNL     1      -0.823  12.740  21.972  0.00  0.00    +0.000 A 
ATOM     31  C   UNL     1      -1.989  11.978  22.156  0.00  0.00    +0.000 A 
ATOM     32  C   UNL     1      -2.927  12.328  23.124  0.00  0.00    +0.000 A 
ATOM     33  C   UNL     1      -2.715  13.449  23.921  0.00  0.00    +0.000 A 
ATOM     34  C   UNL     1      -1.564  14.217  23.752  0.00  0.00    +0.000 A 
ATOM     35  C   UNL     1      -0.620  13.864  22.785  0.00  0.00    +0.000 A 
ENDBRANCH  19  30
ENDBRANCH   1  19
TORSDOF 5
ENDMDL
MODEL 2
REMARK VINA RESULT:      -7.7      0.117      1.176
REMARK  Name = 
REMARK  5 active torsions:
REMARK  status: ('A' for Active; 'I' for Inactive)
REMARK    1  A    between atoms: N_3  and  C_4
REMARK    2  A    between atoms: C_4  and  C_5
REMARK    3  A    between atoms: C_4  and  C_23
REMARK    4  A    between atoms: C_11  and  C_12
REMARK    5  A    between atoms: C_14  and  C_15
REMARK                            x       y       z     vdW  Elec       q    Type
REMARK                         _______ _______ _______ _____ _____    ______ ____
ROOT
ATOM      1  C   UNL     1       0.748  10.835  21.141  0.00  0.00    +0.000 C 
ATOM      2  O   UNL     1       1.098  10.431  22.255  0.00  0.00    +0.000 OA
ATOM      3  N   UNL     1       0.879  10.029  20.021  0.00  0.00    +0.000 N 
ATOM      4  C   UNL     1       1.121   8.605  20.108  0.00  0.00    +0.000 C 
ATOM      5  C   UNL     1       1.980   8.338  18.889  0.00  0.00    +0.000 C 
ATOM      6  C   UNL     1       1.432   9.298  17.829  0.00  0.00    +0.000 C 
ATOM      7  C   UNL     1       0.742  10.428  18.614  0.00  0.00    +0.000 C 
ENDROOT
BRANCH   7   8
ATOM      8  C   UNL     1      -0.706  10.502  18.261  0.00  0.00    +0.000 A 
ATOM      9  N   UNL     1      -1.630  11.314  18.723  0.00  0.00    +0.000 NA
ATOM     10  C   UNL     1      -2.740  10.958  17.993  0.00  0.00    +0.000 A 
ATOM     11  N   UNL     1      -2.517   9.951  17.129  0.00  0.00    +0.000 NA
ATOM     12  O   UNL     1      -1.165   9.653  17.303  0.00  0.00    +0.000 OA
BRANCH  10  13
ATOM     13  C   UNL     1      -4.011  11.648  18.162  0.00  0.00    +0.000 A 
ATOM     14  C   UNL     1      -4.920  11.722  17.094  0.00  0.00    +0.000 A 
ATOM     15  C   UNL     1      -6.142  12.380  17.242  0.00  0.00    +0.000 A 
ATOM     16  C   UNL     1      -6.468  12.969  18.462  0.00  0.00    +0.000 A 
ATOM     17  C   UNL     1      -5.577  12.899  19.533  0.00  0.00    +0.000 A 
ATOM     18  C   UNL     1      -4.355  12.239  19.385  0.00  0.00    +0.000 A 
ENDBRANCH  10  13
ENDBRANCH   7   8
BRANCH   1  19
ATOM     19  C   UNL     1       0.233  12.291  20.927  0.00  0.00    +0.000 C 
BRANCH  19  22
ATOM     20  O   UNL     1       0.626  13.901  18.761  0.00  0.00    +0.000 OA
ATOM     21  C   UNL     1       1.420  14.026  19.691  0.00  0.00    +0.000 C 
ATOM     22  N   UNL     1       1.330  13.247  20.815  0.00  0.00    +0.000 N 
ATOM     23  N   UNL     1       2.487  14.891  19.623  0.00  0.00    +0.000 N 
ATOM     24  C   UNL     1       2.615  15.766  18.450  0.00  0.00    +0.000 C 
ATOM     25  C   UNL     1       4.028  15.688  17.864  0.00  0.00    +0.000 C 
ATOM     26  O   UNL     1       5.013  15.988  18.866  0.00  0.00    +0.000 OA
ATOM     27  C   UNL     1       4.930  15.050  19.949  0.00  0.00    +0.000 C 
ATOM     28  C   UNL     1       3.548  15.080  20.616  0.00  0.00    +0.000 C 
ATOM     29  H   UNL     1       1.640  13.651  21.690  0.00  0.00    +0.000 HD
ENDBRANCH  19  22
BRANCH  19  30
ATOM     30  C   UNL     1      -0.790  12.700  21.978  0.00  0.00    +0.000 A 
ATOM     31  C   UNL     1      -0.577  13.879  22.712  0.00  0.00    +0.000 A 
ATOM     32  C   UNL     1      -1.492  14.298  23.675  0.00  0.00    +0.000 A 
ATOM     33  C   UNL     1      -2.632  13.540  23.923  0.00  0.00    +0.000 A 
ATOM     34  C   UNL     1      -2.859  12.366  23.204  0.00  0.00    +0.000 A 
ATOM     35  C   UNL     1      -1.946  11.948  22.235  0.00  0.00    +0.000 A 
ENDBRANCH  19  30
ENDBRANCH   1  19
TORSDOF 5
ENDMDL
MODEL 3
REMARK VINA RESULT:      -7.5      6.468     10.530
REMARK  Name = 
REMARK  5 active torsions:
REMARK  status: ('A' for Active; 'I' for Inactive)
REMARK    1  A    between atoms: N_3  and  C_4
REMARK    2  A    between atoms: C_4  and  C_5
REMARK    3  A    between atoms: C_4  and  C_23
REMARK    4  A    between atoms: C_11  and  C_12
REMARK    5  A    between atoms: C_14  and  C_15
REMARK                            x       y       z     vdW  Elec       q    Type
REMARK                         _______ _______ _______ _____ _____    ______ ____
ROOT
ATOM      1  C   UNL     1       5.220   5.181  18.741  0.00  0.00    +0.000 C 
ATOM      2  O   UNL     1       5.194   4.643  19.853  0.00  0.00    +0.000 OA
ATOM      3  N   UNL     1       6.337   5.885  18.321  0.00  0.00    +0.000 N 
ATOM      4  C   UNL     1       7.621   5.780  18.981  0.00  0.00    +0.000 C 
ATOM      5  C   UNL     1       8.197   7.172  18.815  0.00  0.00    +0.000 C 
ATOM      6  C   UNL     1       7.703   7.617  17.435  0.00  0.00    +0.000 C 
ATOM      7  C   UNL     1       6.447   6.772  17.155  0.00  0.00    +0.000 C 
ENDROOT
BRANCH   7   8
ATOM      8  C   UNL     1       6.633   5.949  15.924  0.00  0.00    +0.000 A 
ATOM      9  N   UNL     1       5.743   5.258  15.249  0.00  0.00    +0.000 NA
ATOM     10  C   UNL     1       6.477   4.771  14.192  0.00  0.00    +0.000 A 
ATOM     11  N   UNL     1       7.772   5.128  14.225  0.00  0.00    +0.000 NA
ATOM     12  O   UNL     1       7.875   5.916  15.372  0.00  0.00    +0.000 OA
BRANCH  10  13
ATOM     13  C   UNL     1       5.859   3.962  13.151  0.00  0.00    +0.000 A 
ATOM     14  C   UNL     1       6.584   2.927  12.539  0.00  0.00    +0.000 A 
ATOM     15  C   UNL     1       6.004   2.144  11.539  0.00  0.00    +0.000 A 
ATOM     16  C   UNL     1       4.691   2.387  11.144  0.00  0.00    +0.000 A 
ATOM     17  C   UNL     1       3.956   3.408  11.746  0.00  0.00    +0.000 A 
ATOM     18  C   UNL     1       4.536   4.190  12.747  0.00  0.00    +0.000 A 
ENDBRANCH  10  13
ENDBRANCH   7   8
BRANCH   1  19
ATOM     19  C   UNL     1       3.976   5.173  17.802  0.00  0.00    +0.000 C 
BRANCH  19  22
ATOM     20  O   UNL     1       2.959   6.320  20.058  0.00  0.00    +0.000 OA
ATOM     21  C   UNL     1       2.826   6.952  19.012  0.00  0.00    +0.000 C 
ATOM     22  N   UNL     1       3.274   6.454  17.816  0.00  0.00    +0.000 N 
ATOM     23  N   UNL     1       2.148   8.148  18.967  0.00  0.00    +0.000 N 
ATOM     24  C   UNL     1       1.668   8.736  20.224  0.00  0.00    +0.000 C 
ATOM     25  C   UNL     1       0.193   9.134  20.111  0.00  0.00    +0.000 C 
ATOM     26  O   UNL     1      -0.013  10.015  18.994  0.00  0.00    +0.000 OA
ATOM     27  C   UNL     1       0.368   9.370  17.769  0.00  0.00    +0.000 C 
ATOM     28  C   UNL     1       1.846   8.959  17.784  0.00  0.00    +0.000 C 
ATOM     29  H   UNL     1       3.581   7.120  17.118  0.00  0.00    +0.000 HD
ENDBRANCH  19  22
BRANCH  19  30
ATOM     30  C   UNL     1       3.049   3.999  18.084  0.00  0.00    +0.000 A 
ATOM     31  C   UNL     1       3.605   2.718  18.246  0.00  0.00    +0.000 A 
ATOM     32  C   UNL     1       2.797   1.616  18.517  0.00  0.00    +0.000 A 
ATOM     33  C   UNL     1       1.419   1.778  18.626  0.00  0.00    +0.000 A 
ATOM     34  C   UNL     1       0.851   3.042  18.468  0.00  0.00    +0.000 A 
ATOM     35  C   UNL     1       1.660   4.148  18.202  0.00  0.00    +0.000 A 
ENDBRANCH  19  30
ENDBRANCH   1  19
TORSDOF 5
ENDMDL
MODEL 4
REMARK VINA RESULT:      -7.4      1.039      1.122
REMARK  Name = 
REMARK  5 active torsions:
REMARK  status: ('A' for Active; 'I' for Inactive)
REMARK    1  A    between atoms: N_3  and  C_4
REMARK    2  A    between atoms: C_4  and  C_5
REMARK    3  A    between atoms: C_4  and  C_23
REMARK    4  A    between atoms: C_11  and  C_12
REMARK    5  A    between atoms: C_14  and  C_15
REMARK                            x       y       z     vdW  Elec       q    Type
REMARK                         _______ _______ _______ _____ _____    ______ ____
ROOT
ATOM      1  C   UNL     1      -0.037  11.381  21.517  0.00  0.00    +0.000 C 
ATOM      2  O   UNL     1       0.340  11.004  22.631  0.00  0.00    +0.000 OA
ATOM      3  N   UNL     1       0.179  10.598  20.394  0.00  0.00    +0.000 N 
ATOM      4  C   UNL     1       0.551   9.202  20.474  0.00  0.00    +0.000 C 
ATOM      5  C   UNL     1       1.442   9.024  19.262  0.00  0.00    +0.000 C 
ATOM      6  C   UNL     1       0.817   9.936  18.202  0.00  0.00    +0.000 C 
ATOM      7  C   UNL     1       0.017  10.991  18.988  0.00  0.00    +0.000 C 
ENDROOT
BRANCH   7   8
ATOM      8  C   UNL     1      -1.428  10.933  18.621  0.00  0.00    +0.000 A 
ATOM      9  N   UNL     1      -2.398  11.758  18.946  0.00  0.00    +0.000 NA
ATOM     10  C   UNL     1      -3.479  11.233  18.276  0.00  0.00    +0.000 A 
ATOM     11  N   UNL     1      -3.194  10.117  17.582  0.00  0.00    +0.000 NA
ATOM     12  O   UNL     1      -1.830   9.921  17.806  0.00  0.00    +0.000 OA
BRANCH  10  13
ATOM     13  C   UNL     1      -4.785  11.873  18.329  0.00  0.00    +0.000 A 
ATOM     14  C   UNL     1      -5.326  12.269  19.564  0.00  0.00    +0.000 A 
ATOM     15  C   UNL     1      -6.578  12.883  19.630  0.00  0.00    +0.000 A 
ATOM     16  C   UNL     1      -7.300  13.111  18.461  0.00  0.00    +0.000 A 
ATOM     17  C   UNL     1      -6.774  12.729  17.227  0.00  0.00    +0.000 A 
ATOM     18  C   UNL     1      -5.521  12.115  17.162  0.00  0.00    +0.000 A 
ENDBRANCH  10  13
ENDBRANCH   7   8
BRANCH   1  19
ATOM     19  C   UNL     1      -0.684  12.784  21.306  0.00  0.00    +0.000 C 
BRANCH  19  22
ATOM     20  O   UNL     1      -0.739  14.621  19.291  0.00  0.00    +0.000 OA
ATOM     21  C   UNL     1       0.184  14.716  20.097  0.00  0.00    +0.000 C 
ATOM     22  N   UNL     1       0.323  13.827  21.131  0.00  0.00    +0.000 N 
ATOM     23  N   UNL     1       1.172  15.663  19.960  0.00  0.00    +0.000 N 
ATOM     24  C   UNL     1       1.059  16.654  18.882  0.00  0.00    +0.000 C 
ATOM     25  C   UNL     1       2.361  16.741  18.082  0.00  0.00    +0.000 C 
ATOM     26  O   UNL     1       3.475  17.017  18.948  0.00  0.00    +0.000 OA
ATOM     27  C   UNL     1       3.622  15.975  19.924  0.00  0.00    +0.000 C 
ATOM     28  C   UNL     1       2.366  15.834  20.794  0.00  0.00    +0.000 C 
ATOM     29  H   UNL     1       0.743  14.167  21.987  0.00  0.00    +0.000 HD
ENDBRANCH  19  22
BRANCH  19  30
ATOM     30  C   UNL     1      -1.690  13.123  22.397  0.00  0.00    +0.000 A 
ATOM     31  C   UNL     1      -2.901  12.411  22.450  0.00  0.00    +0.000 A 
ATOM     32  C   UNL     1      -3.846  12.680  23.437  0.00  0.00    +0.000 A 
ATOM     33  C   UNL     1      -3.596  13.669  24.385  0.00  0.00    +0.000 A 
ATOM     34  C   UNL     1      -2.401  14.385  24.346  0.00  0.00    +0.000 A 
ATOM     35  C   UNL     1      -1.450  14.113  23.360  0.00  0.00    +0.000 A 
ENDBRANCH  19  30
ENDBRANCH   1  19
TORSDOF 5
ENDMDL
MODEL 5
REMARK VINA RESULT:      -7.4      1.067      1.643
REMARK  Name = 
REMARK  5 active torsions:
REMARK  status: ('A' for Active; 'I' for Inactive)
REMARK    1  A    between atoms: N_3  and  C_4
REMARK    2  A    between atoms: C_4  and  C_5
REMARK    3  A    between atoms: C_4  and  C_23
REMARK    4  A    between atoms: C_11  and  C_12
REMARK    5  A    between atoms: C_14  and  C_15
REMARK                            x       y       z     vdW  Elec       q    Type
REMARK                         _______ _______ _______ _____ _____    ______ ____
ROOT
ATOM      1  C   UNL     1      -0.041  11.386  21.513  0.00  0.00    +0.000 C 
ATOM      2  O   UNL     1       0.358  11.007  22.620  0.00  0.00    +0.000 OA
ATOM      3  N   UNL     1       0.164  10.611  20.383  0.00  0.00    +0.000 N 
ATOM      4  C   UNL     1       0.549   9.217  20.450  0.00  0.00    +0.000 C 
ATOM      5  C   UNL     1       1.421   9.052  19.223  0.00  0.00    +0.000 C 
ATOM      6  C   UNL     1       0.771   9.964  18.178  0.00  0.00    +0.000 C 
ATOM      7  C   UNL     1      -0.024  11.009  18.982  0.00  0.00    +0.000 C 
ENDROOT
BRANCH   7   8
ATOM      8  C   UNL     1      -1.475  10.940  18.638  0.00  0.00    +0.000 A 
ATOM      9  N   UNL     1      -2.440  11.773  18.956  0.00  0.00    +0.000 NA
ATOM     10  C   UNL     1      -3.531  11.230  18.316  0.00  0.00    +0.000 A 
ATOM     11  N   UNL     1      -3.255  10.097  17.648  0.00  0.00    +0.000 NA
ATOM     12  O   UNL     1      -1.888   9.907  17.856  0.00  0.00    +0.000 OA
BRANCH  10  13
ATOM     13  C   UNL     1      -4.837  11.871  18.373  0.00  0.00    +0.000 A 
ATOM     14  C   UNL     1      -5.555  12.112  17.190  0.00  0.00    +0.000 A 
ATOM     15  C   UNL     1      -6.808  12.726  17.230  0.00  0.00    +0.000 A 
ATOM     16  C   UNL     1      -7.358  13.101  18.454  0.00  0.00    +0.000 A 
ATOM     17  C   UNL     1      -6.659  12.862  19.637  0.00  0.00    +0.000 A 
ATOM     18  C   UNL     1      -5.406  12.247  19.597  0.00  0.00    +0.000 A 
ENDBRANCH  10  13
ENDBRANCH   7   8
BRANCH   1  19
ATOM     19  C   UNL     1      -0.702  12.784  21.320  0.00  0.00    +0.000 C 
BRANCH  19  22
ATOM     20  O   UNL     1      -0.705  14.620  19.303  0.00  0.00    +0.000 OA
ATOM     21  C   UNL     1       0.182  14.731  20.146  0.00  0.00    +0.000 C 
ATOM     22  N   UNL     1       0.293  13.844  21.185  0.00  0.00    +0.000 N 
ATOM     23  N   UNL     1       1.159  15.694  20.049  0.00  0.00    +0.000 N 
ATOM     24  C   UNL     1       1.073  16.682  18.967  0.00  0.00    +0.000 C 
ATOM     25  C   UNL     1       2.406  16.791  18.221  0.00  0.00    +0.000 C 
ATOM     26  O   UNL     1       3.478  17.087  19.132  0.00  0.00    +0.000 OA
ATOM     27  C   UNL     1       3.603  16.047  20.114  0.00  0.00    +0.000 C 
ATOM     28  C   UNL     1       2.314  15.886  20.932  0.00  0.00    +0.000 C 
ATOM     29  H   UNL     1       0.672  14.192  22.058  0.00  0.00    +0.000 HD
ENDBRANCH  19  22
BRANCH  19  30
ATOM     30  C   UNL     1      -1.733  13.087  22.399  0.00  0.00    +0.000 A 
ATOM     31  C   UNL     1      -1.444  14.072  23.358  0.00  0.00    +0.000 A 
ATOM     32  C   UNL     1      -2.362  14.390  24.357  0.00  0.00    +0.000 A 
ATOM     33  C   UNL     1      -3.582  13.723  24.413  0.00  0.00    +0.000 A 
ATOM     34  C   UNL     1      -3.885  12.742  23.470  0.00  0.00    +0.000 A 
ATOM     35  C   UNL     1      -2.968  12.426  22.465  0.00  0.00    +0.000 A 
ENDBRANCH  19  30
ENDBRANCH   1  19
TORSDOF 5
ENDMDL
MODEL 6
REMARK VINA RESULT:      -7.3      2.152      6.120
REMARK  Name = 
REMARK  5 active torsions:
REMARK  status: ('A' for Active; 'I' for Inactive)
REMARK    1  A    between atoms: N_3  and  C_4
REMARK    2  A    between atoms: C_4  and  C_5
REMARK    3  A    between atoms: C_4  and  C_23
REMARK    4  A    between atoms: C_11  and  C_12
REMARK    5  A    between atoms: C_14  and  C_15
REMARK                            x       y       z     vdW  Elec       q    Type
REMARK                         _______ _______ _______ _____ _____    ______ ____
ROOT
ATOM      1  C   UNL     1      -2.997  12.447  20.358  0.00  0.00    +0.000 C 
ATOM      2  O   UNL     1      -4.189  12.543  20.047  0.00  0.00    +0.000 OA
ATOM      3  N   UNL     1      -2.606  12.496  21.687  0.00  0.00    +0.000 N 
ATOM      4  C   UNL     1      -3.540  12.341  22.783  0.00  0.00    +0.000 C 
ATOM      5  C   UNL     1      -2.952  13.239  23.851  0.00  0.00    +0.000 C 
ATOM      6  C   UNL     1      -1.438  13.096  23.668  0.00  0.00    +0.000 C 
ATOM      7  C   UNL     1      -1.241  12.638  22.211  0.00  0.00    +0.000 C 
ENDROOT
BRANCH   7   8
ATOM      8  C   UNL     1      -0.554  11.314  22.167  0.00  0.00    +0.000 A 
ATOM      9  N   UNL     1      -0.142  10.631  21.123  0.00  0.00    +0.000 NA
ATOM     10  C   UNL     1       0.464   9.538  21.696  0.00  0.00    +0.000 A 
ATOM     11  N   UNL     1       0.410   9.534  23.040  0.00  0.00    +0.000 NA
ATOM     12  O   UNL     1      -0.260  10.717  23.353  0.00  0.00    +0.000 OA
BRANCH  10  13
ATOM     13  C   UNL     1       1.105   8.515  20.883  0.00  0.00    +0.000 A 
ATOM     14  C   UNL     1       1.588   8.833  19.603  0.00  0.00    +0.000 A 
ATOM     15  C   UNL     1       2.205   7.861  18.812  0.00  0.00    +0.000 A 
ATOM     16  C   UNL     1       2.348   6.563  19.296  0.00  0.00    +0.000 A 
ATOM     17  C   UNL     1       1.879   6.233  20.567  0.00  0.00    +0.000 A 
ATOM     18  C   UNL     1       1.262   7.206  21.358  0.00  0.00    +0.000 A 
ENDBRANCH  10  13
ENDBRANCH   7   8
BRANCH   1  19
ATOM     19  C   UNL     1      -1.876  12.364  19.278  0.00  0.00    +0.000 C 
BRANCH  19  22
ATOM     20  O   UNL     1       0.765  13.044  19.290  0.00  0.00    +0.000 OA
ATOM     21  C   UNL     1      -0.025  13.912  18.924  0.00  0.00    +0.000 C 
ATOM     22  N   UNL     1      -1.377  13.684  18.907  0.00  0.00    +0.000 N 
ATOM     23  N   UNL     1       0.392  15.180  18.592  0.00  0.00    +0.000 N 
ATOM     24  C   UNL     1       1.831  15.469  18.571  0.00  0.00    +0.000 C 
ATOM     25  C   UNL     1       2.143  16.741  19.364  0.00  0.00    +0.000 C 
ATOM     26  O   UNL     1       1.368  17.849  18.877  0.00  0.00    +0.000 OA
ATOM     27  C   UNL     1      -0.035  17.576  19.010  0.00  0.00    +0.000 C 
ATOM     28  C   UNL     1      -0.444  16.326  18.220  0.00  0.00    +0.000 C 
ATOM     29  H   UNL     1      -1.924  14.171  18.208  0.00  0.00    +0.000 HD
ENDBRANCH  19  22
BRANCH  19  30
ATOM     30  C   UNL     1      -2.302  11.542  18.070  0.00  0.00    +0.000 A 
ATOM     31  C   UNL     1      -1.528  10.430  17.697  0.00  0.00    +0.000 A 
ATOM     32  C   UNL     1      -1.886   9.642  16.605  0.00  0.00    +0.000 A 
ATOM     33  C   UNL     1      -3.023   9.958  15.867  0.00  0.00    +0.000 A 
ATOM     34  C   UNL     1      -3.802  11.058  16.222  0.00  0.00    +0.000 A 
ATOM     35  C   UNL     1      -3.447  11.845  17.320  0.00  0.00    +0.000 A 
ENDBRANCH  19  30
ENDBRANCH   1  19
TORSDOF 5
ENDMDL
MODEL 7
REMARK VINA RESULT:      -7.3      6.331     10.238
REMARK  Name = 
REMARK  5 active torsions:
REMARK  status: ('A' for Active; 'I' for Inactive)
REMARK    1  A    between atoms: N_3  and  C_4
REMARK    2  A    between atoms: C_4  and  C_5
REMARK    3  A    between atoms: C_4  and  C_23
REMARK    4  A    between atoms: C_11  and  C_12
REMARK    5  A    between atoms: C_14  and  C_15
REMARK                            x       y       z     vdW  Elec       q    Type
REMARK                         _______ _______ _______ _____ _____    ______ ____
ROOT
ATOM      1  C   UNL     1       4.900   5.701  19.121  0.00  0.00    +0.000 C 
ATOM      2  O   UNL     1       4.905   5.494  20.338  0.00  0.00    +0.000 OA
ATOM      3  N   UNL     1       6.064   6.056  18.458  0.00  0.00    +0.000 N 
ATOM      4  C   UNL     1       7.377   5.901  19.048  0.00  0.00    +0.000 C 
ATOM      5  C   UNL     1       8.144   7.071  18.466  0.00  0.00    +0.000 C 
ATOM      6  C   UNL     1       7.586   7.214  17.047  0.00  0.00    +0.000 C 
ATOM      7  C   UNL     1       6.191   6.565  17.086  0.00  0.00    +0.000 C 
ENDROOT
BRANCH   7   8
ATOM      8  C   UNL     1       6.117   5.424  16.127  0.00  0.00    +0.000 A 
ATOM      9  N   UNL     1       5.564   5.379  14.936  0.00  0.00    +0.000 NA
ATOM     10  C   UNL     1       5.864   4.106  14.511  0.00  0.00    +0.000 A 
ATOM     11  N   UNL     1       6.557   3.386  15.410  0.00  0.00    +0.000 NA
ATOM     12  O   UNL     1       6.731   4.263  16.481  0.00  0.00    +0.000 OA
BRANCH  10  13
ATOM     13  C   UNL     1       5.463   3.634  13.193  0.00  0.00    +0.000 A 
ATOM     14  C   UNL     1       6.303   2.774  12.467  0.00  0.00    +0.000 A 
ATOM     15  C   UNL     1       5.931   2.314  11.202  0.00  0.00    +0.000 A 
ATOM     16  C   UNL     1       4.712   2.708  10.653  0.00  0.00    +0.000 A 
ATOM     17  C   UNL     1       3.865   3.557  11.364  0.00  0.00    +0.000 A 
ATOM     18  C   UNL     1       4.238   4.016  12.630  0.00  0.00    +0.000 A 
ENDBRANCH  10  13
ENDBRANCH   7   8
BRANCH   1  19
ATOM     19  C   UNL     1       3.579   5.668  18.293  0.00  0.00    +0.000 C 
BRANCH  19  22
ATOM     20  O   UNL     1       3.311   8.087  17.064  0.00  0.00    +0.000 OA
ATOM     21  C   UNL     1       2.567   7.869  18.018  0.00  0.00    +0.000 C 
ATOM     22  N   UNL     1       2.639   6.697  18.724  0.00  0.00    +0.000 N 
ATOM     23  N   UNL     1       1.685   8.817  18.481  0.00  0.00    +0.000 N 
ATOM     24  C   UNL     1       1.553  10.081  17.746  0.00  0.00    +0.000 C 
ATOM     25  C   UNL     1       1.659  11.278  18.696  0.00  0.00    +0.000 C 
ATOM     26  O   UNL     1       0.696  11.173  19.757  0.00  0.00    +0.000 OA
ATOM     27  C   UNL     1       0.919   9.979  20.522  0.00  0.00    +0.000 C 
ATOM     28  C   UNL     1       0.805   8.721  19.650  0.00  0.00    +0.000 C 
ATOM     29  H   UNL     1       1.784   6.351  19.143  0.00  0.00    +0.000 HD
ENDBRANCH  19  22
BRANCH  19  30
ATOM     30  C   UNL     1       2.953   4.280  18.266  0.00  0.00    +0.000 A 
ATOM     31  C   UNL     1       3.748   3.182  17.898  0.00  0.00    +0.000 A 
ATOM     32  C   UNL     1       3.220   1.893  17.871  0.00  0.00    +0.000 A 
ATOM     33  C   UNL     1       1.886   1.684  18.208  0.00  0.00    +0.000 A 
ATOM     34  C   UNL     1       1.082   2.763  18.576  0.00  0.00    +0.000 A 
ATOM     35  C   UNL     1       1.612   4.054  18.608  0.00  0.00    +0.000 A 
ENDBRANCH  19  30
ENDBRANCH   1  19
TORSDOF 5
ENDMDL
MODEL 8
REMARK VINA RESULT:      -7.3      2.110      3.570
REMARK  Name = 
REMARK  5 active torsions:
REMARK  status: ('A' for Active; 'I' for Inactive)
REMARK    1  A    between atoms: N_3  and  C_4
REMARK    2  A    between atoms: C_4  and  C_5
REMARK    3  A    between atoms: C_4  and  C_23
REMARK    4  A    between atoms: C_11  and  C_12
REMARK    5  A    between atoms: C_14  and  C_15
REMARK                            x       y       z     vdW  Elec       q    Type
REMARK                         _______ _______ _______ _____ _____    ______ ____
ROOT
ATOM      1  C   UNL     1      -0.834  10.576  18.252  0.00  0.00    +0.000 C 
ATOM      2  O   UNL     1       0.046   9.714  18.152  0.00  0.00    +0.000 OA
ATOM      3  N   UNL     1      -1.887  10.619  17.353  0.00  0.00    +0.000 N 
ATOM      4  C   UNL     1      -2.205   9.520  16.466  0.00  0.00    +0.000 C 
ATOM      5  C   UNL     1      -2.731  10.227  15.234  0.00  0.00    +0.000 C 
ATOM      6  C   UNL     1      -3.479  11.441  15.791  0.00  0.00    +0.000 C 
ATOM      7  C   UNL     1      -2.869  11.699  17.181  0.00  0.00    +0.000 C 
ENDROOT
BRANCH   7   8
ATOM      8  C   UNL     1      -3.915  11.589  18.239  0.00  0.00    +0.000 A 
ATOM      9  N   UNL     1      -4.024  12.255  19.367  0.00  0.00    +0.000 NA
ATOM     10  C   UNL     1      -5.203  11.776  19.889  0.00  0.00    +0.000 A 
ATOM     11  N   UNL     1      -5.789  10.836  19.126  0.00  0.00    +0.000 NA
ATOM     12  O   UNL     1      -4.937  10.717  18.027  0.00  0.00    +0.000 OA
BRANCH  10  13
ATOM     13  C   UNL     1      -5.736  12.283  21.145  0.00  0.00    +0.000 A 
ATOM     14  C   UNL     1      -4.885  12.915  22.067  0.00  0.00    +0.000 A 
ATOM     15  C   UNL     1      -5.382  13.405  23.276  0.00  0.00    +0.000 A 
ATOM     16  C   UNL     1      -6.736  13.272  23.573  0.00  0.00    +0.000 A 
ATOM     17  C   UNL     1      -7.594  12.652  22.666  0.00  0.00    +0.000 A 
ATOM     18  C   UNL     1      -7.097  12.162  21.456  0.00  0.00    +0.000 A 
ENDBRANCH  10  13
ENDBRANCH   7   8
BRANCH   1  19
ATOM     19  C   UNL     1      -0.754  11.702  19.326  0.00  0.00    +0.000 C 
BRANCH  19  22
ATOM     20  O   UNL     1      -0.840  14.419  19.546  0.00  0.00    +0.000 OA
ATOM     21  C   UNL     1       0.253  13.923  19.281  0.00  0.00    +0.000 C 
ATOM     22  N   UNL     1       0.402  12.571  19.120  0.00  0.00    +0.000 N 
ATOM     23  N   UNL     1       1.365  14.699  19.050  0.00  0.00    +0.000 N 
ATOM     24  C   UNL     1       1.264  16.153  19.232  0.00  0.00    +0.000 C 
ATOM     25  C   UNL     1       1.824  16.895  18.015  0.00  0.00    +0.000 C 
ATOM     26  O   UNL     1       3.173  16.482  17.742  0.00  0.00    +0.000 OA
ATOM     27  C   UNL     1       3.221  15.075  17.465  0.00  0.00    +0.000 C 
ATOM     28  C   UNL     1       2.700  14.247  18.648  0.00  0.00    +0.000 C 
ATOM     29  H   UNL     1       1.295  12.165  19.372  0.00  0.00    +0.000 HD
ENDBRANCH  19  22
BRANCH  19  30
ATOM     30  C   UNL     1      -0.822  11.151  20.744  0.00  0.00    +0.000 A 
ATOM     31  C   UNL     1      -0.210   9.918  21.024  0.00  0.00    +0.000 A 
ATOM     32  C   UNL     1      -0.238   9.381  22.309  0.00  0.00    +0.000 A 
ATOM     33  C   UNL     1      -0.884  10.068  23.333  0.00  0.00    +0.000 A 
ATOM     34  C   UNL     1      -1.497  11.293  23.072  0.00  0.00    +0.000 A 
ATOM     35  C   UNL     1      -1.465  11.835  21.786  0.00  0.00    +0.000 A 
ENDBRANCH  19  30
ENDBRANCH   1  19
TORSDOF 5
ENDMDL
MODEL 9
REMARK VINA RESULT:      -7.2      6.244     10.117
REMARK  Name = 
REMARK  5 active torsions:
REMARK  status: ('A' for Active; 'I' for Inactive)
REMARK    1  A    between atoms: N_3  and  C_4
REMARK    2  A    between atoms: C_4  and  C_5
REMARK    3  A    between atoms: C_4  and  C_23
REMARK    4  A    between atoms: C_11  and  C_12
REMARK    5  A    between atoms: C_14  and  C_15
REMARK                            x       y       z     vdW  Elec       q    Type
REMARK                         _______ _______ _______ _____ _____    ______ ____
ROOT
ATOM      1  C   UNL     1       4.736   5.724  19.256  0.00  0.00    +0.000 C 
ATOM      2  O   UNL     1       4.724   5.513  20.474  0.00  0.00    +0.000 OA
ATOM      3  N   UNL     1       5.920   6.023  18.601  0.00  0.00    +0.000 N 
ATOM      4  C   UNL     1       7.221   5.803  19.197  0.00  0.00    +0.000 C 
ATOM      5  C   UNL     1       8.046   6.936  18.622  0.00  0.00    +0.000 C 
ATOM      6  C   UNL     1       7.504   7.109  17.201  0.00  0.00    +0.000 C 
ATOM      7  C   UNL     1       6.078   6.529  17.231  0.00  0.00    +0.000 C 
ENDROOT
BRANCH   7   8
ATOM      8  C   UNL     1       5.955   5.395  16.268  0.00  0.00    +0.000 A 
ATOM      9  N   UNL     1       5.700   5.428  14.979  0.00  0.00    +0.000 NA
ATOM     10  C   UNL     1       5.772   4.102  14.622  0.00  0.00    +0.000 A 
ATOM     11  N   UNL     1       6.038   3.279  15.652  0.00  0.00    +0.000 NA
ATOM     12  O   UNL     1       6.166   4.139  16.744  0.00  0.00    +0.000 OA
BRANCH  10  13
ATOM     13  C   UNL     1       5.587   3.679  13.241  0.00  0.00    +0.000 A 
ATOM     14  C   UNL     1       4.307   3.701  12.663  0.00  0.00    +0.000 A 
ATOM     15  C   UNL     1       4.115   3.298  11.341  0.00  0.00    +0.000 A 
ATOM     16  C   UNL     1       5.203   2.871  10.582  0.00  0.00    +0.000 A 
ATOM     17  C   UNL     1       6.480   2.848  11.141  0.00  0.00    +0.000 A 
ATOM     18  C   UNL     1       6.672   3.253  12.464  0.00  0.00    +0.000 A 
ENDBRANCH  10  13
ENDBRANCH   7   8
BRANCH   1  19
ATOM     19  C   UNL     1       3.420   5.756  18.421  0.00  0.00    +0.000 C 
BRANCH  19  22
ATOM     20  O   UNL     1       3.261   8.140  17.107  0.00  0.00    +0.000 OA
ATOM     21  C   UNL     1       2.523   7.998  18.080  0.00  0.00    +0.000 C 
ATOM     22  N   UNL     1       2.543   6.850  18.828  0.00  0.00    +0.000 N 
ATOM     23  N   UNL     1       1.700   9.008  18.520  0.00  0.00    +0.000 N 
ATOM     24  C   UNL     1       1.624  10.250  17.740  0.00  0.00    +0.000 C 
ATOM     25  C   UNL     1       1.810  11.473  18.643  0.00  0.00    +0.000 C 
ATOM     26  O   UNL     1       0.861  11.460  19.722  0.00  0.00    +0.000 OA
ATOM     27  C   UNL     1       1.032  10.284  20.527  0.00  0.00    +0.000 C 
ATOM     28  C   UNL     1       0.836   9.003  19.705  0.00  0.00    +0.000 C 
ATOM     29  H   UNL     1       1.678   6.566  19.272  0.00  0.00    +0.000 HD
ENDBRANCH  19  22
BRANCH  19  30
ATOM     30  C   UNL     1       2.708   4.410  18.417  0.00  0.00    +0.000 A 
ATOM     31  C   UNL     1       1.639   4.204  19.306  0.00  0.00    +0.000 A 
ATOM     32  C   UNL     1       0.952   2.993  19.329  0.00  0.00    +0.000 A 
ATOM     33  C   UNL     1       1.326   1.967  18.466  0.00  0.00    +0.000 A 
ATOM     34  C   UNL     1       2.385   2.154  17.578  0.00  0.00    +0.000 A 
ATOM     35  C   UNL     1       3.072   3.370  17.550  0.00  0.00    +0.000 A 
ENDBRANCH  19  30
ENDBRANCH   1  19
TORSDOF 5
ENDMDL
