MODEL 1
REMARK VINA RESULT:      -8.0      0.000      0.000
REMARK  Name = 
REMARK  12 active torsions:
REMARK  status: ('A' for Active; 'I' for Inactive)
REMARK    1  A    between atoms: C_1  and  O_2
REMARK    2  A    between atoms: O_2  and  C_3
REMARK    3  A    between atoms: C_6  and  C_7
REMARK    4  A    between atoms: C_7  and  C_8
REMARK    5  A    between atoms: C_8  and  O_9
REMARK    6  A    between atoms: C_8  and  C_21
REMARK    7  A    between atoms: O_9  and  C_10
REMARK    8  A    between atoms: C_10  and  C_12
REMARK    9  A    between atoms: C_13  and  C_14
REMARK   10  A    between atoms: C_21  and  O_23
REMARK   11  A    between atoms: C_25  and  O_26
REMARK   12  A    between atoms: O_26  and  C_27
REMARK                            x       y       z     vdW  Elec       q    Type
REMARK                         _______ _______ _______ _____ _____    ______ ____
ROOT
ATOM      1  C   UNL     1       3.307   3.113  19.058  0.00  0.00    +0.000 C 
ENDROOT
BRANCH   1   2
ATOM      2  C   UNL     1       4.129   1.828  19.209  0.00  0.00    +0.000 C 
ATOM      3  O   UNL     1       3.907   0.815  18.559  0.00  0.00    +0.000 OA
BRANCH   2   4
ATOM      4  O   UNL     1       5.116   1.874  20.132  0.00  0.00    +0.000 OA
ATOM      5  H   UNL     1       5.344   2.783  20.445  0.00  0.00    +0.000 HD
ENDBRANCH   2   4
ENDBRANCH   1   2
BRANCH   1   6
ATOM      6  C   UNL     1       3.272   3.532  17.574  0.00  0.00    +0.000 C 
BRANCH   6  10
ATOM      7  C   UNL     1       6.540   6.232  16.863  0.00  0.00    +0.000 A 
ATOM      8  C   UNL     1       5.778   6.330  18.040  0.00  0.00    +0.000 A 
ATOM      9  C   UNL     1       4.688   5.493  18.262  0.00  0.00    +0.000 A 
ATOM     10  C   UNL     1       4.300   4.590  17.276  0.00  0.00    +0.000 A 
ATOM     11  C   UNL     1       4.951   4.615  16.038  0.00  0.00    +0.000 A 
ATOM     12  C   UNL     1       6.084   5.412  15.821  0.00  0.00    +0.000 A 
BRANCH   7  14
ATOM     13  C   UNL     1       7.794   8.105  17.561  0.00  0.00    +0.000 C 
ATOM     14  O   UNL     1       7.708   6.937  16.736  0.00  0.00    +0.000 OA
ENDBRANCH   7  14
BRANCH  12  15
ATOM     15  O   UNL     1       6.601   5.205  14.573  0.00  0.00    +0.000 OA
ATOM     16  C   UNL     1       6.291   4.022  13.858  0.00  0.00    +0.000 C 
ENDBRANCH  12  15
ENDBRANCH   6  10
ENDBRANCH   1   6
BRANCH   1  17
ATOM     17  O   UNL     1       2.029   3.098  19.733  0.00  0.00    +0.000 OA
BRANCH  17  18
ATOM     18  C   UNL     1       1.887   3.763  20.897  0.00  0.00    +0.000 C 
ATOM     19  O   UNL     1       2.268   3.363  21.987  0.00  0.00    +0.000 OA
BRANCH  18  20
ATOM     20  C   UNL     1       1.330   5.104  20.609  0.00  0.00    +0.000 C 
ATOM     21  C   UNL     1       2.145   6.167  20.500  0.00  0.00    +0.000 C 
BRANCH  21  22
ATOM     22  C   UNL     1       1.722   7.505  20.052  0.00  0.00    +0.000 A 
ATOM     23  C   UNL     1       1.093   8.366  20.974  0.00  0.00    +0.000 A 
ATOM     24  C   UNL     1       0.792   9.687  20.627  0.00  0.00    +0.000 A 
ATOM     25  C   UNL     1       1.120  10.162  19.357  0.00  0.00    +0.000 A 
ATOM     26 BR   UNL     1       0.772  11.964  18.902  0.00  0.00    +0.000 Br
ATOM     27  C   UNL     1       1.736   9.324  18.432  0.00  0.00    +0.000 A 
ATOM     28  C   UNL     1       2.036   8.002  18.782  0.00  0.00    +0.000 A 
ENDBRANCH  21  22
ENDBRANCH  18  20
ENDBRANCH  17  18
ENDBRANCH   1  17
TORSDOF 10
ENDMDL
MODEL 2
REMARK VINA RESULT:      -7.5      0.911      1.180
REMARK  Name = 
REMARK  12 active torsions:
REMARK  status: ('A' for Active; 'I' for Inactive)
REMARK    1  A    between atoms: C_1  and  O_2
REMARK    2  A    between atoms: O_2  and  C_3
REMARK    3  A    between atoms: C_6  and  C_7
REMARK    4  A    between atoms: C_7  and  C_8
REMARK    5  A    between atoms: C_8  and  O_9
REMARK    6  A    between atoms: C_8  and  C_21
REMARK    7  A    between atoms: O_9  and  C_10
REMARK    8  A    between atoms: C_10  and  C_12
REMARK    9  A    between atoms: C_13  and  C_14
REMARK   10  A    between atoms: C_21  and  O_23
REMARK   11  A    between atoms: C_25  and  O_26
REMARK   12  A    between atoms: O_26  and  C_27
REMARK                            x       y       z     vdW  Elec       q    Type
REMARK                         _______ _______ _______ _____ _____    ______ ____
ROOT
ATOM      1  C   UNL     1       4.368   2.875  20.007  0.00  0.00    +0.000 C 
ENDROOT
BRANCH   1   2
ATOM      2  C   UNL     1       4.937   1.485  20.310  0.00  0.00    +0.000 C 
ATOM      3  O   UNL     1       5.497   1.209  21.364  0.00  0.00    +0.000 OA
BRANCH   2   4
ATOM      4  O   UNL     1       4.800   0.572  19.322  0.00  0.00    +0.000 OA
ATOM      5  H   UNL     1       4.033   0.729  18.720  0.00  0.00    +0.000 HD
ENDBRANCH   2   4
ENDBRANCH   1   2
BRANCH   1   6
ATOM      6  C   UNL     1       4.254   3.065  18.481  0.00  0.00    +0.000 C 
BRANCH   6  10
ATOM      7  C   UNL     1       6.754   6.291  17.132  0.00  0.00    +0.000 A 
ATOM      8  C   UNL     1       6.470   6.133  18.500  0.00  0.00    +0.000 A 
ATOM      9  C   UNL     1       5.625   5.122  18.945  0.00  0.00    +0.000 A 
ATOM     10  C   UNL     1       4.993   4.294  18.022  0.00  0.00    +0.000 A 
ATOM     11  C   UNL     1       5.140   4.562  16.657  0.00  0.00    +0.000 A 
ATOM     12  C   UNL     1       6.031   5.541  16.194  0.00  0.00    +0.000 A 
BRANCH   7  14
ATOM     13  C   UNL     1       7.933   8.278  17.611  0.00  0.00    +0.000 C 
ATOM     14  O   UNL     1       7.719   7.174  16.724  0.00  0.00    +0.000 OA
ENDBRANCH   7  14
BRANCH  12  15
ATOM     15  O   UNL     1       6.072   5.562  14.828  0.00  0.00    +0.000 OA
ATOM     16  C   UNL     1       6.630   4.475  14.112  0.00  0.00    +0.000 C 
ENDBRANCH  12  15
ENDBRANCH   6  10
ENDBRANCH   1   6
BRANCH   1  17
ATOM     17  O   UNL     1       3.192   3.228  20.769  0.00  0.00    +0.000 OA
BRANCH  17  18
ATOM     18  C   UNL     1       1.975   3.112  20.201  0.00  0.00    +0.000 C 
ATOM     19  O   UNL     1       1.357   2.066  20.068  0.00  0.00    +0.000 OA
BRANCH  18  20
ATOM     20  C   UNL     1       1.463   4.468  19.901  0.00  0.00    +0.000 C 
ATOM     21  C   UNL     1       2.174   5.553  20.252  0.00  0.00    +0.000 C 
BRANCH  21  22
ATOM     22  C   UNL     1       1.847   6.934  19.857  0.00  0.00    +0.000 A 
ATOM     23  C   UNL     1       1.255   7.793  20.806  0.00  0.00    +0.000 A 
ATOM     24  C   UNL     1       1.046   9.145  20.513  0.00  0.00    +0.000 A 
ATOM     25  C   UNL     1       1.430   9.651  19.271  0.00  0.00    +0.000 A 
ATOM     26 BR   UNL     1       1.207  11.491  18.890  0.00  0.00    +0.000 Br
ATOM     27  C   UNL     1       2.009   8.817  18.321  0.00  0.00    +0.000 A 
ATOM     28  C   UNL     1       2.218   7.464  18.616  0.00  0.00    +0.000 A 
ENDBRANCH  21  22
ENDBRANCH  18  20
ENDBRANCH  17  18
ENDBRANCH   1  17
TORSDOF 10
ENDMDL
MODEL 3
REMARK VINA RESULT:      -7.5      3.181      6.958
REMARK  Name = 
REMARK  12 active torsions:
REMARK  status: ('A' for Active; 'I' for Inactive)
REMARK    1  A    between atoms: C_1  and  O_2
REMARK    2  A    between atoms: O_2  and  C_3
REMARK    3  A    between atoms: C_6  and  C_7
REMARK    4  A    between atoms: C_7  and  C_8
REMARK    5  A    between atoms: C_8  and  O_9
REMARK    6  A    between atoms: C_8  and  C_21
REMARK    7  A    between atoms: O_9  and  C_10
REMARK    8  A    between atoms: C_10  and  C_12
REMARK    9  A    between atoms: C_13  and  C_14
REMARK   10  A    between atoms: C_21  and  O_23
REMARK   11  A    between atoms: C_25  and  O_26
REMARK   12  A    between atoms: O_26  and  C_27
REMARK                            x       y       z     vdW  Elec       q    Type
REMARK                         _______ _______ _______ _____ _____    ______ ____
ROOT
ATOM      1  C   UNL     1       6.685   5.592  15.907  0.00  0.00    +0.000 C 
ENDROOT
BRANCH   1   2
ATOM      2  C   UNL     1       7.024   4.975  14.545  0.00  0.00    +0.000 C 
ATOM      3  O   UNL     1       6.481   3.965  14.118  0.00  0.00    +0.000 OA
BRANCH   2   4
ATOM      4  O   UNL     1       7.987   5.612  13.842  0.00  0.00    +0.000 OA
ATOM      5  H   UNL     1       8.296   5.129  13.037  0.00  0.00    +0.000 HD
ENDBRANCH   2   4
ENDBRANCH   1   2
BRANCH   1   6
ATOM      6  C   UNL     1       6.369   4.470  16.917  0.00  0.00    +0.000 C 
BRANCH   6  10
ATOM      7  C   UNL     1       2.261   4.152  18.140  0.00  0.00    +0.000 A 
ATOM      8  C   UNL     1       2.953   3.024  17.666  0.00  0.00    +0.000 A 
ATOM      9  C   UNL     1       4.268   3.122  17.223  0.00  0.00    +0.000 A 
ATOM     10  C   UNL     1       4.891   4.367  17.181  0.00  0.00    +0.000 A 
ATOM     11  C   UNL     1       4.146   5.510  17.488  0.00  0.00    +0.000 A 
ATOM     12  C   UNL     1       2.839   5.420  17.989  0.00  0.00    +0.000 A 
BRANCH   7  14
ATOM     13  C   UNL     1       1.076   3.581  20.100  0.00  0.00    +0.000 C 
ATOM     14  O   UNL     1       1.034   4.011  18.734  0.00  0.00    +0.000 OA
ENDBRANCH   7  14
BRANCH  12  15
ATOM     15  O   UNL     1       2.346   6.656  18.301  0.00  0.00    +0.000 OA
ATOM     16  C   UNL     1       2.387   7.128  19.636  0.00  0.00    +0.000 C 
ENDBRANCH  12  15
ENDBRANCH   6  10
ENDBRANCH   1   6
BRANCH   1  17
ATOM     17  O   UNL     1       7.614   6.600  16.364  0.00  0.00    +0.000 OA
BRANCH  17  18
ATOM     18  C   UNL     1       7.653   6.919  17.673  0.00  0.00    +0.000 C 
ATOM     19  O   UNL     1       7.614   6.117  18.595  0.00  0.00    +0.000 OA
BRANCH  18  20
ATOM     20  C   UNL     1       7.893   8.374  17.797  0.00  0.00    +0.000 C 
ATOM     21  C   UNL     1       8.647   8.852  18.802  0.00  0.00    +0.000 C 
BRANCH  21  22
ATOM     22  C   UNL     1       9.090  10.253  18.925  0.00  0.00    +0.000 A 
ATOM     23  C   UNL     1       9.661  10.683  20.141  0.00  0.00    +0.000 A 
ATOM     24  C   UNL     1      10.209  11.964  20.259  0.00  0.00    +0.000 A 
ATOM     25  C   UNL     1      10.196  12.826  19.162  0.00  0.00    +0.000 A 
ATOM     26 BR   UNL     1      10.991  14.537  19.295  0.00  0.00    +0.000 Br
ATOM     27  C   UNL     1       9.631  12.420  17.957  0.00  0.00    +0.000 A 
ATOM     28  C   UNL     1       9.083  11.137  17.842  0.00  0.00    +0.000 A 
ENDBRANCH  21  22
ENDBRANCH  18  20
ENDBRANCH  17  18
ENDBRANCH   1  17
TORSDOF 10
ENDMDL
MODEL 4
REMARK VINA RESULT:      -7.4      1.033      1.979
REMARK  Name = 
REMARK  12 active torsions:
REMARK  status: ('A' for Active; 'I' for Inactive)
REMARK    1  A    between atoms: C_1  and  O_2
REMARK    2  A    between atoms: O_2  and  C_3
REMARK    3  A    between atoms: C_6  and  C_7
REMARK    4  A    between atoms: C_7  and  C_8
REMARK    5  A    between atoms: C_8  and  O_9
REMARK    6  A    between atoms: C_8  and  C_21
REMARK    7  A    between atoms: O_9  and  C_10
REMARK    8  A    between atoms: C_10  and  C_12
REMARK    9  A    between atoms: C_13  and  C_14
REMARK   10  A    between atoms: C_21  and  O_23
REMARK   11  A    between atoms: C_25  and  O_26
REMARK   12  A    between atoms: O_26  and  C_27
REMARK                            x       y       z     vdW  Elec       q    Type
REMARK                         _______ _______ _______ _____ _____    ______ ____
ROOT
ATOM      1  C   UNL     1       3.504   3.280  19.042  0.00  0.00    +0.000 C 
ENDROOT
BRANCH   1   2
ATOM      2  C   UNL     1       4.070   1.894  19.370  0.00  0.00    +0.000 C 
ATOM      3  O   UNL     1       3.823   0.899  18.701  0.00  0.00    +0.000 OA
BRANCH   2   4
ATOM      4  O   UNL     1       4.854   1.830  20.470  0.00  0.00    +0.000 OA
ATOM      5  H   UNL     1       5.060   2.706  20.880  0.00  0.00    +0.000 HD
ENDBRANCH   2   4
ENDBRANCH   1   2
BRANCH   1   6
ATOM      6  C   UNL     1       3.573   3.520  17.520  0.00  0.00    +0.000 C 
BRANCH   6  10
ATOM      7  C   UNL     1       6.890   6.149  16.771  0.00  0.00    +0.000 A 
ATOM      8  C   UNL     1       5.781   6.136  15.907  0.00  0.00    +0.000 A 
ATOM      9  C   UNL     1       4.722   5.257  16.111  0.00  0.00    +0.000 A 
ATOM     10  C   UNL     1       4.787   4.326  17.144  0.00  0.00    +0.000 A 
ATOM     11  C   UNL     1       5.964   4.225  17.893  0.00  0.00    +0.000 A 
ATOM     12  C   UNL     1       7.015   5.139  17.735  0.00  0.00    +0.000 A 
BRANCH   7  14
ATOM     13  C   UNL     1       7.654   8.241  17.550  0.00  0.00    +0.000 C 
ATOM     14  O   UNL     1       7.839   7.132  16.663  0.00  0.00    +0.000 OA
ENDBRANCH   7  14
BRANCH  12  15
ATOM     15  O   UNL     1       8.017   4.897  18.633  0.00  0.00    +0.000 OA
ATOM     16  C   UNL     1       8.000   5.513  19.908  0.00  0.00    +0.000 C 
ENDBRANCH  12  15
ENDBRANCH   6  10
ENDBRANCH   1   6
BRANCH   1  17
ATOM     17  O   UNL     1       2.235   3.580  19.664  0.00  0.00    +0.000 OA
BRANCH  17  18
ATOM     18  C   UNL     1       2.209   4.022  20.938  0.00  0.00    +0.000 C 
ATOM     19  O   UNL     1       2.433   3.337  21.925  0.00  0.00    +0.000 OA
BRANCH  18  20
ATOM     20  C   UNL     1       2.008   5.488  20.924  0.00  0.00    +0.000 C 
ATOM     21  C   UNL     1       2.272   6.197  19.813  0.00  0.00    +0.000 C 
BRANCH  21  22
ATOM     22  C   UNL     1       1.950   7.623  19.632  0.00  0.00    +0.000 A 
ATOM     23  C   UNL     1       2.182   8.221  18.376  0.00  0.00    +0.000 A 
ATOM     24  C   UNL     1       1.774   9.535  18.124  0.00  0.00    +0.000 A 
ATOM     25  C   UNL     1       1.127  10.262  19.123  0.00  0.00    +0.000 A 
ATOM     26 BR   UNL     1       0.517  12.018  18.770  0.00  0.00    +0.000 Br
ATOM     27  C   UNL     1       0.896   9.691  20.370  0.00  0.00    +0.000 A 
ATOM     28  C   UNL     1       1.305   8.376  20.620  0.00  0.00    +0.000 A 
ENDBRANCH  21  22
ENDBRANCH  18  20
ENDBRANCH  17  18
ENDBRANCH   1  17
TORSDOF 10
ENDMDL
MODEL 5
REMARK VINA RESULT:      -7.3      0.768      1.969
REMARK  Name = 
REMARK  12 active torsions:
REMARK  status: ('A' for Active; 'I' for Inactive)
REMARK    1  A    between atoms: C_1  and  O_2
REMARK    2  A    between atoms: O_2  and  C_3
REMARK    3  A    between atoms: C_6  and  C_7
REMARK    4  A    between atoms: C_7  and  C_8
REMARK    5  A    between atoms: C_8  and  O_9
REMARK    6  A    between atoms: C_8  and  C_21
REMARK    7  A    between atoms: O_9  and  C_10
REMARK    8  A    between atoms: C_10  and  C_12
REMARK    9  A    between atoms: C_13  and  C_14
REMARK   10  A    between atoms: C_21  and  O_23
REMARK   11  A    between atoms: C_25  and  O_26
REMARK   12  A    between atoms: O_26  and  C_27
REMARK                            x       y       z     vdW  Elec       q    Type
REMARK                         _______ _______ _______ _____ _____    ______ ____
ROOT
ATOM      1  C   UNL     1       3.219   3.451  18.973  0.00  0.00    +0.000 C 
ENDROOT
BRANCH   1   2
ATOM      2  C   UNL     1       3.966   2.113  19.020  0.00  0.00    +0.000 C 
ATOM      3  O   UNL     1       3.625   1.137  18.364  0.00  0.00    +0.000 OA
BRANCH   2   4
ATOM      4  O   UNL     1       5.028   2.068  19.855  0.00  0.00    +0.000 OA
ATOM      5  H   UNL     1       5.416   2.949  20.076  0.00  0.00    +0.000 HD
ENDBRANCH   2   4
ENDBRANCH   1   2
BRANCH   1   6
ATOM      6  C   UNL     1       3.090   3.920  17.510  0.00  0.00    +0.000 C 
BRANCH   6  10
ATOM      7  C   UNL     1       6.765   4.973  15.546  0.00  0.00    +0.000 A 
ATOM      8  C   UNL     1       5.874   4.063  14.951  0.00  0.00    +0.000 A 
ATOM      9  C   UNL     1       4.703   3.678  15.597  0.00  0.00    +0.000 A 
ATOM     10  C   UNL     1       4.439   4.143  16.882  0.00  0.00    +0.000 A 
ATOM     11  C   UNL     1       5.408   4.908  17.540  0.00  0.00    +0.000 A 
ATOM     12  C   UNL     1       6.565   5.350  16.882  0.00  0.00    +0.000 A 
BRANCH   7  14
ATOM     13  C   UNL     1       7.802   5.155  13.435  0.00  0.00    +0.000 C 
ATOM     14  O   UNL     1       7.819   5.477  14.830  0.00  0.00    +0.000 OA
ENDBRANCH   7  14
BRANCH  12  15
ATOM     15  O   UNL     1       7.316   6.153  17.693  0.00  0.00    +0.000 OA
ATOM     16  C   UNL     1       7.348   7.553  17.483  0.00  0.00    +0.000 C 
ENDBRANCH  12  15
ENDBRANCH   6  10
ENDBRANCH   1   6
BRANCH   1  17
ATOM     17  O   UNL     1       2.002   3.493  19.752  0.00  0.00    +0.000 OA
BRANCH  17  18
ATOM     18  C   UNL     1       2.006   4.109  20.952  0.00  0.00    +0.000 C 
ATOM     19  O   UNL     1       2.448   3.632  21.987  0.00  0.00    +0.000 OA
BRANCH  18  20
ATOM     20  C   UNL     1       1.521   5.496  20.772  0.00  0.00    +0.000 C 
ATOM     21  C   UNL     1       2.270   6.393  20.108  0.00  0.00    +0.000 C 
BRANCH  21  22
ATOM     22  C   UNL     1       1.818   7.742  19.724  0.00  0.00    +0.000 A 
ATOM     23  C   UNL     1       1.204   8.559  20.696  0.00  0.00    +0.000 A 
ATOM     24  C   UNL     1       0.876   9.888  20.409  0.00  0.00    +0.000 A 
ATOM     25  C   UNL     1       1.164  10.415  19.150  0.00  0.00    +0.000 A 
ATOM     26 BR   UNL     1       0.780  12.229  18.774  0.00  0.00    +0.000 Br
ATOM     27  C   UNL     1       1.764   9.622  18.177  0.00  0.00    +0.000 A 
ATOM     28  C   UNL     1       2.091   8.292  18.466  0.00  0.00    +0.000 A 
ENDBRANCH  21  22
ENDBRANCH  18  20
ENDBRANCH  17  18
ENDBRANCH   1  17
TORSDOF 10
ENDMDL
MODEL 6
REMARK VINA RESULT:      -7.2      1.093      2.482
REMARK  Name = 
REMARK  12 active torsions:
REMARK  status: ('A' for Active; 'I' for Inactive)
REMARK    1  A    between atoms: C_1  and  O_2
REMARK    2  A    between atoms: O_2  and  C_3
REMARK    3  A    between atoms: C_6  and  C_7
REMARK    4  A    between atoms: C_7  and  C_8
REMARK    5  A    between atoms: C_8  and  O_9
REMARK    6  A    between atoms: C_8  and  C_21
REMARK    7  A    between atoms: O_9  and  C_10
REMARK    8  A    between atoms: C_10  and  C_12
REMARK    9  A    between atoms: C_13  and  C_14
REMARK   10  A    between atoms: C_21  and  O_23
REMARK   11  A    between atoms: C_25  and  O_26
REMARK   12  A    between atoms: O_26  and  C_27
REMARK                            x       y       z     vdW  Elec       q    Type
REMARK                         _______ _______ _______ _____ _____    ______ ____
ROOT
ATOM      1  C   UNL     1       4.190   3.981  19.374  0.00  0.00    +0.000 C 
ENDROOT
BRANCH   1   2
ATOM      2  C   UNL     1       4.154   2.471  19.633  0.00  0.00    +0.000 C 
ATOM      3  O   UNL     1       4.947   1.902  20.371  0.00  0.00    +0.000 OA
BRANCH   2   4
ATOM      4  O   UNL     1       3.191   1.790  18.971  0.00  0.00    +0.000 OA
ATOM      5  H   UNL     1       2.550   1.314  19.553  0.00  0.00    +0.000 HD
ENDBRANCH   2   4
ENDBRANCH   1   2
BRANCH   1   6
ATOM      6  C   UNL     1       3.762   4.267  17.920  0.00  0.00    +0.000 C 
BRANCH   6  10
ATOM      7  C   UNL     1       6.910   5.113  15.118  0.00  0.00    +0.000 A 
ATOM      8  C   UNL     1       6.079   3.993  14.940  0.00  0.00    +0.000 A 
ATOM      9  C   UNL     1       5.086   3.681  15.864  0.00  0.00    +0.000 A 
ATOM     10  C   UNL     1       4.955   4.445  17.020  0.00  0.00    +0.000 A 
ATOM     11  C   UNL     1       5.892   5.451  17.279  0.00  0.00    +0.000 A 
ATOM     12  C   UNL     1       6.861   5.812  16.332  0.00  0.00    +0.000 A 
BRANCH   7  14
ATOM     13  C   UNL     1       7.481   4.938  12.835  0.00  0.00    +0.000 C 
ATOM     14  O   UNL     1       7.761   5.508  14.119  0.00  0.00    +0.000 OA
ENDBRANCH   7  14
BRANCH  12  15
ATOM     15  O   UNL     1       7.604   6.874  16.768  0.00  0.00    +0.000 OA
ATOM     16  C   UNL     1       7.919   7.011  18.141  0.00  0.00    +0.000 C 
ENDBRANCH  12  15
ENDBRANCH   6  10
ENDBRANCH   1   6
BRANCH   1  17
ATOM     17  O   UNL     1       3.541   4.785  20.385  0.00  0.00    +0.000 OA
BRANCH  17  18
ATOM     18  C   UNL     1       2.238   4.574  20.663  0.00  0.00    +0.000 C 
ATOM     19  O   UNL     1       1.775   3.542  21.124  0.00  0.00    +0.000 OA
BRANCH  18  20
ATOM     20  C   UNL     1       1.500   5.839  20.451  0.00  0.00    +0.000 C 
ATOM     21  C   UNL     1       2.166   7.001  20.343  0.00  0.00    +0.000 C 
BRANCH  21  22
ATOM     22  C   UNL     1       1.554   8.287  19.964  0.00  0.00    +0.000 A 
ATOM     23  C   UNL     1       1.707   8.752  18.642  0.00  0.00    +0.000 A 
ATOM     24  C   UNL     1       1.038   9.901  18.207  0.00  0.00    +0.000 A 
ATOM     25  C   UNL     1       0.206  10.593  19.088  0.00  0.00    +0.000 A 
ATOM     26 BR   UNL     1      -0.750  12.111  18.489  0.00  0.00    +0.000 Br
ATOM     27  C   UNL     1       0.049  10.152  20.398  0.00  0.00    +0.000 A 
ATOM     28  C   UNL     1       0.720   9.002  20.831  0.00  0.00    +0.000 A 
ENDBRANCH  21  22
ENDBRANCH  18  20
ENDBRANCH  17  18
ENDBRANCH   1  17
TORSDOF 10
ENDMDL
MODEL 7
REMARK VINA RESULT:      -7.1      1.234      1.979
REMARK  Name = 
REMARK  12 active torsions:
REMARK  status: ('A' for Active; 'I' for Inactive)
REMARK    1  A    between atoms: C_1  and  O_2
REMARK    2  A    between atoms: O_2  and  C_3
REMARK    3  A    between atoms: C_6  and  C_7
REMARK    4  A    between atoms: C_7  and  C_8
REMARK    5  A    between atoms: C_8  and  O_9
REMARK    6  A    between atoms: C_8  and  C_21
REMARK    7  A    between atoms: O_9  and  C_10
REMARK    8  A    between atoms: C_10  and  C_12
REMARK    9  A    between atoms: C_13  and  C_14
REMARK   10  A    between atoms: C_21  and  O_23
REMARK   11  A    between atoms: C_25  and  O_26
REMARK   12  A    between atoms: O_26  and  C_27
REMARK                            x       y       z     vdW  Elec       q    Type
REMARK                         _______ _______ _______ _____ _____    ______ ____
ROOT
ATOM      1  C   UNL     1       3.808   3.157  19.729  0.00  0.00    +0.000 C 
ENDROOT
BRANCH   1   2
ATOM      2  C   UNL     1       4.037   2.313  20.987  0.00  0.00    +0.000 C 
ATOM      3  O   UNL     1       5.067   1.682  21.188  0.00  0.00    +0.000 OA
BRANCH   2   4
ATOM      4  O   UNL     1       3.011   2.290  21.868  0.00  0.00    +0.000 OA
ATOM      5  H   UNL     1       2.738   3.178  22.205  0.00  0.00    +0.000 HD
ENDBRANCH   2   4
ENDBRANCH   1   2
BRANCH   1   6
ATOM      6  C   UNL     1       4.963   2.925  18.734  0.00  0.00    +0.000 C 
BRANCH   6  10
ATOM      7  C   UNL     1       7.061   6.396  17.309  0.00  0.00    +0.000 A 
ATOM      8  C   UNL     1       6.921   6.164  18.689  0.00  0.00    +0.000 A 
ATOM      9  C   UNL     1       6.204   5.070  19.164  0.00  0.00    +0.000 A 
ATOM     10  C   UNL     1       5.556   4.227  18.266  0.00  0.00    +0.000 A 
ATOM     11  C   UNL     1       5.552   4.558  16.906  0.00  0.00    +0.000 A 
ATOM     12  C   UNL     1       6.315   5.623  16.408  0.00  0.00    +0.000 A 
BRANCH   7  14
ATOM     13  C   UNL     1       7.897   8.580  17.622  0.00  0.00    +0.000 C 
ATOM     14  O   UNL     1       7.911   7.370  16.856  0.00  0.00    +0.000 OA
ENDBRANCH   7  14
BRANCH  12  15
ATOM     15  O   UNL     1       6.225   5.699  15.047  0.00  0.00    +0.000 OA
ATOM     16  C   UNL     1       6.170   4.519  14.266  0.00  0.00    +0.000 C 
ENDBRANCH  12  15
ENDBRANCH   6  10
ENDBRANCH   1   6
BRANCH   1  17
ATOM     17  O   UNL     1       2.477   3.065  19.172  0.00  0.00    +0.000 OA
BRANCH  17  18
ATOM     18  C   UNL     1       2.184   3.743  18.044  0.00  0.00    +0.000 C 
ATOM     19  O   UNL     1       2.225   3.280  16.913  0.00  0.00    +0.000 OA
BRANCH  18  20
ATOM     20  C   UNL     1       1.673   5.081  18.416  0.00  0.00    +0.000 C 
ATOM     21  C   UNL     1       2.529   6.074  18.712  0.00  0.00    +0.000 C 
BRANCH  21  22
ATOM     22  C   UNL     1       2.141   7.479  18.929  0.00  0.00    +0.000 A 
ATOM     23  C   UNL     1       2.095   8.352  17.822  0.00  0.00    +0.000 A 
ATOM     24  C   UNL     1       1.611   9.657  17.961  0.00  0.00    +0.000 A 
ATOM     25  C   UNL     1       1.164  10.100  19.206  0.00  0.00    +0.000 A 
ATOM     26 BR   UNL     1       0.451  11.843  19.389  0.00  0.00    +0.000 Br
ATOM     27  C   UNL     1       1.208   9.255  20.310  0.00  0.00    +0.000 A 
ATOM     28  C   UNL     1       1.693   7.949  20.168  0.00  0.00    +0.000 A 
ENDBRANCH  21  22
ENDBRANCH  18  20
ENDBRANCH  17  18
ENDBRANCH   1  17
TORSDOF 10
ENDMDL
MODEL 8
REMARK VINA RESULT:      -7.1      0.935      1.167
REMARK  Name = 
REMARK  12 active torsions:
REMARK  status: ('A' for Active; 'I' for Inactive)
REMARK    1  A    between atoms: C_1  and  O_2
REMARK    2  A    between atoms: O_2  and  C_3
REMARK    3  A    between atoms: C_6  and  C_7
REMARK    4  A    between atoms: C_7  and  C_8
REMARK    5  A    between atoms: C_8  and  O_9
REMARK    6  A    between atoms: C_8  and  C_21
REMARK    7  A    between atoms: O_9  and  C_10
REMARK    8  A    between atoms: C_10  and  C_12
REMARK    9  A    between atoms: C_13  and  C_14
REMARK   10  A    between atoms: C_21  and  O_23
REMARK   11  A    between atoms: C_25  and  O_26
REMARK   12  A    between atoms: O_26  and  C_27
REMARK                            x       y       z     vdW  Elec       q    Type
REMARK                         _______ _______ _______ _____ _____    ______ ____
ROOT
ATOM      1  C   UNL     1       3.130   3.322  18.518  0.00  0.00    +0.000 C 
ENDROOT
BRANCH   1   2
ATOM      2  C   UNL     1       2.042   2.243  18.554  0.00  0.00    +0.000 C 
ATOM      3  O   UNL     1       0.869   2.470  18.284  0.00  0.00    +0.000 OA
BRANCH   2   4
ATOM      4  O   UNL     1       2.456   1.011  18.926  0.00  0.00    +0.000 OA
ATOM      5  H   UNL     1       3.271   0.694  18.465  0.00  0.00    +0.000 HD
ENDBRANCH   2   4
ENDBRANCH   1   2
BRANCH   1   6
ATOM      6  C   UNL     1       2.836   4.314  17.375  0.00  0.00    +0.000 C 
BRANCH   6  10
ATOM      7  C   UNL     1       6.519   6.447  16.776  0.00  0.00    +0.000 A 
ATOM      8  C   UNL     1       5.501   6.994  17.576  0.00  0.00    +0.000 A 
ATOM      9  C   UNL     1       4.286   6.336  17.741  0.00  0.00    +0.000 A 
ATOM     10  C   UNL     1       4.043   5.152  17.050  0.00  0.00    +0.000 A 
ATOM     11  C   UNL     1       4.987   4.702  16.121  0.00  0.00    +0.000 A 
ATOM     12  C   UNL     1       6.238   5.323  15.987  0.00  0.00    +0.000 A 
BRANCH   7  14
ATOM     13  C   UNL     1       7.890   8.206  17.548  0.00  0.00    +0.000 C 
ATOM     14  O   UNL     1       7.767   7.014  16.764  0.00  0.00    +0.000 OA
ENDBRANCH   7  14
BRANCH  12  15
ATOM     15  O   UNL     1       7.024   4.658  15.089  0.00  0.00    +0.000 OA
ATOM     16  C   UNL     1       6.437   3.900  14.047  0.00  0.00    +0.000 C 
ENDBRANCH  12  15
ENDBRANCH   6  10
ENDBRANCH   1   6
BRANCH   1  17
ATOM     17  O   UNL     1       3.434   3.918  19.799  0.00  0.00    +0.000 OA
BRANCH  17  18
ATOM     18  C   UNL     1       2.430   4.202  20.653  0.00  0.00    +0.000 C 
ATOM     19  O   UNL     1       2.194   3.597  21.689  0.00  0.00    +0.000 OA
BRANCH  18  20
ATOM     20  C   UNL     1       1.761   5.442  20.199  0.00  0.00    +0.000 C 
ATOM     21  C   UNL     1       2.030   6.614  20.800  0.00  0.00    +0.000 C 
BRANCH  21  22
ATOM     22  C   UNL     1       1.557   7.927  20.326  0.00  0.00    +0.000 A 
ATOM     23  C   UNL     1       1.034   8.842  21.263  0.00  0.00    +0.000 A 
ATOM     24  C   UNL     1       0.693  10.142  20.877  0.00  0.00    +0.000 A 
ATOM     25  C   UNL     1       0.876  10.542  19.553  0.00  0.00    +0.000 A 
ATOM     26 BR   UNL     1       0.476  12.318  19.038  0.00  0.00    +0.000 Br
ATOM     27  C   UNL     1       1.385   9.650  18.615  0.00  0.00    +0.000 A 
ATOM     28  C   UNL     1       1.725   8.349  19.003  0.00  0.00    +0.000 A 
ENDBRANCH  21  22
ENDBRANCH  18  20
ENDBRANCH  17  18
ENDBRANCH   1  17
TORSDOF 10
ENDMDL
MODEL 9
REMARK VINA RESULT:      -7.1      1.099      2.268
REMARK  Name = 
REMARK  12 active torsions:
REMARK  status: ('A' for Active; 'I' for Inactive)
REMARK    1  A    between atoms: C_1  and  O_2
REMARK    2  A    between atoms: O_2  and  C_3
REMARK    3  A    between atoms: C_6  and  C_7
REMARK    4  A    between atoms: C_7  and  C_8
REMARK    5  A    between atoms: C_8  and  O_9
REMARK    6  A    between atoms: C_8  and  C_21
REMARK    7  A    between atoms: O_9  and  C_10
REMARK    8  A    between atoms: C_10  and  C_12
REMARK    9  A    between atoms: C_13  and  C_14
REMARK   10  A    between atoms: C_21  and  O_23
REMARK   11  A    between atoms: C_25  and  O_26
REMARK   12  A    between atoms: O_26  and  C_27
REMARK                            x       y       z     vdW  Elec       q    Type
REMARK                         _______ _______ _______ _____ _____    ______ ____
ROOT
ATOM      1  C   UNL     1       4.091   3.804  19.477  0.00  0.00    +0.000 C 
ENDROOT
BRANCH   1   2
ATOM      2  C   UNL     1       4.163   2.296  19.739  0.00  0.00    +0.000 C 
ATOM      3  O   UNL     1       5.004   1.786  20.468  0.00  0.00    +0.000 OA
BRANCH   2   4
ATOM      4  O   UNL     1       3.242   1.548  19.091  0.00  0.00    +0.000 OA
ATOM      5  H   UNL     1       3.149   1.752  18.129  0.00  0.00    +0.000 HD
ENDBRANCH   2   4
ENDBRANCH   1   2
BRANCH   1   6
ATOM      6  C   UNL     1       3.640   4.055  18.024  0.00  0.00    +0.000 C 
BRANCH   6  10
ATOM      7  C   UNL     1       6.809   5.090  15.311  0.00  0.00    +0.000 A 
ATOM      8  C   UNL     1       5.765   4.244  14.898  0.00  0.00    +0.000 A 
ATOM      9  C   UNL     1       4.758   3.863  15.780  0.00  0.00    +0.000 A 
ATOM     10  C   UNL     1       4.817   4.267  17.110  0.00  0.00    +0.000 A 
ATOM     11  C   UNL     1       5.944   4.962  17.559  0.00  0.00    +0.000 A 
ATOM     12  C   UNL     1       6.938   5.401  16.672  0.00  0.00    +0.000 A 
BRANCH   7  14
ATOM     13  C   UNL     1       7.665   4.947  13.117  0.00  0.00    +0.000 C 
ATOM     14  O   UNL     1       7.692   5.596  14.393  0.00  0.00    +0.000 OA
ENDBRANCH   7  14
BRANCH  12  15
ATOM     15  O   UNL     1       7.891   6.134  17.322  0.00  0.00    +0.000 OA
ATOM     16  C   UNL     1       7.767   6.400  18.707  0.00  0.00    +0.000 C 
ENDBRANCH  12  15
ENDBRANCH   6  10
ENDBRANCH   1   6
BRANCH   1  17
ATOM     17  O   UNL     1       3.389   4.562  20.488  0.00  0.00    +0.000 OA
BRANCH  17  18
ATOM     18  C   UNL     1       2.041   4.553  20.505  0.00  0.00    +0.000 C 
ATOM     19  O   UNL     1       1.346   3.564  20.685  0.00  0.00    +0.000 OA
BRANCH  18  20
ATOM     20  C   UNL     1       1.558   5.949  20.413  0.00  0.00    +0.000 C 
ATOM     21  C   UNL     1       2.250   6.858  19.705  0.00  0.00    +0.000 C 
BRANCH  21  22
ATOM     22  C   UNL     1       1.779   8.222  19.406  0.00  0.00    +0.000 A 
ATOM     23  C   UNL     1       1.102   8.946  20.409  0.00  0.00    +0.000 A 
ATOM     24  C   UNL     1       0.751  10.285  20.210  0.00  0.00    +0.000 A 
ATOM     25  C   UNL     1       1.079  10.916  19.010  0.00  0.00    +0.000 A 
ATOM     26 BR   UNL     1       0.664  12.744  18.758  0.00  0.00    +0.000 Br
ATOM     27  C   UNL     1       1.742  10.215  18.007  0.00  0.00    +0.000 A 
ATOM     28  C   UNL     1       2.091   8.875  18.208  0.00  0.00    +0.000 A 
ENDBRANCH  21  22
ENDBRANCH  18  20
ENDBRANCH  17  18
ENDBRANCH   1  17
TORSDOF 10
ENDMDL
