MODEL 1
REMARK VINA RESULT:      -7.1      0.000      0.000
REMARK  Name = 
REMARK  6 active torsions:
REMARK  status: ('A' for Active; 'I' for Inactive)
REMARK    1  A    between atoms: C_1  and  C_2
REMARK    2  A    between atoms: C_8  and  N_9
REMARK    3  A    between atoms: C_10  and  C_12
REMARK    4  A    between atoms: C_12  and  C_13
REMARK    5  A    between atoms: C_13  and  C_14
REMARK    6  A    between atoms: C_14  and  C_16
REMARK                            x       y       z     vdW  Elec       q    Type
REMARK                         _______ _______ _______ _____ _____    ______ ____
ROOT
ATOM      1  N   UNL     1       2.523   6.193  20.515  0.00  0.00    +0.000 N 
ATOM      2  C   UNL     1       1.885   4.965  20.525  0.00  0.00    +0.000 C 
ATOM      3  O   UNL     1       0.963   4.608  19.797  0.00  0.00    +0.000 OA
ATOM      4  H   UNL     1       3.431   6.221  20.981  0.00  0.00    +0.000 HD
ENDROOT
BRANCH   1  12
ATOM      5  C   UNL     1       0.924   8.300  21.737  0.00  0.00    +0.000 C 
ATOM      6  C   UNL     1       1.392   8.373  20.305  0.00  0.00    +0.000 A 
ATOM      7  C   UNL     1       1.087   9.494  19.498  0.00  0.00    +0.000 A 
ATOM      8 CL   UNL     1       0.168  10.845  20.075  0.00  0.00    +0.000 Cl
ATOM      9  C   UNL     1       1.520   9.573  18.171  0.00  0.00    +0.000 A 
ATOM     10  C   UNL     1       2.250   8.534  17.618  0.00  0.00    +0.000 A 
ATOM     11  C   UNL     1       2.557   7.418  18.391  0.00  0.00    +0.000 A 
ATOM     12  C   UNL     1       2.164   7.326  19.735  0.00  0.00    +0.000 A 
ENDBRANCH   1  12
BRANCH   2  13
ATOM     13  C   UNL     1       2.472   3.969  21.508  0.00  0.00    +0.000 C 
BRANCH  13  14
ATOM     14  C   UNL     1       2.721   2.628  20.826  0.00  0.00    +0.000 C 
BRANCH  14  15
ATOM     15  C   UNL     1       4.102   2.553  20.190  0.00  0.00    +0.000 C 
ATOM     16  O   UNL     1       4.976   1.844  20.707  0.00  0.00    +0.000 OA
BRANCH  15  17
ATOM     17  C   UNL     1       4.301   3.324  18.970  0.00  0.00    +0.000 A 
ATOM     18  C   UNL     1       3.708   3.186  17.728  0.00  0.00    +0.000 A 
ATOM     19  C   UNL     1       4.218   4.117  16.773  0.00  0.00    +0.000 A 
ATOM     20  C   UNL     1       5.165   4.951  17.323  0.00  0.00    +0.000 A 
ATOM     21  S   UNL     1       5.433   4.614  18.975  0.00  0.00    +0.000 S 
ENDBRANCH  15  17
ENDBRANCH  14  15
ENDBRANCH  13  14
ENDBRANCH   2  13
TORSDOF 5
ENDMDL
MODEL 2
REMARK VINA RESULT:      -6.9      3.822      5.626
REMARK  Name = 
REMARK  6 active torsions:
REMARK  status: ('A' for Active; 'I' for Inactive)
REMARK    1  A    between atoms: C_1  and  C_2
REMARK    2  A    between atoms: C_8  and  N_9
REMARK    3  A    between atoms: C_10  and  C_12
REMARK    4  A    between atoms: C_12  and  C_13
REMARK    5  A    between atoms: C_13  and  C_14
REMARK    6  A    between atoms: C_14  and  C_16
REMARK                            x       y       z     vdW  Elec       q    Type
REMARK                         _______ _______ _______ _____ _____    ______ ____
ROOT
ATOM      1  N   UNL     1       4.781   5.427  18.309  0.00  0.00    +0.000 N 
ATOM      2  C   UNL     1       6.048   5.255  18.839  0.00  0.00    +0.000 C 
ATOM      3  O   UNL     1       6.336   4.689  19.890  0.00  0.00    +0.000 OA
ATOM      4  H   UNL     1       4.748   5.664  17.316  0.00  0.00    +0.000 HD
ENDROOT
BRANCH   1  12
ATOM      5  C   UNL     1       3.335   3.077  17.373  0.00  0.00    +0.000 C 
ATOM      6  C   UNL     1       2.826   3.938  18.501  0.00  0.00    +0.000 A 
ATOM      7  C   UNL     1       1.622   3.619  19.173  0.00  0.00    +0.000 A 
ATOM      8 CL   UNL     1       0.653   2.243  18.759  0.00  0.00    +0.000 Cl
ATOM      9  C   UNL     1       1.145   4.409  20.223  0.00  0.00    +0.000 A 
ATOM     10  C   UNL     1       1.846   5.537  20.614  0.00  0.00    +0.000 A 
ATOM     11  C   UNL     1       3.030   5.874  19.965  0.00  0.00    +0.000 A 
ATOM     12  C   UNL     1       3.551   5.083  18.930  0.00  0.00    +0.000 A 
ENDBRANCH   1  12
BRANCH   2  13
ATOM     13  C   UNL     1       7.167   5.774  17.955  0.00  0.00    +0.000 C 
BRANCH  13  14
ATOM     14  C   UNL     1       7.282   4.934  16.688  0.00  0.00    +0.000 C 
BRANCH  14  15
ATOM     15  C   UNL     1       6.522   5.548  15.519  0.00  0.00    +0.000 C 
ATOM     16  O   UNL     1       5.856   6.576  15.696  0.00  0.00    +0.000 OA
BRANCH  15  17
ATOM     17  C   UNL     1       6.653   4.878  14.233  0.00  0.00    +0.000 A 
ATOM     18  C   UNL     1       7.590   5.056  13.231  0.00  0.00    +0.000 A 
ATOM     19  C   UNL     1       7.338   4.231  12.094  0.00  0.00    +0.000 A 
ATOM     20  C   UNL     1       6.233   3.432  12.272  0.00  0.00    +0.000 A 
ATOM     21  S   UNL     1       5.508   3.674  13.800  0.00  0.00    +0.000 S 
ENDBRANCH  15  17
ENDBRANCH  14  15
ENDBRANCH  13  14
ENDBRANCH   2  13
TORSDOF 5
ENDMDL
MODEL 3
REMARK VINA RESULT:      -6.8      1.022      1.840
REMARK  Name = 
REMARK  6 active torsions:
REMARK  status: ('A' for Active; 'I' for Inactive)
REMARK    1  A    between atoms: C_1  and  C_2
REMARK    2  A    between atoms: C_8  and  N_9
REMARK    3  A    between atoms: C_10  and  C_12
REMARK    4  A    between atoms: C_12  and  C_13
REMARK    5  A    between atoms: C_13  and  C_14
REMARK    6  A    between atoms: C_14  and  C_16
REMARK                            x       y       z     vdW  Elec       q    Type
REMARK                         _______ _______ _______ _____ _____    ______ ____
ROOT
ATOM      1  N   UNL     1       2.269   5.856  20.932  0.00  0.00    +0.000 N 
ATOM      2  C   UNL     1       1.606   4.650  20.783  0.00  0.00    +0.000 C 
ATOM      3  O   UNL     1       0.503   4.473  20.273  0.00  0.00    +0.000 OA
ATOM      4  H   UNL     1       3.270   5.788  21.115  0.00  0.00    +0.000 HD
ENDROOT
BRANCH   1  12
ATOM      5  C   UNL     1       2.922   7.060  18.360  0.00  0.00    +0.000 C 
ATOM      6  C   UNL     1       2.051   7.756  19.376  0.00  0.00    +0.000 A 
ATOM      7  C   UNL     1       1.492   9.027  19.105  0.00  0.00    +0.000 A 
ATOM      8 CL   UNL     1       1.759   9.872  17.616  0.00  0.00    +0.000 Cl
ATOM      9  C   UNL     1       0.679   9.677  20.039  0.00  0.00    +0.000 A 
ATOM     10  C   UNL     1       0.421   9.084  21.263  0.00  0.00    +0.000 A 
ATOM     11  C   UNL     1       0.965   7.836  21.554  0.00  0.00    +0.000 A 
ATOM     12  C   UNL     1       1.757   7.145  20.625  0.00  0.00    +0.000 A 
ENDBRANCH   1  12
BRANCH   2  13
ATOM     13  C   UNL     1       2.399   3.444  21.251  0.00  0.00    +0.000 C 
BRANCH  13  14
ATOM     14  C   UNL     1       2.768   2.555  20.068  0.00  0.00    +0.000 C 
BRANCH  14  15
ATOM     15  C   UNL     1       4.251   2.634  19.730  0.00  0.00    +0.000 C 
ATOM     16  O   UNL     1       5.066   1.987  20.399  0.00  0.00    +0.000 OA
BRANCH  15  17
ATOM     17  C   UNL     1       4.616   3.471  18.595  0.00  0.00    +0.000 A 
ATOM     18  C   UNL     1       4.142   3.461  17.296  0.00  0.00    +0.000 A 
ATOM     19  C   UNL     1       4.801   4.417  16.466  0.00  0.00    +0.000 A 
ATOM     20  C   UNL     1       5.739   5.143  17.162  0.00  0.00    +0.000 A 
ATOM     21  S   UNL     1       5.822   4.676  18.803  0.00  0.00    +0.000 S 
ENDBRANCH  15  17
ENDBRANCH  14  15
ENDBRANCH  13  14
ENDBRANCH   2  13
TORSDOF 5
ENDMDL
MODEL 4
REMARK VINA RESULT:      -6.7      3.680      5.502
REMARK  Name = 
REMARK  6 active torsions:
REMARK  status: ('A' for Active; 'I' for Inactive)
REMARK    1  A    between atoms: C_1  and  C_2
REMARK    2  A    between atoms: C_8  and  N_9
REMARK    3  A    between atoms: C_10  and  C_12
REMARK    4  A    between atoms: C_12  and  C_13
REMARK    5  A    between atoms: C_13  and  C_14
REMARK    6  A    between atoms: C_14  and  C_16
REMARK                            x       y       z     vdW  Elec       q    Type
REMARK                         _______ _______ _______ _____ _____    ______ ____
ROOT
ATOM      1  N   UNL     1       4.966   4.604  18.235  0.00  0.00    +0.000 N 
ATOM      2  C   UNL     1       6.295   4.805  18.568  0.00  0.00    +0.000 C 
ATOM      3  O   UNL     1       6.742   5.087  19.676  0.00  0.00    +0.000 OA
ATOM      4  H   UNL     1       4.802   4.113  17.356  0.00  0.00    +0.000 HD
ENDROOT
BRANCH   1  12
ATOM      5  C   UNL     1       3.964   2.345  19.777  0.00  0.00    +0.000 C 
ATOM      6  C   UNL     1       3.337   3.714  19.857  0.00  0.00    +0.000 A 
ATOM      7  C   UNL     1       2.237   3.961  20.712  0.00  0.00    +0.000 A 
ATOM      8 CL   UNL     1       1.535   2.736  21.716  0.00  0.00    +0.000 Cl
ATOM      9  C   UNL     1       1.652   5.229  20.795  0.00  0.00    +0.000 A 
ATOM     10  C   UNL     1       2.138   6.267  20.019  0.00  0.00    +0.000 A 
ATOM     11  C   UNL     1       3.215   6.046  19.166  0.00  0.00    +0.000 A 
ATOM     12  C   UNL     1       3.844   4.794  19.086  0.00  0.00    +0.000 A 
ENDBRANCH   1  12
BRANCH   2  13
ATOM     13  C   UNL     1       7.263   4.571  17.424  0.00  0.00    +0.000 C 
BRANCH  13  14
ATOM     14  C   UNL     1       7.315   5.788  16.508  0.00  0.00    +0.000 C 
BRANCH  14  15
ATOM     15  C   UNL     1       6.151   5.820  15.526  0.00  0.00    +0.000 C 
ATOM     16  O   UNL     1       5.177   6.548  15.756  0.00  0.00    +0.000 OA
BRANCH  15  17
ATOM     17  C   UNL     1       6.277   4.986  14.339  0.00  0.00    +0.000 A 
ATOM     18  C   UNL     1       5.441   3.995  13.858  0.00  0.00    +0.000 A 
ATOM     19  C   UNL     1       5.952   3.372  12.679  0.00  0.00    +0.000 A 
ATOM     20  C   UNL     1       7.150   3.923  12.284  0.00  0.00    +0.000 A 
ATOM     21  S   UNL     1       7.650   5.181  13.325  0.00  0.00    +0.000 S 
ENDBRANCH  15  17
ENDBRANCH  14  15
ENDBRANCH  13  14
ENDBRANCH   2  13
TORSDOF 5
ENDMDL
MODEL 5
REMARK VINA RESULT:      -6.6      3.940      5.649
REMARK  Name = 
REMARK  6 active torsions:
REMARK  status: ('A' for Active; 'I' for Inactive)
REMARK    1  A    between atoms: C_1  and  C_2
REMARK    2  A    between atoms: C_8  and  N_9
REMARK    3  A    between atoms: C_10  and  C_12
REMARK    4  A    between atoms: C_12  and  C_13
REMARK    5  A    between atoms: C_13  and  C_14
REMARK    6  A    between atoms: C_14  and  C_16
REMARK                            x       y       z     vdW  Elec       q    Type
REMARK                         _______ _______ _______ _____ _____    ______ ____
ROOT
ATOM      1  N   UNL     1       4.933   4.365  19.246  0.00  0.00    +0.000 N 
ATOM      2  C   UNL     1       5.528   5.353  18.481  0.00  0.00    +0.000 C 
ATOM      3  O   UNL     1       4.984   6.346  18.006  0.00  0.00    +0.000 OA
ATOM      4  H   UNL     1       5.573   3.777  19.781  0.00  0.00    +0.000 HD
ENDROOT
BRANCH   1  12
ATOM      5  C   UNL     1       3.390   2.254  17.961  0.00  0.00    +0.000 C 
ATOM      6  C   UNL     1       2.771   3.221  18.938  0.00  0.00    +0.000 A 
ATOM      7  C   UNL     1       1.403   3.124  19.290  0.00  0.00    +0.000 A 
ATOM      8 CL   UNL     1       0.351   1.913  18.638  0.00  0.00    +0.000 Cl
ATOM      9  C   UNL     1       0.822   4.014  20.199  0.00  0.00    +0.000 A 
ATOM     10  C   UNL     1       1.584   5.024  20.761  0.00  0.00    +0.000 A 
ATOM     11  C   UNL     1       2.929   5.143  20.426  0.00  0.00    +0.000 A 
ATOM     12  C   UNL     1       3.548   4.246  19.543  0.00  0.00    +0.000 A 
ENDBRANCH   1  12
BRANCH   2  13
ATOM     13  C   UNL     1       7.024   5.179  18.298  0.00  0.00    +0.000 C 
BRANCH  13  14
ATOM     14  C   UNL     1       7.321   4.426  17.005  0.00  0.00    +0.000 C 
BRANCH  14  15
ATOM     15  C   UNL     1       7.339   5.347  15.793  0.00  0.00    +0.000 C 
ATOM     16  O   UNL     1       7.675   6.530  15.929  0.00  0.00    +0.000 OA
BRANCH  15  17
ATOM     17  C   UNL     1       6.972   4.750  14.516  0.00  0.00    +0.000 A 
ATOM     18  C   UNL     1       5.970   3.845  14.215  0.00  0.00    +0.000 A 
ATOM     19  C   UNL     1       5.972   3.464  12.839  0.00  0.00    +0.000 A 
ATOM     20  C   UNL     1       6.959   4.108  12.129  0.00  0.00    +0.000 A 
ATOM     21  S   UNL     1       7.872   5.163  13.114  0.00  0.00    +0.000 S 
ENDBRANCH  15  17
ENDBRANCH  14  15
ENDBRANCH  13  14
ENDBRANCH   2  13
TORSDOF 5
ENDMDL
MODEL 6
REMARK VINA RESULT:      -6.6      2.031      3.453
REMARK  Name = 
REMARK  6 active torsions:
REMARK  status: ('A' for Active; 'I' for Inactive)
REMARK    1  A    between atoms: C_1  and  C_2
REMARK    2  A    between atoms: C_8  and  N_9
REMARK    3  A    between atoms: C_10  and  C_12
REMARK    4  A    between atoms: C_12  and  C_13
REMARK    5  A    between atoms: C_13  and  C_14
REMARK    6  A    between atoms: C_14  and  C_16
REMARK                            x       y       z     vdW  Elec       q    Type
REMARK                         _______ _______ _______ _____ _____    ______ ____
ROOT
ATOM      1  N   UNL     1       2.913   6.358  17.805  0.00  0.00    +0.000 N 
ATOM      2  C   UNL     1       4.213   6.238  17.344  0.00  0.00    +0.000 C 
ATOM      3  O   UNL     1       5.112   7.068  17.451  0.00  0.00    +0.000 OA
ATOM      4  H   UNL     1       2.391   5.484  17.881  0.00  0.00    +0.000 HD
ENDROOT
BRANCH   1  12
ATOM      5  C   UNL     1       2.149   6.275  20.616  0.00  0.00    +0.000 C 
ATOM      6  C   UNL     1       1.952   7.504  19.765  0.00  0.00    +0.000 A 
ATOM      7  C   UNL     1       1.403   8.687  20.313  0.00  0.00    +0.000 A 
ATOM      8 CL   UNL     1       0.919   8.816  21.971  0.00  0.00    +0.000 Cl
ATOM      9  C   UNL     1       1.220   9.832  19.532  0.00  0.00    +0.000 A 
ATOM     10  C   UNL     1       1.566   9.818  18.191  0.00  0.00    +0.000 A 
ATOM     11  C   UNL     1       2.103   8.665  17.629  0.00  0.00    +0.000 A 
ATOM     12  C   UNL     1       2.328   7.511  18.394  0.00  0.00    +0.000 A 
ENDBRANCH   1  12
BRANCH   2  13
ATOM     13  C   UNL     1       4.527   4.895  16.714  0.00  0.00    +0.000 C 
BRANCH  13  14
ATOM     14  C   UNL     1       4.380   3.775  17.738  0.00  0.00    +0.000 C 
BRANCH  14  15
ATOM     15  C   UNL     1       2.937   3.313  17.885  0.00  0.00    +0.000 C 
ATOM     16  O   UNL     1       2.231   3.183  16.876  0.00  0.00    +0.000 OA
BRANCH  15  17
ATOM     17  C   UNL     1       2.478   3.027  19.237  0.00  0.00    +0.000 A 
ATOM     18  C   UNL     1       1.194   2.986  19.748  0.00  0.00    +0.000 A 
ATOM     19  C   UNL     1       1.172   2.716  21.150  0.00  0.00    +0.000 A 
ATOM     20  C   UNL     1       2.437   2.535  21.659  0.00  0.00    +0.000 A 
ATOM     21  S   UNL     1       3.639   2.687  20.456  0.00  0.00    +0.000 S 
ENDBRANCH  15  17
ENDBRANCH  14  15
ENDBRANCH  13  14
ENDBRANCH   2  13
TORSDOF 5
ENDMDL
MODEL 7
REMARK VINA RESULT:      -6.6      4.573      6.995
REMARK  Name = 
REMARK  6 active torsions:
REMARK  status: ('A' for Active; 'I' for Inactive)
REMARK    1  A    between atoms: C_1  and  C_2
REMARK    2  A    between atoms: C_8  and  N_9
REMARK    3  A    between atoms: C_10  and  C_12
REMARK    4  A    between atoms: C_12  and  C_13
REMARK    5  A    between atoms: C_13  and  C_14
REMARK    6  A    between atoms: C_14  and  C_16
REMARK                            x       y       z     vdW  Elec       q    Type
REMARK                         _______ _______ _______ _____ _____    ______ ____
ROOT
ATOM      1  N   UNL     1       6.846   5.706  15.767  0.00  0.00    +0.000 N 
ATOM      2  C   UNL     1       7.353   5.142  16.925  0.00  0.00    +0.000 C 
ATOM      3  O   UNL     1       8.081   4.157  17.007  0.00  0.00    +0.000 OA
ATOM      4  H   UNL     1       6.500   6.662  15.859  0.00  0.00    +0.000 HD
ENDROOT
BRANCH   1  12
ATOM      5  C   UNL     1       5.073   3.560  14.909  0.00  0.00    +0.000 C 
ATOM      6  C   UNL     1       6.120   4.150  13.998  0.00  0.00    +0.000 A 
ATOM      7  C   UNL     1       6.267   3.693  12.667  0.00  0.00    +0.000 A 
ATOM      8 CL   UNL     1       5.278   2.442  11.990  0.00  0.00    +0.000 Cl
ATOM      9  C   UNL     1       7.232   4.238  11.815  0.00  0.00    +0.000 A 
ATOM     10  C   UNL     1       8.078   5.234  12.274  0.00  0.00    +0.000 A 
ATOM     11  C   UNL     1       7.956   5.696  13.581  0.00  0.00    +0.000 A 
ATOM     12  C   UNL     1       6.975   5.192  14.449  0.00  0.00    +0.000 A 
ENDBRANCH   1  12
BRANCH   2  13
ATOM     13  C   UNL     1       7.001   5.900  18.191  0.00  0.00    +0.000 C 
BRANCH  13  14
ATOM     14  C   UNL     1       5.493   5.894  18.416  0.00  0.00    +0.000 C 
BRANCH  14  15
ATOM     15  C   UNL     1       4.981   4.528  18.851  0.00  0.00    +0.000 C 
ATOM     16  O   UNL     1       5.720   3.776  19.499  0.00  0.00    +0.000 OA
BRANCH  15  17
ATOM     17  C   UNL     1       3.610   4.199  18.484  0.00  0.00    +0.000 A 
ATOM     18  C   UNL     1       2.668   4.952  17.807  0.00  0.00    +0.000 A 
ATOM     19  C   UNL     1       1.413   4.282  17.692  0.00  0.00    +0.000 A 
ATOM     20  C   UNL     1       1.443   3.030  18.264  0.00  0.00    +0.000 A 
ATOM     21  S   UNL     1       2.973   2.668  18.929  0.00  0.00    +0.000 S 
ENDBRANCH  15  17
ENDBRANCH  14  15
ENDBRANCH  13  14
ENDBRANCH   2  13
TORSDOF 5
ENDMDL
MODEL 8
REMARK VINA RESULT:      -6.6      2.768      4.458
REMARK  Name = 
REMARK  6 active torsions:
REMARK  status: ('A' for Active; 'I' for Inactive)
REMARK    1  A    between atoms: C_1  and  C_2
REMARK    2  A    between atoms: C_8  and  N_9
REMARK    3  A    between atoms: C_10  and  C_12
REMARK    4  A    between atoms: C_12  and  C_13
REMARK    5  A    between atoms: C_13  and  C_14
REMARK    6  A    between atoms: C_14  and  C_16
REMARK                            x       y       z     vdW  Elec       q    Type
REMARK                         _______ _______ _______ _____ _____    ______ ____
ROOT
ATOM      1  N   UNL     1       3.898   5.320  17.639  0.00  0.00    +0.000 N 
ATOM      2  C   UNL     1       3.802   4.111  16.971  0.00  0.00    +0.000 C 
ATOM      3  O   UNL     1       2.958   3.237  17.147  0.00  0.00    +0.000 OA
ATOM      4  H   UNL     1       4.474   6.029  17.185  0.00  0.00    +0.000 HD
ENDROOT
BRANCH   1  12
ATOM      5  C   UNL     1       2.981   8.084  17.741  0.00  0.00    +0.000 C 
ATOM      6  C   UNL     1       2.635   7.082  18.814  0.00  0.00    +0.000 A 
ATOM      7  C   UNL     1       1.823   7.446  19.914  0.00  0.00    +0.000 A 
ATOM      8 CL   UNL     1       1.174   9.039  20.114  0.00  0.00    +0.000 Cl
ATOM      9  C   UNL     1       1.494   6.522  20.910  0.00  0.00    +0.000 A 
ATOM     10  C   UNL     1       1.979   5.227  20.841  0.00  0.00    +0.000 A 
ATOM     11  C   UNL     1       2.785   4.848  19.772  0.00  0.00    +0.000 A 
ATOM     12  C   UNL     1       3.104   5.742  18.740  0.00  0.00    +0.000 A 
ENDBRANCH   1  12
BRANCH   2  13
ATOM     13  C   UNL     1       4.828   3.928  15.869  0.00  0.00    +0.000 C 
BRANCH  13  14
ATOM     14  C   UNL     1       5.312   5.281  15.358  0.00  0.00    +0.000 C 
BRANCH  14  15
ATOM     15  C   UNL     1       6.813   5.461  15.535  0.00  0.00    +0.000 C 
ATOM     16  O   UNL     1       7.572   5.245  14.582  0.00  0.00    +0.000 OA
BRANCH  15  17
ATOM     17  C   UNL     1       7.265   5.909  16.845  0.00  0.00    +0.000 A 
ATOM     18  C   UNL     1       7.534   7.187  17.302  0.00  0.00    +0.000 A 
ATOM     19  C   UNL     1       8.009   7.198  18.648  0.00  0.00    +0.000 A 
ATOM     20  C   UNL     1       8.066   5.932  19.184  0.00  0.00    +0.000 A 
ATOM     21  S   UNL     1       7.547   4.743  18.074  0.00  0.00    +0.000 S 
ENDBRANCH  15  17
ENDBRANCH  14  15
ENDBRANCH  13  14
ENDBRANCH   2  13
TORSDOF 5
ENDMDL
MODEL 9
REMARK VINA RESULT:      -6.5      1.584      1.999
REMARK  Name = 
REMARK  6 active torsions:
REMARK  status: ('A' for Active; 'I' for Inactive)
REMARK    1  A    between atoms: C_1  and  C_2
REMARK    2  A    between atoms: C_8  and  N_9
REMARK    3  A    between atoms: C_10  and  C_12
REMARK    4  A    between atoms: C_12  and  C_13
REMARK    5  A    between atoms: C_13  and  C_14
REMARK    6  A    between atoms: C_14  and  C_16
REMARK                            x       y       z     vdW  Elec       q    Type
REMARK                         _______ _______ _______ _____ _____    ______ ____
ROOT
ATOM      1  N   UNL     1       2.871   6.510  19.858  0.00  0.00    +0.000 N 
ATOM      2  C   UNL     1       2.591   5.213  19.462  0.00  0.00    +0.000 C 
ATOM      3  O   UNL     1       1.830   4.865  18.563  0.00  0.00    +0.000 OA
ATOM      4  H   UNL     1       3.717   6.626  20.417  0.00  0.00    +0.000 HD
ENDROOT
BRANCH   1  12
ATOM      5  C   UNL     1       1.013   7.935  21.592  0.00  0.00    +0.000 C 
ATOM      6  C   UNL     1       1.345   8.415  20.201  0.00  0.00    +0.000 A 
ATOM      7  C   UNL     1       0.776   9.605  19.688  0.00  0.00    +0.000 A 
ATOM      8 CL   UNL     1      -0.327  10.585  20.596  0.00  0.00    +0.000 Cl
ATOM      9  C   UNL     1       1.081  10.059  18.402  0.00  0.00    +0.000 A 
ATOM     10  C   UNL     1       1.943   9.333  17.597  0.00  0.00    +0.000 A 
ATOM     11  C   UNL     1       2.511   8.157  18.078  0.00  0.00    +0.000 A 
ATOM     12  C   UNL     1       2.249   7.693  19.376  0.00  0.00    +0.000 A 
ENDBRANCH   1  12
BRANCH   2  13
ATOM     13  C   UNL     1       3.386   4.153  20.201  0.00  0.00    +0.000 C 
BRANCH  13  14
ATOM     14  C   UNL     1       4.379   3.477  19.262  0.00  0.00    +0.000 C 
BRANCH  14  15
ATOM     15  C   UNL     1       5.547   4.387  18.907  0.00  0.00    +0.000 C 
ATOM     16  O   UNL     1       6.144   4.994  19.806  0.00  0.00    +0.000 OA
BRANCH  15  17
ATOM     17  C   UNL     1       5.908   4.465  17.499  0.00  0.00    +0.000 A 
ATOM     18  C   UNL     1       7.135   4.715  16.909  0.00  0.00    +0.000 A 
ATOM     19  C   UNL     1       7.058   4.758  15.485  0.00  0.00    +0.000 A 
ATOM     20  C   UNL     1       5.781   4.516  15.030  0.00  0.00    +0.000 A 
ATOM     21  S   UNL     1       4.688   4.237  16.312  0.00  0.00    +0.000 S 
ENDBRANCH  15  17
ENDBRANCH  14  15
ENDBRANCH  13  14
ENDBRANCH   2  13
TORSDOF 5
ENDMDL
