MODEL 1
REMARK VINA RESULT:      -7.3      0.000      0.000
REMARK  Name = 
REMARK  11 active torsions:
REMARK  status: ('A' for Active; 'I' for Inactive)
REMARK    1  A    between atoms: C_1  and  C_2
REMARK    2  A    between atoms: C_2  and  C_3
REMARK    3  A    between atoms: C_2  and  C_4
REMARK    4  A    between atoms: C_2  and  C_5
REMARK    5  A    between atoms: C_5  and  C_6
REMARK    6  A    between atoms: C_6  and  C_7
REMARK    7  A    between atoms: C_6  and  C_8
REMARK    8  A    between atoms: C_6  and  C_9
REMARK    9  A    between atoms: C_12  and  O_13
REMARK   10  A    between atoms: C_14  and  C_15
REMARK   11  A    between atoms: C_15  and  C_16
REMARK                            x       y       z     vdW  Elec       q    Type
REMARK                         _______ _______ _______ _____ _____    ______ ____
ROOT
ATOM      1  C   UNL     1       2.228   7.226  19.312  0.00  0.00    +0.000 A 
ATOM      2  C   UNL     1       1.867   7.087  20.665  0.00  0.00    +0.000 A 
ATOM      3  C   UNL     1       1.169   8.093  21.340  0.00  0.00    +0.000 A 
ATOM      4  C   UNL     1       0.814   9.261  20.672  0.00  0.00    +0.000 A 
ATOM      5  C   UNL     1       1.152   9.450  19.331  0.00  0.00    +0.000 A 
ATOM      6  C   UNL     1       1.863   8.429  18.671  0.00  0.00    +0.000 A 
ENDROOT
BRANCH   1   7
ATOM      7  C   UNL     1       2.986   6.077  18.578  0.00  0.00    +0.000 C 
ATOM      8  C   UNL     1       1.997   5.088  17.924  0.00  0.00    +0.000 C 
ATOM      9  C   UNL     1       3.762   5.280  19.650  0.00  0.00    +0.000 C 
BRANCH   7  10
ATOM     10  C   UNL     1       3.937   6.750  17.517  0.00  0.00    +0.000 C 
BRANCH  10  12
ATOM     11  C   UNL     1       4.982   4.516  16.717  0.00  0.00    +0.000 C 
ATOM     12  C   UNL     1       5.149   6.038  16.823  0.00  0.00    +0.000 C 
ATOM     13  C   UNL     1       6.498   6.364  17.481  0.00  0.00    +0.000 C 
ATOM     14  C   UNL     1       5.224   6.573  15.366  0.00  0.00    +0.000 C 
ENDBRANCH  10  12
ENDBRANCH   7  10
ENDBRANCH   1   7
BRANCH   4  15
ATOM     15  O   UNL     1       0.118  10.238  21.328  0.00  0.00    +0.000 OA
ATOM     16  H   UNL     1      -0.813   9.965  21.391  0.00  0.00    +0.000 HD
ENDBRANCH   4  15
BRANCH   5  17
ATOM     17  C   UNL     1       0.744  10.689  18.556  0.00  0.00    +0.000 C 
BRANCH  17  18
ATOM     18  C   UNL     1      -0.754  10.795  18.337  0.00  0.00    +0.000 A 
ATOM     19  C   UNL     1      -1.385   9.808  17.554  0.00  0.00    +0.000 A 
ATOM     20  C   UNL     1      -2.746   9.880  17.256  0.00  0.00    +0.000 A 
ATOM     21  C   UNL     1      -3.502  10.938  17.747  0.00  0.00    +0.000 A 
ATOM     22 CL   UNL     1      -5.171  11.049  17.346  0.00  0.00    +0.000 Cl
ATOM     23  C   UNL     1      -2.914  11.909  18.553  0.00  0.00    +0.000 A 
ATOM     24  C   UNL     1      -1.547  11.837  18.847  0.00  0.00    +0.000 A 
ATOM     25 CL   UNL     1      -0.899  13.078  19.863  0.00  0.00    +0.000 Cl
ENDBRANCH  17  18
ENDBRANCH   5  17
TORSDOF 6
ENDMDL
MODEL 2
REMARK VINA RESULT:      -7.3      1.113      2.380
REMARK  Name = 
REMARK  11 active torsions:
REMARK  status: ('A' for Active; 'I' for Inactive)
REMARK    1  A    between atoms: C_1  and  C_2
REMARK    2  A    between atoms: C_2  and  C_3
REMARK    3  A    between atoms: C_2  and  C_4
REMARK    4  A    between atoms: C_2  and  C_5
REMARK    5  A    between atoms: C_5  and  C_6
REMARK    6  A    between atoms: C_6  and  C_7
REMARK    7  A    between atoms: C_6  and  C_8
REMARK    8  A    between atoms: C_6  and  C_9
REMARK    9  A    between atoms: C_12  and  O_13
REMARK   10  A    between atoms: C_14  and  C_15
REMARK   11  A    between atoms: C_15  and  C_16
REMARK                            x       y       z     vdW  Elec       q    Type
REMARK                         _______ _______ _______ _____ _____    ______ ____
ROOT
ATOM      1  C   UNL     1       2.413   6.985  19.229  0.00  0.00    +0.000 A 
ATOM      2  C   UNL     1       1.931   6.769  20.533  0.00  0.00    +0.000 A 
ATOM      3  C   UNL     1       1.174   7.737  21.200  0.00  0.00    +0.000 A 
ATOM      4  C   UNL     1       0.880   8.944  20.572  0.00  0.00    +0.000 A 
ATOM      5  C   UNL     1       1.338   9.209  19.281  0.00  0.00    +0.000 A 
ATOM      6  C   UNL     1       2.107   8.224  18.629  0.00  0.00    +0.000 A 
ENDROOT
BRANCH   1   7
ATOM      7  C   UNL     1       3.235   5.877  18.501  0.00  0.00    +0.000 C 
ATOM      8  C   UNL     1       4.419   5.401  19.371  0.00  0.00    +0.000 C 
ATOM      9  C   UNL     1       3.848   6.516  17.236  0.00  0.00    +0.000 C 
BRANCH   7  10
ATOM     10  C   UNL     1       2.239   4.702  18.165  0.00  0.00    +0.000 C 
BRANCH  10  12
ATOM     11  C   UNL     1       2.585   3.273  20.301  0.00  0.00    +0.000 C 
ATOM     12  C   UNL     1       2.306   3.267  18.791  0.00  0.00    +0.000 C 
ATOM     13  C   UNL     1       3.313   2.348  18.085  0.00  0.00    +0.000 C 
ATOM     14  C   UNL     1       0.906   2.620  18.607  0.00  0.00    +0.000 C 
ENDBRANCH  10  12
ENDBRANCH   7  10
ENDBRANCH   1   7
BRANCH   4  15
ATOM     15  O   UNL     1       0.126   9.884  21.218  0.00  0.00    +0.000 OA
ATOM     16  H   UNL     1      -0.725   9.484  21.463  0.00  0.00    +0.000 HD
ENDBRANCH   4  15
BRANCH   5  17
ATOM     17  C   UNL     1       1.001  10.493  18.545  0.00  0.00    +0.000 C 
BRANCH  17  18
ATOM     18  C   UNL     1      -0.487  10.683  18.318  0.00  0.00    +0.000 A 
ATOM     19  C   UNL     1      -1.170   9.729  17.540  0.00  0.00    +0.000 A 
ATOM     20  C   UNL     1      -2.523   9.876  17.234  0.00  0.00    +0.000 A 
ATOM     21  C   UNL     1      -3.220  10.979  17.714  0.00  0.00    +0.000 A 
ATOM     22 CL   UNL     1      -4.878  11.183  17.304  0.00  0.00    +0.000 Cl
ATOM     23  C   UNL     1      -2.581  11.921  18.516  0.00  0.00    +0.000 A 
ATOM     24  C   UNL     1      -1.222  11.773  18.817  0.00  0.00    +0.000 A 
ATOM     25 CL   UNL     1      -0.508  12.982  19.827  0.00  0.00    +0.000 Cl
ENDBRANCH  17  18
ENDBRANCH   5  17
TORSDOF 6
ENDMDL
MODEL 3
REMARK VINA RESULT:      -7.3      6.390      9.131
REMARK  Name = 
REMARK  11 active torsions:
REMARK  status: ('A' for Active; 'I' for Inactive)
REMARK    1  A    between atoms: C_1  and  C_2
REMARK    2  A    between atoms: C_2  and  C_3
REMARK    3  A    between atoms: C_2  and  C_4
REMARK    4  A    between atoms: C_2  and  C_5
REMARK    5  A    between atoms: C_5  and  C_6
REMARK    6  A    between atoms: C_6  and  C_7
REMARK    7  A    between atoms: C_6  and  C_8
REMARK    8  A    between atoms: C_6  and  C_9
REMARK    9  A    between atoms: C_12  and  O_13
REMARK   10  A    between atoms: C_14  and  C_15
REMARK   11  A    between atoms: C_15  and  C_16
REMARK                            x       y       z     vdW  Elec       q    Type
REMARK                         _______ _______ _______ _____ _____    ______ ____
ROOT
ATOM      1  C   UNL     1       4.572   4.001  17.762  0.00  0.00    +0.000 A 
ATOM      2  C   UNL     1       5.598   4.387  18.643  0.00  0.00    +0.000 A 
ATOM      3  C   UNL     1       6.649   5.208  18.223  0.00  0.00    +0.000 A 
ATOM      4  C   UNL     1       6.693   5.663  16.908  0.00  0.00    +0.000 A 
ATOM      5  C   UNL     1       5.702   5.305  15.994  0.00  0.00    +0.000 A 
ATOM      6  C   UNL     1       4.656   4.470  16.434  0.00  0.00    +0.000 A 
ENDROOT
BRANCH   1   7
ATOM      7  C   UNL     1       3.399   3.103  18.265  0.00  0.00    +0.000 C 
ATOM      8  C   UNL     1       3.643   1.619  17.911  0.00  0.00    +0.000 C 
ATOM      9  C   UNL     1       2.129   3.535  17.500  0.00  0.00    +0.000 C 
BRANCH   7  10
ATOM     10  C   UNL     1       3.276   3.327  19.820  0.00  0.00    +0.000 C 
BRANCH  10  12
ATOM     11  C   UNL     1       0.702   3.046  19.960  0.00  0.00    +0.000 C 
ATOM     12  C   UNL     1       1.950   3.702  20.567  0.00  0.00    +0.000 C 
ATOM     13  C   UNL     1       1.732   5.218  20.682  0.00  0.00    +0.000 C 
ATOM     14  C   UNL     1       2.070   3.159  22.017  0.00  0.00    +0.000 C 
ENDBRANCH  10  12
ENDBRANCH   7  10
ENDBRANCH   1   7
BRANCH   4  15
ATOM     15  O   UNL     1       7.711   6.478  16.502  0.00  0.00    +0.000 OA
ATOM     16  H   UNL     1       8.437   5.925  16.168  0.00  0.00    +0.000 HD
ENDBRANCH   4  15
BRANCH   5  17
ATOM     17  C   UNL     1       5.689   5.817  14.565  0.00  0.00    +0.000 C 
BRANCH  17  18
ATOM     18  C   UNL     1       5.994   4.742  13.539  0.00  0.00    +0.000 A 
ATOM     19  C   UNL     1       5.004   3.776  13.271  0.00  0.00    +0.000 A 
ATOM     20  C   UNL     1       5.240   2.720  12.390  0.00  0.00    +0.000 A 
ATOM     21  C   UNL     1       6.471   2.620  11.752  0.00  0.00    +0.000 A 
ATOM     22 CL   UNL     1       6.778   1.297  10.697  0.00  0.00    +0.000 Cl
ATOM     23  C   UNL     1       7.457   3.579  11.969  0.00  0.00    +0.000 A 
ATOM     24  C   UNL     1       7.219   4.635  12.857  0.00  0.00    +0.000 A 
ATOM     25 CL   UNL     1       8.492   5.787  13.062  0.00  0.00    +0.000 Cl
ENDBRANCH  17  18
ENDBRANCH   5  17
TORSDOF 6
ENDMDL
MODEL 4
REMARK VINA RESULT:      -7.2      1.529      2.586
REMARK  Name = 
REMARK  11 active torsions:
REMARK  status: ('A' for Active; 'I' for Inactive)
REMARK    1  A    between atoms: C_1  and  C_2
REMARK    2  A    between atoms: C_2  and  C_3
REMARK    3  A    between atoms: C_2  and  C_4
REMARK    4  A    between atoms: C_2  and  C_5
REMARK    5  A    between atoms: C_5  and  C_6
REMARK    6  A    between atoms: C_6  and  C_7
REMARK    7  A    between atoms: C_6  and  C_8
REMARK    8  A    between atoms: C_6  and  C_9
REMARK    9  A    between atoms: C_12  and  O_13
REMARK   10  A    between atoms: C_14  and  C_15
REMARK   11  A    between atoms: C_15  and  C_16
REMARK                            x       y       z     vdW  Elec       q    Type
REMARK                         _______ _______ _______ _____ _____    ______ ____
ROOT
ATOM      1  C   UNL     1       2.333   6.458  19.100  0.00  0.00    +0.000 A 
ATOM      2  C   UNL     1       1.938   6.352  20.446  0.00  0.00    +0.000 A 
ATOM      3  C   UNL     1       1.413   7.446  21.139  0.00  0.00    +0.000 A 
ATOM      4  C   UNL     1       1.269   8.673  20.497  0.00  0.00    +0.000 A 
ATOM      5  C   UNL     1       1.650   8.831  19.164  0.00  0.00    +0.000 A 
ATOM      6  C   UNL     1       2.185   7.719  18.485  0.00  0.00    +0.000 A 
ENDROOT
BRANCH   1   7
ATOM      7  C   UNL     1       2.894   5.213  18.344  0.00  0.00    +0.000 C 
ATOM      8  C   UNL     1       3.918   5.632  17.266  0.00  0.00    +0.000 C 
ATOM      9  C   UNL     1       1.712   4.558  17.597  0.00  0.00    +0.000 C 
BRANCH   7  10
ATOM     10  C   UNL     1       3.532   4.260  19.426  0.00  0.00    +0.000 C 
BRANCH  10  12
ATOM     11  C   UNL     1       3.371   1.982  18.198  0.00  0.00    +0.000 C 
ATOM     12  C   UNL     1       3.252   2.722  19.537  0.00  0.00    +0.000 C 
ATOM     13  C   UNL     1       1.898   2.401  20.186  0.00  0.00    +0.000 C 
ATOM     14  C   UNL     1       4.344   2.123  20.467  0.00  0.00    +0.000 C 
ENDBRANCH  10  12
ENDBRANCH   7  10
ENDBRANCH   1   7
BRANCH   4  15
ATOM     15  O   UNL     1       0.741   9.738  21.171  0.00  0.00    +0.000 OA
ATOM     16  H   UNL     1       1.239   9.860  21.996  0.00  0.00    +0.000 HD
ENDBRANCH   4  15
BRANCH   5  17
ATOM     17  C   UNL     1       1.467  10.138  18.416  0.00  0.00    +0.000 C 
BRANCH  17  18
ATOM     18  C   UNL     1       0.013  10.534  18.242  0.00  0.00    +0.000 A 
ATOM     19  C   UNL     1      -0.846   9.639  17.573  0.00  0.00    +0.000 A 
ATOM     20  C   UNL     1      -2.178   9.966  17.319  0.00  0.00    +0.000 A 
ATOM     21  C   UNL     1      -2.676  11.193  17.740  0.00  0.00    +0.000 A 
ATOM     22 CL   UNL     1      -4.307  11.614  17.391  0.00  0.00    +0.000 Cl
ATOM     23  C   UNL     1      -1.862  12.083  18.434  0.00  0.00    +0.000 A 
ATOM     24  C   UNL     1      -0.525  11.754  18.685  0.00  0.00    +0.000 A 
ATOM     25 CL   UNL     1       0.414  12.912  19.562  0.00  0.00    +0.000 Cl
ENDBRANCH  17  18
ENDBRANCH   5  17
TORSDOF 6
ENDMDL
MODEL 5
REMARK VINA RESULT:      -7.1      5.964      8.981
REMARK  Name = 
REMARK  11 active torsions:
REMARK  status: ('A' for Active; 'I' for Inactive)
REMARK    1  A    between atoms: C_1  and  C_2
REMARK    2  A    between atoms: C_2  and  C_3
REMARK    3  A    between atoms: C_2  and  C_4
REMARK    4  A    between atoms: C_2  and  C_5
REMARK    5  A    between atoms: C_5  and  C_6
REMARK    6  A    between atoms: C_6  and  C_7
REMARK    7  A    between atoms: C_6  and  C_8
REMARK    8  A    between atoms: C_6  and  C_9
REMARK    9  A    between atoms: C_12  and  O_13
REMARK   10  A    between atoms: C_14  and  C_15
REMARK   11  A    between atoms: C_15  and  C_16
REMARK                            x       y       z     vdW  Elec       q    Type
REMARK                         _______ _______ _______ _____ _____    ______ ____
ROOT
ATOM      1  C   UNL     1       4.129   5.084  18.134  0.00  0.00    +0.000 A 
ATOM      2  C   UNL     1       5.148   4.431  18.851  0.00  0.00    +0.000 A 
ATOM      3  C   UNL     1       6.423   4.251  18.305  0.00  0.00    +0.000 A 
ATOM      4  C   UNL     1       6.706   4.727  17.028  0.00  0.00    +0.000 A 
ATOM      5  C   UNL     1       5.728   5.377  16.274  0.00  0.00    +0.000 A 
ATOM      6  C   UNL     1       4.448   5.540  16.838  0.00  0.00    +0.000 A 
ENDROOT
BRANCH   1   7
ATOM      7  C   UNL     1       2.723   5.291  18.778  0.00  0.00    +0.000 C 
ATOM      8  C   UNL     1       1.600   4.835  17.820  0.00  0.00    +0.000 C 
ATOM      9  C   UNL     1       2.533   6.809  18.988  0.00  0.00    +0.000 C 
BRANCH   7  10
ATOM     10  C   UNL     1       2.707   4.485  20.132  0.00  0.00    +0.000 C 
BRANCH  10  12
ATOM     11  C   UNL     1       2.090   2.583  21.782  0.00  0.00    +0.000 C 
ATOM     12  C   UNL     1       2.001   3.101  20.340  0.00  0.00    +0.000 C 
ATOM     13  C   UNL     1       2.497   2.019  19.371  0.00  0.00    +0.000 C 
ATOM     14  C   UNL     1       0.490   3.307  20.041  0.00  0.00    +0.000 C 
ENDBRANCH  10  12
ENDBRANCH   7  10
ENDBRANCH   1   7
BRANCH   4  15
ATOM     15  O   UNL     1       7.956   4.565  16.501  0.00  0.00    +0.000 OA
ATOM     16  H   UNL     1       8.478   4.013  17.107  0.00  0.00    +0.000 HD
ENDBRANCH   4  15
BRANCH   5  17
ATOM     17  C   UNL     1       6.010   5.949  14.897  0.00  0.00    +0.000 C 
BRANCH  17  18
ATOM     18  C   UNL     1       6.151   4.887  13.822  0.00  0.00    +0.000 A 
ATOM     19  C   UNL     1       5.103   3.960  13.659  0.00  0.00    +0.000 A 
ATOM     20  C   UNL     1       5.194   2.917  12.738  0.00  0.00    +0.000 A 
ATOM     21  C   UNL     1       6.335   2.791  11.954  0.00  0.00    +0.000 A 
ATOM     22 CL   UNL     1       6.466   1.481  10.847  0.00  0.00    +0.000 Cl
ATOM     23  C   UNL     1       7.372   3.711  12.067  0.00  0.00    +0.000 A 
ATOM     24  C   UNL     1       7.280   4.755  12.996  0.00  0.00    +0.000 A 
ATOM     25 CL   UNL     1       8.609   5.860  13.066  0.00  0.00    +0.000 Cl
ENDBRANCH  17  18
ENDBRANCH   5  17
TORSDOF 6
ENDMDL
MODEL 6
REMARK VINA RESULT:      -7.0      1.137      1.420
REMARK  Name = 
REMARK  11 active torsions:
REMARK  status: ('A' for Active; 'I' for Inactive)
REMARK    1  A    between atoms: C_1  and  C_2
REMARK    2  A    between atoms: C_2  and  C_3
REMARK    3  A    between atoms: C_2  and  C_4
REMARK    4  A    between atoms: C_2  and  C_5
REMARK    5  A    between atoms: C_5  and  C_6
REMARK    6  A    between atoms: C_6  and  C_7
REMARK    7  A    between atoms: C_6  and  C_8
REMARK    8  A    between atoms: C_6  and  C_9
REMARK    9  A    between atoms: C_12  and  O_13
REMARK   10  A    between atoms: C_14  and  C_15
REMARK   11  A    between atoms: C_15  and  C_16
REMARK                            x       y       z     vdW  Elec       q    Type
REMARK                         _______ _______ _______ _____ _____    ______ ____
ROOT
ATOM      1  C   UNL     1       2.336   6.102  18.984  0.00  0.00    +0.000 A 
ATOM      2  C   UNL     1       2.010   6.057  20.352  0.00  0.00    +0.000 A 
ATOM      3  C   UNL     1       1.594   7.201  21.040  0.00  0.00    +0.000 A 
ATOM      4  C   UNL     1       1.491   8.416  20.370  0.00  0.00    +0.000 A 
ATOM      5  C   UNL     1       1.807   8.515  19.014  0.00  0.00    +0.000 A 
ATOM      6  C   UNL     1       2.233   7.353  18.341  0.00  0.00    +0.000 A 
ENDROOT
BRANCH   1   7
ATOM      7  C   UNL     1       2.775   4.805  18.236  0.00  0.00    +0.000 C 
ATOM      8  C   UNL     1       1.578   4.148  17.514  0.00  0.00    +0.000 C 
ATOM      9  C   UNL     1       3.250   3.797  19.306  0.00  0.00    +0.000 C 
BRANCH   7  10
ATOM     10  C   UNL     1       3.920   5.211  17.233  0.00  0.00    +0.000 C 
BRANCH  10  12
ATOM     11  C   UNL     1       5.669   5.331  19.144  0.00  0.00    +0.000 C 
ATOM     12  C   UNL     1       5.401   5.520  17.644  0.00  0.00    +0.000 C 
ATOM     13  C   UNL     1       5.868   6.916  17.208  0.00  0.00    +0.000 C 
ATOM     14  C   UNL     1       6.306   4.496  16.905  0.00  0.00    +0.000 C 
ENDBRANCH  10  12
ENDBRANCH   7  10
ENDBRANCH   1   7
BRANCH   4  15
ATOM     15  O   UNL     1       1.069   9.531  21.039  0.00  0.00    +0.000 OA
ATOM     16  H   UNL     1       0.374   9.962  20.515  0.00  0.00    +0.000 HD
ENDBRANCH   4  15
BRANCH   5  17
ATOM     17  C   UNL     1       1.664   9.811  18.238  0.00  0.00    +0.000 C 
BRANCH  17  18
ATOM     18  C   UNL     1       0.234  10.310  18.157  0.00  0.00    +0.000 A 
ATOM     19  C   UNL     1      -0.729   9.479  17.553  0.00  0.00    +0.000 A 
ATOM     20  C   UNL     1      -2.048   9.901  17.383  0.00  0.00    +0.000 A 
ATOM     21  C   UNL     1      -2.428  11.161  17.829  0.00  0.00    +0.000 A 
ATOM     22 CL   UNL     1      -4.044  11.698  17.584  0.00  0.00    +0.000 Cl
ATOM     23  C   UNL     1      -1.508  11.991  18.462  0.00  0.00    +0.000 A 
ATOM     24  C   UNL     1      -0.184  11.568  18.626  0.00  0.00    +0.000 A 
ATOM     25 CL   UNL     1       0.891  12.656  19.432  0.00  0.00    +0.000 Cl
ENDBRANCH  17  18
ENDBRANCH   5  17
TORSDOF 6
ENDMDL
MODEL 7
REMARK VINA RESULT:      -7.0      6.370      9.128
REMARK  Name = 
REMARK  11 active torsions:
REMARK  status: ('A' for Active; 'I' for Inactive)
REMARK    1  A    between atoms: C_1  and  C_2
REMARK    2  A    between atoms: C_2  and  C_3
REMARK    3  A    between atoms: C_2  and  C_4
REMARK    4  A    between atoms: C_2  and  C_5
REMARK    5  A    between atoms: C_5  and  C_6
REMARK    6  A    between atoms: C_6  and  C_7
REMARK    7  A    between atoms: C_6  and  C_8
REMARK    8  A    between atoms: C_6  and  C_9
REMARK    9  A    between atoms: C_12  and  O_13
REMARK   10  A    between atoms: C_14  and  C_15
REMARK   11  A    between atoms: C_15  and  C_16
REMARK                            x       y       z     vdW  Elec       q    Type
REMARK                         _______ _______ _______ _____ _____    ______ ____
ROOT
ATOM      1  C   UNL     1       4.940   4.057  18.007  0.00  0.00    +0.000 A 
ATOM      2  C   UNL     1       6.051   4.500  18.748  0.00  0.00    +0.000 A 
ATOM      3  C   UNL     1       7.015   5.341  18.184  0.00  0.00    +0.000 A 
ATOM      4  C   UNL     1       6.885   5.759  16.863  0.00  0.00    +0.000 A 
ATOM      5  C   UNL     1       5.805   5.345  16.084  0.00  0.00    +0.000 A 
ATOM      6  C   UNL     1       4.849   4.491  16.668  0.00  0.00    +0.000 A 
ENDROOT
BRANCH   1   7
ATOM      7  C   UNL     1       3.867   3.138  18.670  0.00  0.00    +0.000 C 
ATOM      8  C   UNL     1       4.524   2.114  19.622  0.00  0.00    +0.000 C 
ATOM      9  C   UNL     1       3.198   2.324  17.541  0.00  0.00    +0.000 C 
BRANCH   7  10
ATOM     10  C   UNL     1       2.851   4.078  19.424  0.00  0.00    +0.000 C 
BRANCH  10  12
ATOM     11  C   UNL     1       1.917   2.948  21.562  0.00  0.00    +0.000 C 
ATOM     12  C   UNL     1       1.585   3.583  20.205  0.00  0.00    +0.000 C 
ATOM     13  C   UNL     1       0.710   2.623  19.386  0.00  0.00    +0.000 C 
ATOM     14  C   UNL     1       0.714   4.833  20.506  0.00  0.00    +0.000 C 
ENDBRANCH  10  12
ENDBRANCH   7  10
ENDBRANCH   1   7
BRANCH   4  15
ATOM     15  O   UNL     1       7.820   6.593  16.317  0.00  0.00    +0.000 OA
ATOM     16  H   UNL     1       7.431   7.480  16.231  0.00  0.00    +0.000 HD
ENDBRANCH   4  15
BRANCH   5  17
ATOM     17  C   UNL     1       5.604   5.815  14.655  0.00  0.00    +0.000 C 
BRANCH  17  18
ATOM     18  C   UNL     1       5.919   4.749  13.622  0.00  0.00    +0.000 A 
ATOM     19  C   UNL     1       4.931   3.786  13.335  0.00  0.00    +0.000 A 
ATOM     20  C   UNL     1       5.176   2.739  12.447  0.00  0.00    +0.000 A 
ATOM     21  C   UNL     1       6.413   2.645  11.820  0.00  0.00    +0.000 A 
ATOM     22 CL   UNL     1       6.730   1.331  10.756  0.00  0.00    +0.000 Cl
ATOM     23  C   UNL     1       7.396   3.601  12.056  0.00  0.00    +0.000 A 
ATOM     24  C   UNL     1       7.150   4.649  12.951  0.00  0.00    +0.000 A 
ATOM     25 CL   UNL     1       8.421   5.799  13.179  0.00  0.00    +0.000 Cl
ENDBRANCH  17  18
ENDBRANCH   5  17
TORSDOF 6
ENDMDL
MODEL 8
REMARK VINA RESULT:      -6.9      1.172      1.945
REMARK  Name = 
REMARK  11 active torsions:
REMARK  status: ('A' for Active; 'I' for Inactive)
REMARK    1  A    between atoms: C_1  and  C_2
REMARK    2  A    between atoms: C_2  and  C_3
REMARK    3  A    between atoms: C_2  and  C_4
REMARK    4  A    between atoms: C_2  and  C_5
REMARK    5  A    between atoms: C_5  and  C_6
REMARK    6  A    between atoms: C_6  and  C_7
REMARK    7  A    between atoms: C_6  and  C_8
REMARK    8  A    between atoms: C_6  and  C_9
REMARK    9  A    between atoms: C_12  and  O_13
REMARK   10  A    between atoms: C_14  and  C_15
REMARK   11  A    between atoms: C_15  and  C_16
REMARK                            x       y       z     vdW  Elec       q    Type
REMARK                         _______ _______ _______ _____ _____    ______ ____
ROOT
ATOM      1  C   UNL     1       3.232   6.771  18.493  0.00  0.00    +0.000 A 
ATOM      2  C   UNL     1       2.683   6.276  19.690  0.00  0.00    +0.000 A 
ATOM      3  C   UNL     1       1.787   7.034  20.449  0.00  0.00    +0.000 A 
ATOM      4  C   UNL     1       1.418   8.307  20.024  0.00  0.00    +0.000 A 
ATOM      5  C   UNL     1       1.938   8.846  18.847  0.00  0.00    +0.000 A 
ATOM      6  C   UNL     1       2.847   8.070  18.100  0.00  0.00    +0.000 A 
ENDROOT
BRANCH   1   7
ATOM      7  C   UNL     1       4.212   5.894  17.654  0.00  0.00    +0.000 C 
ATOM      8  C   UNL     1       4.606   6.602  16.339  0.00  0.00    +0.000 C 
ATOM      9  C   UNL     1       3.450   4.611  17.252  0.00  0.00    +0.000 C 
BRANCH   7  10
ATOM     10  C   UNL     1       5.465   5.595  18.563  0.00  0.00    +0.000 C 
BRANCH  10  12
ATOM     11  C   UNL     1       7.255   7.125  17.477  0.00  0.00    +0.000 C 
ATOM     12  C   UNL     1       6.957   5.759  18.110  0.00  0.00    +0.000 C 
ATOM     13  C   UNL     1       7.427   4.640  17.169  0.00  0.00    +0.000 C 
ATOM     14  C   UNL     1       7.837   5.665  19.387  0.00  0.00    +0.000 C 
ENDBRANCH  10  12
ENDBRANCH   7  10
ENDBRANCH   1   7
BRANCH   4  15
ATOM     15  O   UNL     1       0.531   9.041  20.758  0.00  0.00    +0.000 OA
ATOM     16  H   UNL     1       0.048   9.634  20.159  0.00  0.00    +0.000 HD
ENDBRANCH   4  15
BRANCH   5  17
ATOM     17  C   UNL     1       1.527  10.211  18.326  0.00  0.00    +0.000 C 
BRANCH  17  18
ATOM     18  C   UNL     1       0.024  10.415  18.295  0.00  0.00    +0.000 A 
ATOM     19  C   UNL     1      -0.744   9.592  17.448  0.00  0.00    +0.000 A 
ATOM     20  C   UNL     1      -2.121   9.769  17.318  0.00  0.00    +0.000 A 
ATOM     21  C   UNL     1      -2.757  10.768  18.046  0.00  0.00    +0.000 A 
ATOM     22 CL   UNL     1      -4.449  11.013  17.857  0.00  0.00    +0.000 Cl
ATOM     23  C   UNL     1      -2.031  11.573  18.919  0.00  0.00    +0.000 A 
ATOM     24  C   UNL     1      -0.648  11.397  19.044  0.00  0.00    +0.000 A 
ATOM     25 CL   UNL     1       0.176  12.432  20.157  0.00  0.00    +0.000 Cl
ENDBRANCH  17  18
ENDBRANCH   5  17
TORSDOF 6
ENDMDL
MODEL 9
REMARK VINA RESULT:      -6.9      5.841      8.769
REMARK  Name = 
REMARK  11 active torsions:
REMARK  status: ('A' for Active; 'I' for Inactive)
REMARK    1  A    between atoms: C_1  and  C_2
REMARK    2  A    between atoms: C_2  and  C_3
REMARK    3  A    between atoms: C_2  and  C_4
REMARK    4  A    between atoms: C_2  and  C_5
REMARK    5  A    between atoms: C_5  and  C_6
REMARK    6  A    between atoms: C_6  and  C_7
REMARK    7  A    between atoms: C_6  and  C_8
REMARK    8  A    between atoms: C_6  and  C_9
REMARK    9  A    between atoms: C_12  and  O_13
REMARK   10  A    between atoms: C_14  and  C_15
REMARK   11  A    between atoms: C_15  and  C_16
REMARK                            x       y       z     vdW  Elec       q    Type
REMARK                         _______ _______ _______ _____ _____    ______ ____
ROOT
ATOM      1  C   UNL     1       4.185   5.427  18.211  0.00  0.00    +0.000 A 
ATOM      2  C   UNL     1       5.037   4.718  19.078  0.00  0.00    +0.000 A 
ATOM      3  C   UNL     1       6.354   4.415  18.719  0.00  0.00    +0.000 A 
ATOM      4  C   UNL     1       6.848   4.820  17.482  0.00  0.00    +0.000 A 
ATOM      5  C   UNL     1       6.042   5.521  16.584  0.00  0.00    +0.000 A 
ATOM      6  C   UNL     1       4.715   5.809  16.961  0.00  0.00    +0.000 A 
ENDROOT
BRANCH   1   7
ATOM      7  C   UNL     1       2.728   5.771  18.649  0.00  0.00    +0.000 C 
ATOM      8  C   UNL     1       2.297   7.153  18.109  0.00  0.00    +0.000 C 
ATOM      9  C   UNL     1       2.724   5.880  20.190  0.00  0.00    +0.000 C 
BRANCH   7  10
ATOM     10  C   UNL     1       1.797   4.614  18.120  0.00  0.00    +0.000 C 
BRANCH  10  12
ATOM     11  C   UNL     1       2.796   2.235  17.870  0.00  0.00    +0.000 C 
ATOM     12  C   UNL     1       1.823   3.137  18.642  0.00  0.00    +0.000 C 
ATOM     13  C   UNL     1       0.433   2.485  18.678  0.00  0.00    +0.000 C 
ATOM     14  C   UNL     1       2.333   3.177  20.109  0.00  0.00    +0.000 C 
ENDBRANCH  10  12
ENDBRANCH   7  10
ENDBRANCH   1   7
BRANCH   4  15
ATOM     15  O   UNL     1       8.139   4.537  17.137  0.00  0.00    +0.000 OA
ATOM     16  H   UNL     1       8.150   3.710  16.627  0.00  0.00    +0.000 HD
ENDBRANCH   4  15
BRANCH   5  17
ATOM     17  C   UNL     1       6.556   6.018  15.246  0.00  0.00    +0.000 C 
BRANCH  17  18
ATOM     18  C   UNL     1       6.417   4.998  14.131  0.00  0.00    +0.000 A 
ATOM     19  C   UNL     1       5.312   4.124  14.162  0.00  0.00    +0.000 A 
ATOM     20  C   UNL     1       5.157   3.118  13.208  0.00  0.00    +0.000 A 
ATOM     21  C   UNL     1       6.102   2.977  12.199  0.00  0.00    +0.000 A 
ATOM     22 CL   UNL     1       5.933   1.712  11.046  0.00  0.00    +0.000 Cl
ATOM     23  C   UNL     1       7.185   3.848  12.121  0.00  0.00    +0.000 A 
ATOM     24  C   UNL     1       7.341   4.854  13.082  0.00  0.00    +0.000 A 
ATOM     25 CL   UNL     1       8.708   5.898  12.907  0.00  0.00    +0.000 Cl
ENDBRANCH  17  18
ENDBRANCH   5  17
TORSDOF 6
ENDMDL
