MODEL 1
REMARK VINA RESULT:      -7.3      0.000      0.000
REMARK  Name = 
REMARK  5 active torsions:
REMARK  status: ('A' for Active; 'I' for Inactive)
REMARK    1  A    between atoms: C_1  and  C_2
REMARK    2  A    between atoms: C_2  and  C_3
REMARK    3  A    between atoms: C_2  and  N_4
REMARK    4  A    between atoms: N_10  and  C_11
REMARK    5  A    between atoms: C_11  and  C_12
REMARK                            x       y       z     vdW  Elec       q    Type
REMARK                         _______ _______ _______ _____ _____    ______ ____
ROOT
ATOM      1  N   UNL     1       2.329   4.507  20.453  0.00  0.00    +0.000 NA
ATOM      2  C   UNL     1       1.139   3.664  20.350  0.00  0.00    +0.000 C 
ATOM      3  C   UNL     1       1.412   2.692  21.484  0.00  0.00    +0.000 C 
ATOM      4  C   UNL     1       2.888   2.398  21.367  0.00  0.00    +0.000 C 
ATOM      5  C   UNL     1       3.463   3.556  20.501  0.00  0.00    +0.000 C 
ATOM      6  C   UNL     1       4.097   2.843  19.257  0.00  0.00    +0.000 C 
ATOM      7  N   UNL     1       3.372   2.800  17.977  0.00  0.00    +0.000 NA
ATOM      8  C   UNL     1       1.982   2.373  18.122  0.00  0.00    +0.000 C 
ATOM      9  C   UNL     1       0.893   3.110  18.933  0.00  0.00    +0.000 C 
ENDROOT
BRANCH   1  11
ATOM     10  C   UNL     1       1.457   6.823  20.565  0.00  0.00    +0.000 C 
ATOM     11  C   UNL     1       2.215   5.772  19.708  0.00  0.00    +0.000 C 
ATOM     12  C   UNL     1       3.485   6.483  19.226  0.00  0.00    +0.000 C 
ENDBRANCH   1  11
BRANCH   7  13
ATOM     13  C   UNL     1       3.759   3.993  17.241  0.00  0.00    +0.000 C 
BRANCH  13  14
ATOM     14  C   UNL     1       5.128   4.268  16.705  0.00  0.00    +0.000 A 
ATOM     15  C   UNL     1       5.269   4.198  15.303  0.00  0.00    +0.000 A 
ATOM     16  C   UNL     1       6.425   4.662  14.715  0.00  0.00    +0.000 A 
ATOM     17  N   UNL     1       7.462   5.160  15.415  0.00  0.00    +0.000 NA
ATOM     18  C   UNL     1       7.314   5.210  16.759  0.00  0.00    +0.000 A 
ATOM     19  C   UNL     1       6.181   4.794  17.446  0.00  0.00    +0.000 A 
ENDBRANCH  13  14
ENDBRANCH   7  13
TORSDOF 3
ENDMDL
MODEL 2
REMARK VINA RESULT:      -7.1      0.440      1.092
REMARK  Name = 
REMARK  5 active torsions:
REMARK  status: ('A' for Active; 'I' for Inactive)
REMARK    1  A    between atoms: C_1  and  C_2
REMARK    2  A    between atoms: C_2  and  C_3
REMARK    3  A    between atoms: C_2  and  N_4
REMARK    4  A    between atoms: N_10  and  C_11
REMARK    5  A    between atoms: C_11  and  C_12
REMARK                            x       y       z     vdW  Elec       q    Type
REMARK                         _______ _______ _______ _____ _____    ______ ____
ROOT
ATOM      1  N   UNL     1       2.227   4.623  20.497  0.00  0.00    +0.000 NA
ATOM      2  C   UNL     1       1.120   3.677  20.347  0.00  0.00    +0.000 C 
ATOM      3  C   UNL     1       1.501   2.664  21.411  0.00  0.00    +0.000 C 
ATOM      4  C   UNL     1       2.996   2.521  21.264  0.00  0.00    +0.000 C 
ATOM      5  C   UNL     1       3.446   3.783  20.473  0.00  0.00    +0.000 C 
ATOM      6  C   UNL     1       4.128   3.218  19.180  0.00  0.00    +0.000 C 
ATOM      7  N   UNL     1       3.393   3.190  17.905  0.00  0.00    +0.000 NA
ATOM      8  C   UNL     1       2.052   2.623  18.031  0.00  0.00    +0.000 C 
ATOM      9  C   UNL     1       0.909   3.198  18.898  0.00  0.00    +0.000 C 
ENDROOT
BRANCH   1  11
ATOM     10  C   UNL     1       1.218   6.864  20.806  0.00  0.00    +0.000 C 
ATOM     11  C   UNL     1       1.983   5.917  19.839  0.00  0.00    +0.000 C 
ATOM     12  C   UNL     1       3.169   6.738  19.322  0.00  0.00    +0.000 C 
ENDBRANCH   1  11
BRANCH   7  13
ATOM     13  C   UNL     1       3.654   4.461  17.248  0.00  0.00    +0.000 C 
BRANCH  13  14
ATOM     14  C   UNL     1       4.902   4.801  16.495  0.00  0.00    +0.000 A 
ATOM     15  C   UNL     1       5.745   5.759  17.096  0.00  0.00    +0.000 A 
ATOM     16  C   UNL     1       7.013   5.955  16.594  0.00  0.00    +0.000 A 
ATOM     17  N   UNL     1       7.494   5.295  15.525  0.00  0.00    +0.000 NA
ATOM     18  C   UNL     1       6.668   4.387  14.954  0.00  0.00    +0.000 A 
ATOM     19  C   UNL     1       5.385   4.095  15.399  0.00  0.00    +0.000 A 
ENDBRANCH  13  14
ENDBRANCH   7  13
TORSDOF 3
ENDMDL
MODEL 3
REMARK VINA RESULT:      -6.9      1.242      3.001
REMARK  Name = 
REMARK  5 active torsions:
REMARK  status: ('A' for Active; 'I' for Inactive)
REMARK    1  A    between atoms: C_1  and  C_2
REMARK    2  A    between atoms: C_2  and  C_3
REMARK    3  A    between atoms: C_2  and  N_4
REMARK    4  A    between atoms: N_10  and  C_11
REMARK    5  A    between atoms: C_11  and  C_12
REMARK                            x       y       z     vdW  Elec       q    Type
REMARK                         _______ _______ _______ _____ _____    ______ ____
ROOT
ATOM      1  N   UNL     1       2.818   2.797  19.928  0.00  0.00    +0.000 NA
ATOM      2  C   UNL     1       3.007   4.022  20.705  0.00  0.00    +0.000 C 
ATOM      3  C   UNL     1       1.608   4.188  21.271  0.00  0.00    +0.000 C 
ATOM      4  C   UNL     1       0.701   3.839  20.115  0.00  0.00    +0.000 C 
ATOM      5  C   UNL     1       1.600   3.046  19.122  0.00  0.00    +0.000 C 
ATOM      6  C   UNL     1       1.551   3.877  17.794  0.00  0.00    +0.000 C 
ATOM      7  N   UNL     1       2.662   4.773  17.437  0.00  0.00    +0.000 NA
ATOM      8  C   UNL     1       3.068   5.645  18.537  0.00  0.00    +0.000 C 
ATOM      9  C   UNL     1       3.630   5.177  19.898  0.00  0.00    +0.000 C 
ENDROOT
BRANCH   1  11
ATOM     10  C   UNL     1       4.832   1.628  20.772  0.00  0.00    +0.000 C 
ATOM     11  C   UNL     1       4.082   2.163  19.520  0.00  0.00    +0.000 C 
ATOM     12  C   UNL     1       4.055   0.990  18.532  0.00  0.00    +0.000 C 
ENDBRANCH   1  11
BRANCH   7  13
ATOM     13  C   UNL     1       3.608   3.977  16.671  0.00  0.00    +0.000 C 
BRANCH  13  14
ATOM     14  C   UNL     1       4.980   4.419  16.271  0.00  0.00    +0.000 A 
ATOM     15  C   UNL     1       5.957   4.400  17.289  0.00  0.00    +0.000 A 
ATOM     16  C   UNL     1       7.284   4.564  16.957  0.00  0.00    +0.000 A 
ATOM     17  N   UNL     1       7.710   4.775  15.698  0.00  0.00    +0.000 NA
ATOM     18  C   UNL     1       6.759   4.800  14.735  0.00  0.00    +0.000 A 
ATOM     19  C   UNL     1       5.400   4.618  14.961  0.00  0.00    +0.000 A 
ENDBRANCH  13  14
ENDBRANCH   7  13
TORSDOF 3
ENDMDL
MODEL 4
REMARK VINA RESULT:      -6.9      1.205      1.967
REMARK  Name = 
REMARK  5 active torsions:
REMARK  status: ('A' for Active; 'I' for Inactive)
REMARK    1  A    between atoms: C_1  and  C_2
REMARK    2  A    between atoms: C_2  and  C_3
REMARK    3  A    between atoms: C_2  and  N_4
REMARK    4  A    between atoms: N_10  and  C_11
REMARK    5  A    between atoms: C_11  and  C_12
REMARK                            x       y       z     vdW  Elec       q    Type
REMARK                         _______ _______ _______ _____ _____    ______ ____
ROOT
ATOM      1  N   UNL     1       1.973   4.665  19.699  0.00  0.00    +0.000 NA
ATOM      2  C   UNL     1       1.378   3.991  18.544  0.00  0.00    +0.000 C 
ATOM      3  C   UNL     1       0.516   2.966  19.259  0.00  0.00    +0.000 C 
ATOM      4  C   UNL     1       1.388   2.479  20.391  0.00  0.00    +0.000 C 
ATOM      5  C   UNL     1       2.488   3.569  20.551  0.00  0.00    +0.000 C 
ATOM      6  C   UNL     1       3.838   2.806  20.323  0.00  0.00    +0.000 C 
ATOM      7  N   UNL     1       4.528   2.890  19.026  0.00  0.00    +0.000 NA
ATOM      8  C   UNL     1       3.640   2.650  17.890  0.00  0.00    +0.000 C 
ATOM      9  C   UNL     1       2.413   3.509  17.509  0.00  0.00    +0.000 C 
ENDROOT
BRANCH   1  11
ATOM     10  C   UNL     1       2.364   6.282  17.864  0.00  0.00    +0.000 C 
ATOM     11  C   UNL     1       2.608   5.950  19.363  0.00  0.00    +0.000 C 
ATOM     12  C   UNL     1       2.205   7.216  20.129  0.00  0.00    +0.000 C 
ENDBRANCH   1  11
BRANCH   7  13
ATOM     13  C   UNL     1       5.419   4.037  19.103  0.00  0.00    +0.000 C 
BRANCH  13  14
ATOM     14  C   UNL     1       5.976   4.775  17.928  0.00  0.00    +0.000 A 
ATOM     15  C   UNL     1       6.478   6.067  18.190  0.00  0.00    +0.000 A 
ATOM     16  C   UNL     1       7.214   6.717  17.224  0.00  0.00    +0.000 A 
ATOM     17  N   UNL     1       7.463   6.194  16.009  0.00  0.00    +0.000 NA
ATOM     18  C   UNL     1       6.966   4.958  15.770  0.00  0.00    +0.000 A 
ATOM     19  C   UNL     1       6.236   4.209  16.684  0.00  0.00    +0.000 A 
ENDBRANCH  13  14
ENDBRANCH   7  13
TORSDOF 3
ENDMDL
MODEL 5
REMARK VINA RESULT:      -6.8      2.255      5.323
REMARK  Name = 
REMARK  5 active torsions:
REMARK  status: ('A' for Active; 'I' for Inactive)
REMARK    1  A    between atoms: C_1  and  C_2
REMARK    2  A    between atoms: C_2  and  C_3
REMARK    3  A    between atoms: C_2  and  N_4
REMARK    4  A    between atoms: N_10  and  C_11
REMARK    5  A    between atoms: C_11  and  C_12
REMARK                            x       y       z     vdW  Elec       q    Type
REMARK                         _______ _______ _______ _____ _____    ______ ____
ROOT
ATOM      1  N   UNL     1       4.278   3.750  17.422  0.00  0.00    +0.000 NA
ATOM      2  C   UNL     1       4.480   2.994  18.658  0.00  0.00    +0.000 C 
ATOM      3  C   UNL     1       3.699   1.737  18.323  0.00  0.00    +0.000 C 
ATOM      4  C   UNL     1       2.460   2.249  17.628  0.00  0.00    +0.000 C 
ATOM      5  C   UNL     1       2.817   3.696  17.182  0.00  0.00    +0.000 C 
ATOM      6  C   UNL     1       1.752   4.603  17.890  0.00  0.00    +0.000 C 
ATOM      7  N   UNL     1       2.101   5.339  19.116  0.00  0.00    +0.000 NA
ATOM      8  C   UNL     1       2.763   4.502  20.115  0.00  0.00    +0.000 C 
ATOM      9  C   UNL     1       4.119   3.783  19.931  0.00  0.00    +0.000 C 
ENDROOT
BRANCH   1  11
ATOM     10  C   UNL     1       6.667   4.386  17.266  0.00  0.00    +0.000 C 
ATOM     11  C   UNL     1       5.196   4.891  17.277  0.00  0.00    +0.000 C 
ATOM     12  C   UNL     1       5.075   5.810  16.056  0.00  0.00    +0.000 C 
ENDBRANCH   1  11
BRANCH   7  13
ATOM     13  C   UNL     1       2.625   6.627  18.692  0.00  0.00    +0.000 C 
BRANCH  13  14
ATOM     14  C   UNL     1       2.065   7.956  19.089  0.00  0.00    +0.000 A 
ATOM     15  C   UNL     1       1.846   8.873  18.039  0.00  0.00    +0.000 A 
ATOM     16  C   UNL     1       1.122  10.021  18.282  0.00  0.00    +0.000 A 
ATOM     17  N   UNL     1       0.628  10.340  19.492  0.00  0.00    +0.000 NA
ATOM     18  C   UNL     1       0.856   9.454  20.490  0.00  0.00    +0.000 A 
ATOM     19  C   UNL     1       1.548   8.259  20.344  0.00  0.00    +0.000 A 
ENDBRANCH  13  14
ENDBRANCH   7  13
TORSDOF 3
ENDMDL
MODEL 6
REMARK VINA RESULT:      -6.8      2.216      5.267
REMARK  Name = 
REMARK  5 active torsions:
REMARK  status: ('A' for Active; 'I' for Inactive)
REMARK    1  A    between atoms: C_1  and  C_2
REMARK    2  A    between atoms: C_2  and  C_3
REMARK    3  A    between atoms: C_2  and  N_4
REMARK    4  A    between atoms: N_10  and  C_11
REMARK    5  A    between atoms: C_11  and  C_12
REMARK                            x       y       z     vdW  Elec       q    Type
REMARK                         _______ _______ _______ _____ _____    ______ ____
ROOT
ATOM      1  N   UNL     1       4.200   3.839  17.503  0.00  0.00    +0.000 NA
ATOM      2  C   UNL     1       4.431   2.853  18.558  0.00  0.00    +0.000 C 
ATOM      3  C   UNL     1       3.549   1.725  18.055  0.00  0.00    +0.000 C 
ATOM      4  C   UNL     1       2.305   2.424  17.562  0.00  0.00    +0.000 C 
ATOM      5  C   UNL     1       2.727   3.909  17.367  0.00  0.00    +0.000 C 
ATOM      6  C   UNL     1       1.771   4.719  18.310  0.00  0.00    +0.000 C 
ATOM      7  N   UNL     1       2.244   5.188  19.622  0.00  0.00    +0.000 NA
ATOM      8  C   UNL     1       2.913   4.143  20.395  0.00  0.00    +0.000 C 
ATOM      9  C   UNL     1       4.204   3.403  19.980  0.00  0.00    +0.000 C 
ENDROOT
BRANCH   1  11
ATOM     10  C   UNL     1       6.599   4.378  17.200  0.00  0.00    +0.000 C 
ATOM     11  C   UNL     1       5.180   4.937  17.505  0.00  0.00    +0.000 C 
ATOM     12  C   UNL     1       4.996   6.118  16.544  0.00  0.00    +0.000 C 
ENDBRANCH   1  11
BRANCH   7  13
ATOM     13  C   UNL     1       2.824   6.504  19.407  0.00  0.00    +0.000 C 
BRANCH  13  14
ATOM     14  C   UNL     1       2.046   7.753  19.132  0.00  0.00    +0.000 A 
ATOM     15  C   UNL     1       1.437   8.360  20.250  0.00  0.00    +0.000 A 
ATOM     16  C   UNL     1       0.905   9.626  20.127  0.00  0.00    +0.000 A 
ATOM     17  N   UNL     1       0.907  10.319  18.973  0.00  0.00    +0.000 NA
ATOM     18  C   UNL     1       1.487   9.717  17.909  0.00  0.00    +0.000 A 
ATOM     19  C   UNL     1       2.074   8.458  17.934  0.00  0.00    +0.000 A 
ENDBRANCH  13  14
ENDBRANCH   7  13
TORSDOF 3
ENDMDL
MODEL 7
REMARK VINA RESULT:      -6.8      1.261      2.838
REMARK  Name = 
REMARK  5 active torsions:
REMARK  status: ('A' for Active; 'I' for Inactive)
REMARK    1  A    between atoms: C_1  and  C_2
REMARK    2  A    between atoms: C_2  and  C_3
REMARK    3  A    between atoms: C_2  and  N_4
REMARK    4  A    between atoms: N_10  and  C_11
REMARK    5  A    between atoms: C_11  and  C_12
REMARK                            x       y       z     vdW  Elec       q    Type
REMARK                         _______ _______ _______ _____ _____    ______ ____
ROOT
ATOM      1  N   UNL     1       2.910   2.953  19.907  0.00  0.00    +0.000 NA
ATOM      2  C   UNL     1       3.202   4.201  20.613  0.00  0.00    +0.000 C 
ATOM      3  C   UNL     1       1.834   4.489  21.204  0.00  0.00    +0.000 C 
ATOM      4  C   UNL     1       0.873   4.143  20.092  0.00  0.00    +0.000 C 
ATOM      5  C   UNL     1       1.689   3.242  19.121  0.00  0.00    +0.000 C 
ATOM      6  C   UNL     1       1.656   4.003  17.751  0.00  0.00    +0.000 C 
ATOM      7  N   UNL     1       2.813   4.804  17.319  0.00  0.00    +0.000 NA
ATOM      8  C   UNL     1       3.306   5.703  18.360  0.00  0.00    +0.000 C 
ATOM      9  C   UNL     1       3.876   5.269  19.730  0.00  0.00    +0.000 C 
ENDROOT
BRANCH   1  11
ATOM     10  C   UNL     1       4.855   1.677  20.760  0.00  0.00    +0.000 C 
ATOM     11  C   UNL     1       4.118   2.216  19.501  0.00  0.00    +0.000 C 
ATOM     12  C   UNL     1       3.989   1.011  18.561  0.00  0.00    +0.000 C 
ENDBRANCH   1  11
BRANCH   7  13
ATOM     13  C   UNL     1       3.681   3.908  16.573  0.00  0.00    +0.000 C 
BRANCH  13  14
ATOM     14  C   UNL     1       5.110   4.185  16.225  0.00  0.00    +0.000 A 
ATOM     15  C   UNL     1       5.371   4.477  14.870  0.00  0.00    +0.000 A 
ATOM     16  C   UNL     1       6.607   4.969  14.509  0.00  0.00    +0.000 A 
ATOM     17  N   UNL     1       7.609   5.165  15.386  0.00  0.00    +0.000 NA
ATOM     18  C   UNL     1       7.344   4.870  16.681  0.00  0.00    +0.000 A 
ATOM     19  C   UNL     1       6.126   4.396  17.151  0.00  0.00    +0.000 A 
ENDBRANCH  13  14
ENDBRANCH   7  13
TORSDOF 3
ENDMDL
MODEL 8
REMARK VINA RESULT:      -6.7      1.414      2.963
REMARK  Name = 
REMARK  5 active torsions:
REMARK  status: ('A' for Active; 'I' for Inactive)
REMARK    1  A    between atoms: C_1  and  C_2
REMARK    2  A    between atoms: C_2  and  C_3
REMARK    3  A    between atoms: C_2  and  N_4
REMARK    4  A    between atoms: N_10  and  C_11
REMARK    5  A    between atoms: C_11  and  C_12
REMARK                            x       y       z     vdW  Elec       q    Type
REMARK                         _______ _______ _______ _____ _____    ______ ____
ROOT
ATOM      1  N   UNL     1       2.637   2.463  19.744  0.00  0.00    +0.000 NA
ATOM      2  C   UNL     1       2.610   3.414  20.855  0.00  0.00    +0.000 C 
ATOM      3  C   UNL     1       1.172   3.242  21.309  0.00  0.00    +0.000 C 
ATOM      4  C   UNL     1       0.389   3.149  20.022  0.00  0.00    +0.000 C 
ATOM      5  C   UNL     1       1.443   2.797  18.933  0.00  0.00    +0.000 C 
ATOM      6  C   UNL     1       1.355   3.973  17.900  0.00  0.00    +0.000 C 
ATOM      7  N   UNL     1       2.350   5.057  17.923  0.00  0.00    +0.000 NA
ATOM      8  C   UNL     1       2.568   5.605  19.260  0.00  0.00    +0.000 C 
ATOM      9  C   UNL     1       3.111   4.821  20.477  0.00  0.00    +0.000 C 
ENDROOT
BRANCH   1  11
ATOM     10  C   UNL     1       4.834   1.597  20.490  0.00  0.00    +0.000 C 
ATOM     11  C   UNL     1       3.997   2.130  19.293  0.00  0.00    +0.000 C 
ATOM     12  C   UNL     1       4.192   1.100  18.173  0.00  0.00    +0.000 C 
ENDBRANCH   1  11
BRANCH   7  13
ATOM     13  C   UNL     1       3.438   4.640  17.054  0.00  0.00    +0.000 C 
BRANCH  13  14
ATOM     14  C   UNL     1       4.821   5.210  17.072  0.00  0.00    +0.000 A 
ATOM     15  C   UNL     1       5.863   4.317  16.744  0.00  0.00    +0.000 A 
ATOM     16  C   UNL     1       7.129   4.808  16.510  0.00  0.00    +0.000 A 
ATOM     17  N   UNL     1       7.443   6.114  16.605  0.00  0.00    +0.000 NA
ATOM     18  C   UNL     1       6.434   6.956  16.929  0.00  0.00    +0.000 A 
ATOM     19  C   UNL     1       5.121   6.565  17.159  0.00  0.00    +0.000 A 
ENDBRANCH  13  14
ENDBRANCH   7  13
TORSDOF 3
ENDMDL
MODEL 9
REMARK VINA RESULT:      -6.7      1.592      3.113
REMARK  Name = 
REMARK  5 active torsions:
REMARK  status: ('A' for Active; 'I' for Inactive)
REMARK    1  A    between atoms: C_1  and  C_2
REMARK    2  A    between atoms: C_2  and  C_3
REMARK    3  A    between atoms: C_2  and  N_4
REMARK    4  A    between atoms: N_10  and  C_11
REMARK    5  A    between atoms: C_11  and  C_12
REMARK                            x       y       z     vdW  Elec       q    Type
REMARK                         _______ _______ _______ _____ _____    ______ ____
ROOT
ATOM      1  N   UNL     1       2.624   2.538  19.618  0.00  0.00    +0.000 NA
ATOM      2  C   UNL     1       2.527   3.444  20.762  0.00  0.00    +0.000 C 
ATOM      3  C   UNL     1       1.043   3.326  21.060  0.00  0.00    +0.000 C 
ATOM      4  C   UNL     1       0.394   3.325  19.698  0.00  0.00    +0.000 C 
ATOM      5  C   UNL     1       1.537   2.964  18.706  0.00  0.00    +0.000 C 
ATOM      6  C   UNL     1       1.610   4.184  17.724  0.00  0.00    +0.000 C 
ATOM      7  N   UNL     1       2.646   5.215  17.895  0.00  0.00    +0.000 NA
ATOM      8  C   UNL     1       2.750   5.696  19.271  0.00  0.00    +0.000 C 
ATOM      9  C   UNL     1       3.129   4.838  20.500  0.00  0.00    +0.000 C 
ENDROOT
BRANCH   1  11
ATOM     10  C   UNL     1       4.734   1.662  20.574  0.00  0.00    +0.000 C 
ATOM     11  C   UNL     1       4.007   2.155  19.291  0.00  0.00    +0.000 C 
ATOM     12  C   UNL     1       4.263   1.070  18.239  0.00  0.00    +0.000 C 
ENDBRANCH   1  11
BRANCH   7  13
ATOM     13  C   UNL     1       3.797   4.778  17.123  0.00  0.00    +0.000 C 
BRANCH  13  14
ATOM     14  C   UNL     1       5.196   5.276  17.306  0.00  0.00    +0.000 A 
ATOM     15  C   UNL     1       5.436   6.608  16.909  0.00  0.00    +0.000 A 
ATOM     16  C   UNL     1       6.623   7.216  17.256  0.00  0.00    +0.000 A 
ATOM     17  N   UNL     1       7.599   6.591  17.941  0.00  0.00    +0.000 NA
ATOM     18  C   UNL     1       7.357   5.310  18.305  0.00  0.00    +0.000 A 
ATOM     19  C   UNL     1       6.186   4.618  18.029  0.00  0.00    +0.000 A 
ENDBRANCH  13  14
ENDBRANCH   7  13
TORSDOF 3
ENDMDL
