MODEL 1
REMARK VINA RESULT:      -7.3      0.000      0.000
REMARK  Name = 
REMARK  7 active torsions:
REMARK  status: ('A' for Active; 'I' for Inactive)
REMARK    1  A    between atoms: C_1  and  C_2
REMARK    2  A    between atoms: C_5  and  C_6
REMARK    3  A    between atoms: C_6  and  C_7
REMARK    4  A    between atoms: C_6  and  C_19
REMARK    5  A    between atoms: C_7  and  N_8
REMARK    6  A    between atoms: C_9  and  C_11
REMARK    7  A    between atoms: C_19  and  C_20
REMARK                            x       y       z     vdW  Elec       q    Type
REMARK                         _______ _______ _______ _____ _____    ______ ____
ROOT
ATOM      1  C   UNL     1       5.139   3.798  18.130  0.00  0.00    +0.000 C 
ENDROOT
BRANCH   1   2
ATOM      2  N   UNL     1       4.427   4.821  18.873  0.00  0.00    +0.000 N 
ATOM      3  C   UNL     1       3.126   5.153  18.529  0.00  0.00    +0.000 C 
ATOM      4  O   UNL     1       2.534   4.583  17.620  0.00  0.00    +0.000 OA
ATOM      5  H   UNL     1       4.910   5.348  19.590  0.00  0.00    +0.000 HD
BRANCH   3   6
ATOM      6  C   UNL     1       2.465   6.246  19.301  0.00  0.00    +0.000 A 
ATOM      7  C   UNL     1       2.422   7.568  18.824  0.00  0.00    +0.000 A 
ATOM      8 CL   UNL     1       3.087   8.070  17.304  0.00  0.00    +0.000 Cl
ATOM      9  C   UNL     1       1.787   8.579  19.561  0.00  0.00    +0.000 A 
ATOM     10  C   UNL     1       1.162   8.287  20.767  0.00  0.00    +0.000 A 
ATOM     11  C   UNL     1       1.170   6.979  21.241  0.00  0.00    +0.000 A 
ATOM     12  C   UNL     1       1.821   5.962  20.524  0.00  0.00    +0.000 A 
ATOM     13 CL   UNL     1       1.808   4.402  21.271  0.00  0.00    +0.000 Cl
ENDBRANCH   3   6
ENDBRANCH   1   2
BRANCH   1  14
ATOM     14  C   UNL     1       6.190   4.325  17.118  0.00  0.00    +0.000 C 
BRANCH  14  19
ATOM     15  C   UNL     1       8.561   9.426  18.282  0.00  0.00    +0.000 C 
ATOM     16  C   UNL     1       7.922   8.098  18.015  0.00  0.00    +0.000 A 
ATOM     17  N   UNL     1       7.028   8.023  17.014  0.00  0.00    +0.000 NA
ATOM     18  C   UNL     1       6.498   6.807  16.773  0.00  0.00    +0.000 A 
ATOM     19  C   UNL     1       6.815   5.659  17.480  0.00  0.00    +0.000 A 
ATOM     20  C   UNL     1       7.713   5.865  18.505  0.00  0.00    +0.000 A 
ATOM     21  N   UNL     1       8.275   7.063  18.792  0.00  0.00    +0.000 NA
ENDBRANCH  14  19
BRANCH  14  22
ATOM     22  C   UNL     1       5.507   4.351  15.730  0.00  0.00    +0.000 C 
BRANCH  22  23
ATOM     23  C   UNL     1       6.308   3.767  14.601  0.00  0.00    +0.000 C 
ATOM     24  C   UNL     1       5.823   3.744  13.173  0.00  0.00    +0.000 C 
ATOM     25  C   UNL     1       6.906   4.703  13.576  0.00  0.00    +0.000 C 
ENDBRANCH  22  23
ENDBRANCH  14  22
ENDBRANCH   1  14
TORSDOF 6
ENDMDL
MODEL 2
REMARK VINA RESULT:      -7.1      0.913      2.307
REMARK  Name = 
REMARK  7 active torsions:
REMARK  status: ('A' for Active; 'I' for Inactive)
REMARK    1  A    between atoms: C_1  and  C_2
REMARK    2  A    between atoms: C_5  and  C_6
REMARK    3  A    between atoms: C_6  and  C_7
REMARK    4  A    between atoms: C_6  and  C_19
REMARK    5  A    between atoms: C_7  and  N_8
REMARK    6  A    between atoms: C_9  and  C_11
REMARK    7  A    between atoms: C_19  and  C_20
REMARK                            x       y       z     vdW  Elec       q    Type
REMARK                         _______ _______ _______ _____ _____    ______ ____
ROOT
ATOM      1  C   UNL     1       4.517   3.501  16.809  0.00  0.00    +0.000 C 
ENDROOT
BRANCH   1   2
ATOM      2  N   UNL     1       4.024   4.419  17.817  0.00  0.00    +0.000 N 
ATOM      3  C   UNL     1       2.665   4.667  17.928  0.00  0.00    +0.000 C 
ATOM      4  O   UNL     1       1.846   4.107  17.210  0.00  0.00    +0.000 OA
ATOM      5  H   UNL     1       4.681   4.941  18.385  0.00  0.00    +0.000 HD
BRANCH   3   6
ATOM      6  C   UNL     1       2.226   5.659  18.954  0.00  0.00    +0.000 A 
ATOM      7  C   UNL     1       1.628   5.259  20.163  0.00  0.00    +0.000 A 
ATOM      8 CL   UNL     1       1.366   3.606  20.611  0.00  0.00    +0.000 Cl
ATOM      9  C   UNL     1       1.232   6.207  21.118  0.00  0.00    +0.000 A 
ATOM     10  C   UNL     1       1.447   7.563  20.900  0.00  0.00    +0.000 A 
ATOM     11  C   UNL     1       2.062   7.974  19.722  0.00  0.00    +0.000 A 
ATOM     12  C   UNL     1       2.445   7.037  18.749  0.00  0.00    +0.000 A 
ATOM     13 CL   UNL     1       3.133   7.703  17.307  0.00  0.00    +0.000 Cl
ENDBRANCH   3   6
ENDBRANCH   1   2
BRANCH   1  14
ATOM     14  C   UNL     1       5.795   3.962  16.059  0.00  0.00    +0.000 C 
BRANCH  14  19
ATOM     15  C   UNL     1       8.401   8.458  18.506  0.00  0.00    +0.000 C 
ATOM     16  C   UNL     1       7.743   7.293  17.833  0.00  0.00    +0.000 A 
ATOM     17  N   UNL     1       8.058   6.060  18.264  0.00  0.00    +0.000 NA
ATOM     18  C   UNL     1       7.422   5.034  17.664  0.00  0.00    +0.000 A 
ATOM     19  C   UNL     1       6.484   5.173  16.655  0.00  0.00    +0.000 A 
ATOM     20  C   UNL     1       6.269   6.480  16.271  0.00  0.00    +0.000 A 
ATOM     21  N   UNL     1       6.881   7.547  16.837  0.00  0.00    +0.000 NA
ENDBRANCH  14  19
BRANCH  14  22
ATOM     22  C   UNL     1       5.397   4.178  14.580  0.00  0.00    +0.000 C 
BRANCH  22  23
ATOM     23  C   UNL     1       6.265   3.487  13.566  0.00  0.00    +0.000 C 
ATOM     24  C   UNL     1       5.827   3.230  12.146  0.00  0.00    +0.000 C 
ATOM     25  C   UNL     1       6.841   4.300  12.430  0.00  0.00    +0.000 C 
ENDBRANCH  22  23
ENDBRANCH  14  22
ENDBRANCH   1  14
TORSDOF 6
ENDMDL
MODEL 3
REMARK VINA RESULT:      -7.0      1.493      1.923
REMARK  Name = 
REMARK  7 active torsions:
REMARK  status: ('A' for Active; 'I' for Inactive)
REMARK    1  A    between atoms: C_1  and  C_2
REMARK    2  A    between atoms: C_5  and  C_6
REMARK    3  A    between atoms: C_6  and  C_7
REMARK    4  A    between atoms: C_6  and  C_19
REMARK    5  A    between atoms: C_7  and  N_8
REMARK    6  A    between atoms: C_9  and  C_11
REMARK    7  A    between atoms: C_19  and  C_20
REMARK                            x       y       z     vdW  Elec       q    Type
REMARK                         _______ _______ _______ _____ _____    ______ ____
ROOT
ATOM      1  C   UNL     1       5.159   2.820  16.321  0.00  0.00    +0.000 C 
ENDROOT
BRANCH   1   2
ATOM      2  N   UNL     1       4.513   3.404  17.481  0.00  0.00    +0.000 N 
ATOM      3  C   UNL     1       3.164   3.720  17.441  0.00  0.00    +0.000 C 
ATOM      4  O   UNL     1       2.478   3.495  16.452  0.00  0.00    +0.000 OA
ATOM      5  H   UNL     1       5.067   3.655  18.291  0.00  0.00    +0.000 HD
BRANCH   3   6
ATOM      6  C   UNL     1       2.569   4.361  18.651  0.00  0.00    +0.000 A 
ATOM      7  C   UNL     1       2.687   5.742  18.890  0.00  0.00    +0.000 A 
ATOM      8 CL   UNL     1       3.489   6.844  17.820  0.00  0.00    +0.000 Cl
ATOM      9  C   UNL     1       2.111   6.327  20.028  0.00  0.00    +0.000 A 
ATOM     10  C   UNL     1       1.388   5.555  20.930  0.00  0.00    +0.000 A 
ATOM     11  C   UNL     1       1.237   4.192  20.694  0.00  0.00    +0.000 A 
ATOM     12  C   UNL     1       1.826   3.591  19.570  0.00  0.00    +0.000 A 
ATOM     13 CL   UNL     1       1.613   1.879  19.447  0.00  0.00    +0.000 Cl
ENDBRANCH   3   6
ENDBRANCH   1   2
BRANCH   1  14
ATOM     14  C   UNL     1       6.100   3.774  15.537  0.00  0.00    +0.000 C 
BRANCH  14  19
ATOM     15  C   UNL     1       8.312   8.206  18.445  0.00  0.00    +0.000 C 
ATOM     16  C   UNL     1       7.712   7.041  17.720  0.00  0.00    +0.000 A 
ATOM     17  N   UNL     1       6.882   7.299  16.695  0.00  0.00    +0.000 NA
ATOM     18  C   UNL     1       6.388   6.231  16.039  0.00  0.00    +0.000 A 
ATOM     19  C   UNL     1       6.679   4.913  16.351  0.00  0.00    +0.000 A 
ATOM     20  C   UNL     1       7.509   4.770  17.442  0.00  0.00    +0.000 A 
ATOM     21  N   UNL     1       8.034   5.807  18.139  0.00  0.00    +0.000 NA
ENDBRANCH  14  19
BRANCH  14  22
ATOM     22  C   UNL     1       5.311   4.272  14.303  0.00  0.00    +0.000 C 
BRANCH  22  23
ATOM     23  C   UNL     1       5.938   3.981  12.969  0.00  0.00    +0.000 C 
ATOM     24  C   UNL     1       6.071   2.587  12.408  0.00  0.00    +0.000 C 
ATOM     25  C   UNL     1       5.051   3.527  11.834  0.00  0.00    +0.000 C 
ENDBRANCH  22  23
ENDBRANCH  14  22
ENDBRANCH   1  14
TORSDOF 6
ENDMDL
MODEL 4
REMARK VINA RESULT:      -7.0      1.484      2.596
REMARK  Name = 
REMARK  7 active torsions:
REMARK  status: ('A' for Active; 'I' for Inactive)
REMARK    1  A    between atoms: C_1  and  C_2
REMARK    2  A    between atoms: C_5  and  C_6
REMARK    3  A    between atoms: C_6  and  C_7
REMARK    4  A    between atoms: C_6  and  C_19
REMARK    5  A    between atoms: C_7  and  N_8
REMARK    6  A    between atoms: C_9  and  C_11
REMARK    7  A    between atoms: C_19  and  C_20
REMARK                            x       y       z     vdW  Elec       q    Type
REMARK                         _______ _______ _______ _____ _____    ______ ____
ROOT
ATOM      1  C   UNL     1       5.193   2.856  16.355  0.00  0.00    +0.000 C 
ENDROOT
BRANCH   1   2
ATOM      2  N   UNL     1       4.516   3.428  17.502  0.00  0.00    +0.000 N 
ATOM      3  C   UNL     1       3.159   3.706  17.443  0.00  0.00    +0.000 C 
ATOM      4  O   UNL     1       2.492   3.456  16.445  0.00  0.00    +0.000 OA
ATOM      5  H   UNL     1       5.051   3.699  18.318  0.00  0.00    +0.000 HD
BRANCH   3   6
ATOM      6  C   UNL     1       2.530   4.338  18.640  0.00  0.00    +0.000 A 
ATOM      7  C   UNL     1       1.815   3.582  19.586  0.00  0.00    +0.000 A 
ATOM      8 CL   UNL     1       1.610   1.864  19.496  0.00  0.00    +0.000 Cl
ATOM      9  C   UNL     1       1.240   4.194  20.711  0.00  0.00    +0.000 A 
ATOM     10  C   UNL     1       1.390   5.559  20.926  0.00  0.00    +0.000 A 
ATOM     11  C   UNL     1       2.118   6.317  20.015  0.00  0.00    +0.000 A 
ATOM     12  C   UNL     1       2.681   5.720  18.875  0.00  0.00    +0.000 A 
ATOM     13 CL   UNL     1       3.497   6.801  17.797  0.00  0.00    +0.000 Cl
ENDBRANCH   3   6
ENDBRANCH   1   2
BRANCH   1  14
ATOM     14  C   UNL     1       6.134   3.825  15.590  0.00  0.00    +0.000 C 
BRANCH  14  19
ATOM     15  C   UNL     1       8.352   8.199  18.578  0.00  0.00    +0.000 C 
ATOM     16  C   UNL     1       7.748   7.051  17.831  0.00  0.00    +0.000 A 
ATOM     17  N   UNL     1       7.016   7.330  16.738  0.00  0.00    +0.000 NA
ATOM     18  C   UNL     1       6.516   6.274  16.066  0.00  0.00    +0.000 A 
ATOM     19  C   UNL     1       6.709   4.951  16.425  0.00  0.00    +0.000 A 
ATOM     20  C   UNL     1       7.443   4.789  17.581  0.00  0.00    +0.000 A 
ATOM     21  N   UNL     1       7.967   5.812  18.297  0.00  0.00    +0.000 NA
ENDBRANCH  14  19
BRANCH  14  22
ATOM     22  C   UNL     1       5.346   4.344  14.364  0.00  0.00    +0.000 C 
BRANCH  22  23
ATOM     23  C   UNL     1       5.966   4.058  13.024  0.00  0.00    +0.000 C 
ATOM     24  C   UNL     1       6.252   2.661  12.531  0.00  0.00    +0.000 C 
ATOM     25  C   UNL     1       5.108   3.437  11.947  0.00  0.00    +0.000 C 
ENDBRANCH  22  23
ENDBRANCH  14  22
ENDBRANCH   1  14
TORSDOF 6
ENDMDL
MODEL 5
REMARK VINA RESULT:      -6.9      1.488      2.811
REMARK  Name = 
REMARK  7 active torsions:
REMARK  status: ('A' for Active; 'I' for Inactive)
REMARK    1  A    between atoms: C_1  and  C_2
REMARK    2  A    between atoms: C_5  and  C_6
REMARK    3  A    between atoms: C_6  and  C_7
REMARK    4  A    between atoms: C_6  and  C_19
REMARK    5  A    between atoms: C_7  and  N_8
REMARK    6  A    between atoms: C_9  and  C_11
REMARK    7  A    between atoms: C_19  and  C_20
REMARK                            x       y       z     vdW  Elec       q    Type
REMARK                         _______ _______ _______ _____ _____    ______ ____
ROOT
ATOM      1  C   UNL     1       4.831   3.217  15.855  0.00  0.00    +0.000 C 
ENDROOT
BRANCH   1   2
ATOM      2  N   UNL     1       4.308   3.809  17.071  0.00  0.00    +0.000 N 
ATOM      3  C   UNL     1       2.940   3.854  17.292  0.00  0.00    +0.000 C 
ATOM      4  O   UNL     1       2.142   3.378  16.493  0.00  0.00    +0.000 OA
ATOM      5  H   UNL     1       4.939   4.262  17.721  0.00  0.00    +0.000 HD
BRANCH   3   6
ATOM      6  C   UNL     1       2.463   4.519  18.541  0.00  0.00    +0.000 A 
ATOM      7  C   UNL     1       1.808   3.802  19.557  0.00  0.00    +0.000 A 
ATOM      8 CL   UNL     1       1.511   2.095  19.500  0.00  0.00    +0.000 Cl
ATOM      9  C   UNL     1       1.376   4.444  20.728  0.00  0.00    +0.000 A 
ATOM     10  C   UNL     1       1.613   5.800  20.918  0.00  0.00    +0.000 A 
ATOM     11  C   UNL     1       2.285   6.519  19.934  0.00  0.00    +0.000 A 
ATOM     12  C   UNL     1       2.703   5.893  18.749  0.00  0.00    +0.000 A 
ATOM     13 CL   UNL     1       3.462   6.929  17.590  0.00  0.00    +0.000 Cl
ENDBRANCH   3   6
ENDBRANCH   1   2
BRANCH   1  14
ATOM     14  C   UNL     1       6.217   3.748  15.403  0.00  0.00    +0.000 C 
BRANCH  14  19
ATOM     15  C   UNL     1       8.248   7.991  18.698  0.00  0.00    +0.000 C 
ATOM     16  C   UNL     1       7.746   6.896  17.809  0.00  0.00    +0.000 A 
ATOM     17  N   UNL     1       8.017   5.628  18.161  0.00  0.00    +0.000 NA
ATOM     18  C   UNL     1       7.520   4.663  17.362  0.00  0.00    +0.000 A 
ATOM     19  C   UNL     1       6.762   4.897  16.227  0.00  0.00    +0.000 A 
ATOM     20  C   UNL     1       6.580   6.235  15.945  0.00  0.00    +0.000 A 
ATOM     21  N   UNL     1       7.057   7.244  16.711  0.00  0.00    +0.000 NA
ENDBRANCH  14  19
BRANCH  14  22
ATOM     22  C   UNL     1       6.096   4.103  13.902  0.00  0.00    +0.000 C 
BRANCH  22  23
ATOM     23  C   UNL     1       5.175   3.227  13.099  0.00  0.00    +0.000 C 
ATOM     24  C   UNL     1       4.664   3.605  11.731  0.00  0.00    +0.000 C 
ATOM     25  C   UNL     1       5.718   2.545  11.865  0.00  0.00    +0.000 C 
ENDBRANCH  22  23
ENDBRANCH  14  22
ENDBRANCH   1  14
TORSDOF 6
ENDMDL
MODEL 6
REMARK VINA RESULT:      -6.9      2.976      5.136
REMARK  Name = 
REMARK  7 active torsions:
REMARK  status: ('A' for Active; 'I' for Inactive)
REMARK    1  A    between atoms: C_1  and  C_2
REMARK    2  A    between atoms: C_5  and  C_6
REMARK    3  A    between atoms: C_6  and  C_7
REMARK    4  A    between atoms: C_6  and  C_19
REMARK    5  A    between atoms: C_7  and  N_8
REMARK    6  A    between atoms: C_9  and  C_11
REMARK    7  A    between atoms: C_19  and  C_20
REMARK                            x       y       z     vdW  Elec       q    Type
REMARK                         _______ _______ _______ _____ _____    ______ ____
ROOT
ATOM      1  C   UNL     1       2.428   7.986  18.021  0.00  0.00    +0.000 C 
ENDROOT
BRANCH   1   2
ATOM      2  N   UNL     1       1.931   8.800  19.113  0.00  0.00    +0.000 N 
ATOM      3  C   UNL     1       0.820   9.608  18.930  0.00  0.00    +0.000 C 
ATOM      4  O   UNL     1       0.213   9.640  17.866  0.00  0.00    +0.000 OA
ATOM      5  H   UNL     1       2.445   8.839  19.985  0.00  0.00    +0.000 HD
BRANCH   3   6
ATOM      6  C   UNL     1       0.386  10.458  20.079  0.00  0.00    +0.000 A 
ATOM      7  C   UNL     1       0.497  11.860  20.046  0.00  0.00    +0.000 A 
ATOM      8 CL   UNL     1       1.105  12.750  18.689  0.00  0.00    +0.000 Cl
ATOM      9  C   UNL     1       0.074  12.641  21.132  0.00  0.00    +0.000 A 
ATOM     10  C   UNL     1      -0.489  12.045  22.254  0.00  0.00    +0.000 A 
ATOM     11  C   UNL     1      -0.632  10.661  22.292  0.00  0.00    +0.000 A 
ATOM     12  C   UNL     1      -0.194   9.867  21.220  0.00  0.00    +0.000 A 
ATOM     13 CL   UNL     1      -0.373   8.160  21.440  0.00  0.00    +0.000 Cl
ENDBRANCH   3   6
ENDBRANCH   1   2
BRANCH   1  14
ATOM     14  C   UNL     1       3.092   6.648  18.441  0.00  0.00    +0.000 C 
BRANCH  14  19
ATOM     15  C   UNL     1       6.654   4.574  14.441  0.00  0.00    +0.000 C 
ATOM     16  C   UNL     1       5.749   5.097  15.513  0.00  0.00    +0.000 A 
ATOM     17  N   UNL     1       5.735   6.423  15.730  0.00  0.00    +0.000 NA
ATOM     18  C   UNL     1       4.883   6.868  16.675  0.00  0.00    +0.000 A 
ATOM     19  C   UNL     1       4.041   6.057  17.418  0.00  0.00    +0.000 A 
ATOM     20  C   UNL     1       4.170   4.713  17.135  0.00  0.00    +0.000 A 
ATOM     21  N   UNL     1       5.009   4.212  16.198  0.00  0.00    +0.000 NA
ENDBRANCH  14  19
BRANCH  14  22
ATOM     22  C   UNL     1       1.949   5.675  18.817  0.00  0.00    +0.000 C 
BRANCH  22  23
ATOM     23  C   UNL     1       1.987   5.140  20.221  0.00  0.00    +0.000 C 
ATOM     24  C   UNL     1       1.112   4.007  20.694  0.00  0.00    +0.000 C 
ATOM     25  C   UNL     1       2.575   3.769  20.458  0.00  0.00    +0.000 C 
ENDBRANCH  22  23
ENDBRANCH  14  22
ENDBRANCH   1  14
TORSDOF 6
ENDMDL
MODEL 7
REMARK VINA RESULT:      -6.9      2.251      3.061
REMARK  Name = 
REMARK  7 active torsions:
REMARK  status: ('A' for Active; 'I' for Inactive)
REMARK    1  A    between atoms: C_1  and  C_2
REMARK    2  A    between atoms: C_5  and  C_6
REMARK    3  A    between atoms: C_6  and  C_7
REMARK    4  A    between atoms: C_6  and  C_19
REMARK    5  A    between atoms: C_7  and  N_8
REMARK    6  A    between atoms: C_9  and  C_11
REMARK    7  A    between atoms: C_19  and  C_20
REMARK                            x       y       z     vdW  Elec       q    Type
REMARK                         _______ _______ _______ _____ _____    ______ ____
ROOT
ATOM      1  C   UNL     1       4.821   3.835  15.754  0.00  0.00    +0.000 C 
ENDROOT
BRANCH   1   2
ATOM      2  N   UNL     1       4.211   4.004  17.059  0.00  0.00    +0.000 N 
ATOM      3  C   UNL     1       3.657   2.916  17.715  0.00  0.00    +0.000 C 
ATOM      4  O   UNL     1       3.689   1.789  17.236  0.00  0.00    +0.000 OA
ATOM      5  H   UNL     1       4.118   4.933  17.453  0.00  0.00    +0.000 HD
BRANCH   3   6
ATOM      6  C   UNL     1       3.002   3.164  19.033  0.00  0.00    +0.000 A 
ATOM      7  C   UNL     1       3.483   2.584  20.220  0.00  0.00    +0.000 A 
ATOM      8 CL   UNL     1       4.881   1.562  20.300  0.00  0.00    +0.000 Cl
ATOM      9  C   UNL     1       2.859   2.839  21.451  0.00  0.00    +0.000 A 
ATOM     10  C   UNL     1       1.765   3.694  21.524  0.00  0.00    +0.000 A 
ATOM     11  C   UNL     1       1.293   4.298  20.364  0.00  0.00    +0.000 A 
ATOM     12  C   UNL     1       1.896   4.036  19.123  0.00  0.00    +0.000 A 
ATOM     13 CL   UNL     1       1.157   4.803  17.761  0.00  0.00    +0.000 Cl
ENDBRANCH   3   6
ENDBRANCH   1   2
BRANCH   1  14
ATOM     14  C   UNL     1       6.359   4.033  15.711  0.00  0.00    +0.000 C 
BRANCH  14  19
ATOM     15  C   UNL     1       8.404   8.427  18.795  0.00  0.00    +0.000 C 
ATOM     16  C   UNL     1       7.841   7.276  18.020  0.00  0.00    +0.000 A 
ATOM     17  N   UNL     1       7.250   7.542  16.842  0.00  0.00    +0.000 NA
ATOM     18  C   UNL     1       6.787   6.482  16.150  0.00  0.00    +0.000 A 
ATOM     19  C   UNL     1       6.883   5.167  16.572  0.00  0.00    +0.000 A 
ATOM     20  C   UNL     1       7.473   5.019  17.809  0.00  0.00    +0.000 A 
ATOM     21  N   UNL     1       7.955   6.047  18.547  0.00  0.00    +0.000 NA
ENDBRANCH  14  19
BRANCH  14  22
ATOM     22  C   UNL     1       6.752   4.193  14.223  0.00  0.00    +0.000 C 
BRANCH  22  23
ATOM     23  C   UNL     1       6.115   3.217  13.275  0.00  0.00    +0.000 C 
ATOM     24  C   UNL     1       5.249   3.641  12.116  0.00  0.00    +0.000 C 
ATOM     25  C   UNL     1       6.638   3.135  11.859  0.00  0.00    +0.000 C 
ENDBRANCH  22  23
ENDBRANCH  14  22
ENDBRANCH   1  14
TORSDOF 6
ENDMDL
MODEL 8
REMARK VINA RESULT:      -6.9      0.929      1.372
REMARK  Name = 
REMARK  7 active torsions:
REMARK  status: ('A' for Active; 'I' for Inactive)
REMARK    1  A    between atoms: C_1  and  C_2
REMARK    2  A    between atoms: C_5  and  C_6
REMARK    3  A    between atoms: C_6  and  C_7
REMARK    4  A    between atoms: C_6  and  C_19
REMARK    5  A    between atoms: C_7  and  N_8
REMARK    6  A    between atoms: C_9  and  C_11
REMARK    7  A    between atoms: C_19  and  C_20
REMARK                            x       y       z     vdW  Elec       q    Type
REMARK                         _______ _______ _______ _____ _____    ______ ____
ROOT
ATOM      1  C   UNL     1       4.309   3.890  16.549  0.00  0.00    +0.000 C 
ENDROOT
BRANCH   1   2
ATOM      2  N   UNL     1       3.886   4.769  17.622  0.00  0.00    +0.000 N 
ATOM      3  C   UNL     1       2.541   4.896  17.928  0.00  0.00    +0.000 C 
ATOM      4  O   UNL     1       1.680   4.258  17.333  0.00  0.00    +0.000 OA
ATOM      5  H   UNL     1       4.568   5.352  18.092  0.00  0.00    +0.000 HD
BRANCH   3   6
ATOM      6  C   UNL     1       2.166   5.853  19.011  0.00  0.00    +0.000 A 
ATOM      7  C   UNL     1       2.373   7.237  18.880  0.00  0.00    +0.000 A 
ATOM      8 CL   UNL     1       3.041   7.986  17.467  0.00  0.00    +0.000 Cl
ATOM      9  C   UNL     1       2.003   8.121  19.906  0.00  0.00    +0.000 A 
ATOM     10  C   UNL     1       1.400   7.646  21.064  0.00  0.00    +0.000 A 
ATOM     11  C   UNL     1       1.162   6.282  21.199  0.00  0.00    +0.000 A 
ATOM     12  C   UNL     1       1.545   5.385  20.189  0.00  0.00    +0.000 A 
ATOM     13 CL   UNL     1       1.250   3.715  20.528  0.00  0.00    +0.000 Cl
ENDBRANCH   3   6
ENDBRANCH   1   2
BRANCH   1  14
ATOM     14  C   UNL     1       5.706   4.201  15.949  0.00  0.00    +0.000 C 
BRANCH  14  19
ATOM     15  C   UNL     1       8.493   8.419  18.675  0.00  0.00    +0.000 C 
ATOM     16  C   UNL     1       7.792   7.324  17.932  0.00  0.00    +0.000 A 
ATOM     17  N   UNL     1       7.911   6.071  18.403  0.00  0.00    +0.000 NA
ATOM     18  C   UNL     1       7.240   5.112  17.735  0.00  0.00    +0.000 A 
ATOM     19  C   UNL     1       6.451   5.338  16.619  0.00  0.00    +0.000 A 
ATOM     20  C   UNL     1       6.435   6.653  16.206  0.00  0.00    +0.000 A 
ATOM     21  N   UNL     1       7.091   7.656  16.837  0.00  0.00    +0.000 NA
ENDBRANCH  14  19
BRANCH  14  22
ATOM     22  C   UNL     1       5.503   4.441  14.434  0.00  0.00    +0.000 C 
BRANCH  22  23
ATOM     23  C   UNL     1       6.283   3.536  13.522  0.00  0.00    +0.000 C 
ATOM     24  C   UNL     1       5.798   3.131  12.153  0.00  0.00    +0.000 C 
ATOM     25  C   UNL     1       6.914   4.126  12.282  0.00  0.00    +0.000 C 
ENDBRANCH  22  23
ENDBRANCH  14  22
ENDBRANCH   1  14
TORSDOF 6
ENDMDL
MODEL 9
REMARK VINA RESULT:      -6.9      1.852      2.505
REMARK  Name = 
REMARK  7 active torsions:
REMARK  status: ('A' for Active; 'I' for Inactive)
REMARK    1  A    between atoms: C_1  and  C_2
REMARK    2  A    between atoms: C_5  and  C_6
REMARK    3  A    between atoms: C_6  and  C_7
REMARK    4  A    between atoms: C_6  and  C_19
REMARK    5  A    between atoms: C_7  and  N_8
REMARK    6  A    between atoms: C_9  and  C_11
REMARK    7  A    between atoms: C_19  and  C_20
REMARK                            x       y       z     vdW  Elec       q    Type
REMARK                         _______ _______ _______ _____ _____    ______ ____
ROOT
ATOM      1  C   UNL     1       5.027   3.652  15.927  0.00  0.00    +0.000 C 
ENDROOT
BRANCH   1   2
ATOM      2  N   UNL     1       4.590   3.630  17.310  0.00  0.00    +0.000 N 
ATOM      3  C   UNL     1       3.238   3.611  17.613  0.00  0.00    +0.000 C 
ATOM      4  O   UNL     1       2.381   3.584  16.738  0.00  0.00    +0.000 OA
ATOM      5  H   UNL     1       5.274   3.712  18.054  0.00  0.00    +0.000 HD
BRANCH   3   6
ATOM      6  C   UNL     1       2.853   3.638  19.055  0.00  0.00    +0.000 A 
ATOM      7  C   UNL     1       2.412   4.817  19.682  0.00  0.00    +0.000 A 
ATOM      8 CL   UNL     1       2.235   6.337  18.869  0.00  0.00    +0.000 Cl
ATOM      9  C   UNL     1       2.045   4.818  21.037  0.00  0.00    +0.000 A 
ATOM     10  C   UNL     1       2.085   3.645  21.780  0.00  0.00    +0.000 A 
ATOM     11  C   UNL     1       2.492   2.463  21.169  0.00  0.00    +0.000 A 
ATOM     12  C   UNL     1       2.882   2.453  19.820  0.00  0.00    +0.000 A 
ATOM     13 CL   UNL     1       3.431   0.927  19.217  0.00  0.00    +0.000 Cl
ENDBRANCH   3   6
ENDBRANCH   1   2
BRANCH   1  14
ATOM     14  C   UNL     1       6.508   4.056  15.706  0.00  0.00    +0.000 C 
BRANCH  14  19
ATOM     15  C   UNL     1       8.418   8.488  18.820  0.00  0.00    +0.000 C 
ATOM     16  C   UNL     1       7.890   7.326  18.037  0.00  0.00    +0.000 A 
ATOM     17  N   UNL     1       7.295   7.582  16.859  0.00  0.00    +0.000 NA
ATOM     18  C   UNL     1       6.864   6.513  16.160  0.00  0.00    +0.000 A 
ATOM     19  C   UNL     1       6.997   5.198  16.574  0.00  0.00    +0.000 A 
ATOM     20  C   UNL     1       7.589   5.061  17.811  0.00  0.00    +0.000 A 
ATOM     21  N   UNL     1       8.039   6.098  18.557  0.00  0.00    +0.000 NA
ENDBRANCH  14  19
BRANCH  14  22
ATOM     22  C   UNL     1       6.675   4.350  14.196  0.00  0.00    +0.000 C 
BRANCH  22  23
ATOM     23  C   UNL     1       6.109   3.314  13.266  0.00  0.00    +0.000 C 
ATOM     24  C   UNL     1       5.167   3.648  12.137  0.00  0.00    +0.000 C 
ATOM     25  C   UNL     1       6.591   3.284  11.834  0.00  0.00    +0.000 C 
ENDBRANCH  22  23
ENDBRANCH  14  22
ENDBRANCH   1  14
TORSDOF 6
ENDMDL
