MODEL 1
REMARK VINA RESULT:      -8.0      0.000      0.000
REMARK  Name = 
REMARK  6 active torsions:
REMARK  status: ('A' for Active; 'I' for Inactive)
REMARK    1  A    between atoms: C_1  and  C_2
REMARK    2  A    between atoms: N_4  and  C_5
REMARK    3  A    between atoms: C_8  and  O_9
REMARK    4  A    between atoms: O_9  and  C_10
REMARK    5  A    between atoms: C_18  and  C_19
REMARK    6  A    between atoms: C_21  and  C_22
REMARK                            x       y       z     vdW  Elec       q    Type
REMARK                         _______ _______ _______ _____ _____    ______ ____
ROOT
ATOM      1  C   UNL     1       1.944   7.411  20.118  0.00  0.00    +0.000 A 
ATOM      2  C   UNL     1       2.178   7.616  18.766  0.00  0.00    +0.000 A 
ATOM      3  C   UNL     1       1.750   8.785  18.146  0.00  0.00    +0.000 A 
ATOM      4  C   UNL     1       1.004   9.746  18.846  0.00  0.00    +0.000 A 
ATOM      5  C   UNL     1       0.845   9.624  20.243  0.00  0.00    +0.000 A 
ATOM      6  C   UNL     1       1.302   8.424  20.849  0.00  0.00    +0.000 A 
ENDROOT
BRANCH   5   7
ATOM      7  C   UNL     1       0.177  10.632  21.112  0.00  0.00    +0.000 A 
ATOM      8  C   UNL     1      -0.914  10.426  21.953  0.00  0.00    +0.000 A 
ATOM      9  C   UNL     1      -1.308  11.657  22.538  0.00  0.00    +0.000 A 
ATOM     10  C   UNL     1      -2.465  11.877  23.445  0.00  0.00    +0.000 C 
ATOM     11  C   UNL     1      -0.404  12.601  22.085  0.00  0.00    +0.000 A 
ATOM     12  C   UNL     1      -0.320  14.025  22.350  0.00  0.00    +0.000 A 
ATOM     13  O   UNL     1      -1.122  14.667  23.020  0.00  0.00    +0.000 OA
ATOM     14  N   UNL     1       0.768  14.660  21.767  0.00  0.00    +0.000 N 
ATOM     15  C   UNL     1       1.734  14.010  21.035  0.00  0.00    +0.000 A 
ATOM     16  C   UNL     1       1.642  12.693  20.811  0.00  0.00    +0.000 A 
ATOM     17  N   UNL     1       0.544  11.970  21.287  0.00  0.00    +0.000 N 
ATOM     18  H   UNL     1       0.826  15.662  21.936  0.00  0.00    +0.000 HD
ENDBRANCH   5   7
BRANCH   1  22
ATOM     19  C   UNL     1       2.314   3.904  21.464  0.00  0.00    +0.000 C 
ATOM     20  C   UNL     1       1.826   4.948  20.496  0.00  0.00    +0.000 C 
ATOM     21  O   UNL     1       1.080   4.635  19.574  0.00  0.00    +0.000 OA
ATOM     22  N   UNL     1       2.309   6.216  20.779  0.00  0.00    +0.000 N 
ATOM     23  H   UNL     1       3.018   6.294  21.498  0.00  0.00    +0.000 HD
ENDBRANCH   1  22
BRANCH   4  24
ATOM     24  O   UNL     1       0.413  10.808  18.179  0.00  0.00    +0.000 OA
BRANCH  24  25
ATOM     25  C   UNL     1      -0.960  10.831  18.049  0.00  0.00    +0.000 A 
ATOM     26  C   UNL     1      -1.570   9.718  17.459  0.00  0.00    +0.000 A 
ATOM     27  C   UNL     1      -2.963   9.668  17.353  0.00  0.00    +0.000 A 
ATOM     28  C   UNL     1      -3.731  10.729  17.833  0.00  0.00    +0.000 A 
ATOM     29  F   UNL     1      -5.067  10.662  17.756  0.00  0.00    +0.000 F 
ATOM     30  C   UNL     1      -3.137  11.852  18.389  0.00  0.00    +0.000 A 
ATOM     31  C   UNL     1      -1.752  11.911  18.464  0.00  0.00    +0.000 A 
ATOM     32  F   UNL     1      -1.190  13.011  18.986  0.00  0.00    +0.000 F 
ENDBRANCH  24  25
ENDBRANCH   4  24
TORSDOF 4
ENDMDL
MODEL 2
REMARK VINA RESULT:      -7.8      4.567      8.958
REMARK  Name = 
REMARK  6 active torsions:
REMARK  status: ('A' for Active; 'I' for Inactive)
REMARK    1  A    between atoms: C_1  and  C_2
REMARK    2  A    between atoms: N_4  and  C_5
REMARK    3  A    between atoms: C_8  and  O_9
REMARK    4  A    between atoms: O_9  and  C_10
REMARK    5  A    between atoms: C_18  and  C_19
REMARK    6  A    between atoms: C_21  and  C_22
REMARK                            x       y       z     vdW  Elec       q    Type
REMARK                         _______ _______ _______ _____ _____    ______ ____
ROOT
ATOM      1  C   UNL     1       1.677   9.041  18.803  0.00  0.00    +0.000 A 
ATOM      2  C   UNL     1       1.307   8.531  20.038  0.00  0.00    +0.000 A 
ATOM      3  C   UNL     1       1.880   7.359  20.518  0.00  0.00    +0.000 A 
ATOM      4  C   UNL     1       2.784   6.621  19.737  0.00  0.00    +0.000 A 
ATOM      5  C   UNL     1       3.267   7.166  18.528  0.00  0.00    +0.000 A 
ATOM      6  C   UNL     1       2.669   8.369  18.070  0.00  0.00    +0.000 A 
ENDROOT
BRANCH   5   7
ATOM      7  C   UNL     1       4.309   6.536  17.671  0.00  0.00    +0.000 A 
ATOM      8  C   UNL     1       4.280   6.383  16.287  0.00  0.00    +0.000 A 
ATOM      9  C   UNL     1       5.418   5.651  15.861  0.00  0.00    +0.000 A 
ATOM     10  C   UNL     1       5.727   5.223  14.471  0.00  0.00    +0.000 C 
ATOM     11  C   UNL     1       6.167   5.413  17.000  0.00  0.00    +0.000 A 
ATOM     12  C   UNL     1       7.423   4.708  17.168  0.00  0.00    +0.000 A 
ATOM     13  O   UNL     1       8.032   4.127  16.276  0.00  0.00    +0.000 OA
ATOM     14  N   UNL     1       7.923   4.716  18.462  0.00  0.00    +0.000 N 
ATOM     15  C   UNL     1       7.326   5.374  19.512  0.00  0.00    +0.000 A 
ATOM     16  C   UNL     1       6.171   6.028  19.332  0.00  0.00    +0.000 A 
ATOM     17  N   UNL     1       5.540   6.017  18.085  0.00  0.00    +0.000 N 
ATOM     18  H   UNL     1       8.797   4.211  18.592  0.00  0.00    +0.000 HD
ENDBRANCH   5   7
BRANCH   1  22
ATOM     19  C   UNL     1       0.090  12.389  18.081  0.00  0.00    +0.000 C 
ATOM     20  C   UNL     1       0.860  11.395  18.909  0.00  0.00    +0.000 C 
ATOM     21  O   UNL     1       1.221  11.687  20.044  0.00  0.00    +0.000 OA
ATOM     22  N   UNL     1       1.082  10.197  18.249  0.00  0.00    +0.000 N 
ATOM     23  H   UNL     1       0.833  10.154  17.268  0.00  0.00    +0.000 HD
ENDBRANCH   1  22
BRANCH   4  24
ATOM     24  O   UNL     1       3.197   5.359  20.134  0.00  0.00    +0.000 OA
BRANCH  24  25
ATOM     25  C   UNL     1       2.498   4.258  19.687  0.00  0.00    +0.000 A 
ATOM     26  C   UNL     1       1.159   4.143  20.077  0.00  0.00    +0.000 A 
ATOM     27  C   UNL     1       0.390   3.074  19.608  0.00  0.00    +0.000 A 
ATOM     28  C   UNL     1       0.966   2.131  18.757  0.00  0.00    +0.000 A 
ATOM     29  F   UNL     1       0.217   1.125  18.286  0.00  0.00    +0.000 F 
ATOM     30  C   UNL     1       2.301   2.215  18.391  0.00  0.00    +0.000 A 
ATOM     31  C   UNL     1       3.069   3.261  18.884  0.00  0.00    +0.000 A 
ATOM     32  F   UNL     1       4.363   3.319  18.538  0.00  0.00    +0.000 F 
ENDBRANCH  24  25
ENDBRANCH   4  24
TORSDOF 4
ENDMDL
MODEL 3
REMARK VINA RESULT:      -7.6      4.401      8.800
REMARK  Name = 
REMARK  6 active torsions:
REMARK  status: ('A' for Active; 'I' for Inactive)
REMARK    1  A    between atoms: C_1  and  C_2
REMARK    2  A    between atoms: N_4  and  C_5
REMARK    3  A    between atoms: C_8  and  O_9
REMARK    4  A    between atoms: O_9  and  C_10
REMARK    5  A    between atoms: C_18  and  C_19
REMARK    6  A    between atoms: C_21  and  C_22
REMARK                            x       y       z     vdW  Elec       q    Type
REMARK                         _______ _______ _______ _____ _____    ______ ____
ROOT
ATOM      1  C   UNL     1       1.618   9.320  18.744  0.00  0.00    +0.000 A 
ATOM      2  C   UNL     1       1.243   8.810  19.978  0.00  0.00    +0.000 A 
ATOM      3  C   UNL     1       1.804   7.629  20.453  0.00  0.00    +0.000 A 
ATOM      4  C   UNL     1       2.699   6.884  19.668  0.00  0.00    +0.000 A 
ATOM      5  C   UNL     1       3.186   7.427  18.460  0.00  0.00    +0.000 A 
ATOM      6  C   UNL     1       2.601   8.639  18.007  0.00  0.00    +0.000 A 
ENDROOT
BRANCH   5   7
ATOM      7  C   UNL     1       4.220   6.788  17.600  0.00  0.00    +0.000 A 
ATOM      8  C   UNL     1       4.222   6.704  16.210  0.00  0.00    +0.000 A 
ATOM      9  C   UNL     1       5.335   5.938  15.776  0.00  0.00    +0.000 A 
ATOM     10  C   UNL     1       5.662   5.563  14.375  0.00  0.00    +0.000 C 
ATOM     11  C   UNL     1       6.040   5.610  16.921  0.00  0.00    +0.000 A 
ATOM     12  C   UNL     1       7.256   4.835  17.086  0.00  0.00    +0.000 A 
ATOM     13  O   UNL     1       7.860   4.269  16.182  0.00  0.00    +0.000 OA
ATOM     14  N   UNL     1       7.719   4.756  18.391  0.00  0.00    +0.000 N 
ATOM     15  C   UNL     1       7.125   5.391  19.457  0.00  0.00    +0.000 A 
ATOM     16  C   UNL     1       6.009   6.110  19.280  0.00  0.00    +0.000 A 
ATOM     17  N   UNL     1       5.413   6.191  18.018  0.00  0.00    +0.000 N 
ATOM     18  H   UNL     1       8.564   4.203  18.518  0.00  0.00    +0.000 HD
ENDBRANCH   5   7
BRANCH   1  22
ATOM     19  C   UNL     1       0.149  12.720  18.018  0.00  0.00    +0.000 C 
ATOM     20  C   UNL     1       0.939  11.719  18.816  0.00  0.00    +0.000 C 
ATOM     21  O   UNL     1       1.421  12.035  19.899  0.00  0.00    +0.000 OA
ATOM     22  N   UNL     1       1.035  10.484  18.194  0.00  0.00    +0.000 N 
ATOM     23  H   UNL     1       0.693  10.415  17.243  0.00  0.00    +0.000 HD
ENDBRANCH   1  22
BRANCH   4  24
ATOM     24  O   UNL     1       3.099   5.616  20.060  0.00  0.00    +0.000 OA
BRANCH  24  25
ATOM     25  C   UNL     1       2.320   4.534  19.708  0.00  0.00    +0.000 A 
ATOM     26  C   UNL     1       2.026   4.366  18.350  0.00  0.00    +0.000 A 
ATOM     27  C   UNL     1       1.286   3.256  17.935  0.00  0.00    +0.000 A 
ATOM     28  C   UNL     1       0.845   2.327  18.877  0.00  0.00    +0.000 A 
ATOM     29  F   UNL     1       0.161   1.249  18.470  0.00  0.00    +0.000 F 
ATOM     30  C   UNL     1       1.100   2.500  20.229  0.00  0.00    +0.000 A 
ATOM     31  C   UNL     1       1.809   3.620  20.641  0.00  0.00    +0.000 A 
ATOM     32  F   UNL     1       2.033   3.785  21.953  0.00  0.00    +0.000 F 
ENDBRANCH  24  25
ENDBRANCH   4  24
TORSDOF 4
ENDMDL
MODEL 4
REMARK VINA RESULT:      -7.4      0.974      1.304
REMARK  Name = 
REMARK  6 active torsions:
REMARK  status: ('A' for Active; 'I' for Inactive)
REMARK    1  A    between atoms: C_1  and  C_2
REMARK    2  A    between atoms: N_4  and  C_5
REMARK    3  A    between atoms: C_8  and  O_9
REMARK    4  A    between atoms: O_9  and  C_10
REMARK    5  A    between atoms: C_18  and  C_19
REMARK    6  A    between atoms: C_21  and  C_22
REMARK                            x       y       z     vdW  Elec       q    Type
REMARK                         _______ _______ _______ _____ _____    ______ ____
ROOT
ATOM      1  C   UNL     1       1.883   7.842  19.897  0.00  0.00    +0.000 A 
ATOM      2  C   UNL     1       1.989   8.104  18.540  0.00  0.00    +0.000 A 
ATOM      3  C   UNL     1       1.433   9.258  17.998  0.00  0.00    +0.000 A 
ATOM      4  C   UNL     1       0.686  10.143  18.790  0.00  0.00    +0.000 A 
ATOM      5  C   UNL     1       0.653   9.968  20.191  0.00  0.00    +0.000 A 
ATOM      6  C   UNL     1       1.239   8.786  20.714  0.00  0.00    +0.000 A 
ENDROOT
BRANCH   5   7
ATOM      7  C   UNL     1      -0.006  10.902  21.146  0.00  0.00    +0.000 A 
ATOM      8  C   UNL     1      -1.074  10.620  21.995  0.00  0.00    +0.000 A 
ATOM      9  C   UNL     1      -1.469  11.799  22.678  0.00  0.00    +0.000 A 
ATOM     10  C   UNL     1      -2.607  11.936  23.625  0.00  0.00    +0.000 C 
ATOM     11  C   UNL     1      -0.587  12.786  22.274  0.00  0.00    +0.000 A 
ATOM     12  C   UNL     1      -0.514  14.188  22.640  0.00  0.00    +0.000 A 
ATOM     13  O   UNL     1      -1.308  14.768  23.374  0.00  0.00    +0.000 OA
ATOM     14  N   UNL     1       0.551  14.878  22.081  0.00  0.00    +0.000 N 
ATOM     15  C   UNL     1       1.507  14.297  21.280  0.00  0.00    +0.000 A 
ATOM     16  C   UNL     1       1.426  12.998  20.963  0.00  0.00    +0.000 A 
ATOM     17  N   UNL     1       0.349  12.228  21.410  0.00  0.00    +0.000 N 
ATOM     18  H   UNL     1       0.601  15.866  22.321  0.00  0.00    +0.000 HD
ENDBRANCH   5   7
BRANCH   1  22
ATOM     19  C   UNL     1       2.787   4.315  20.891  0.00  0.00    +0.000 C 
ATOM     20  C   UNL     1       2.263   5.378  19.963  0.00  0.00    +0.000 C 
ATOM     21  O   UNL     1       1.793   5.069  18.873  0.00  0.00    +0.000 OA
ATOM     22  N   UNL     1       2.382   6.657  20.484  0.00  0.00    +0.000 N 
ATOM     23  H   UNL     1       2.908   6.762  21.343  0.00  0.00    +0.000 HD
ENDBRANCH   1  22
BRANCH   4  24
ATOM     24  O   UNL     1      -0.029  11.180  18.212  0.00  0.00    +0.000 OA
BRANCH  24  25
ATOM     25  C   UNL     1      -1.396  11.052  18.075  0.00  0.00    +0.000 A 
ATOM     26  C   UNL     1      -2.202  11.922  18.817  0.00  0.00    +0.000 A 
ATOM     27  C   UNL     1      -3.591  11.869  18.673  0.00  0.00    +0.000 A 
ATOM     28  C   UNL     1      -4.161  10.947  17.795  0.00  0.00    +0.000 A 
ATOM     29  F   UNL     1      -5.491  10.921  17.640  0.00  0.00    +0.000 F 
ATOM     30  C   UNL     1      -3.374  10.056  17.081  0.00  0.00    +0.000 A 
ATOM     31  C   UNL     1      -1.997  10.091  17.249  0.00  0.00    +0.000 A 
ATOM     32  F   UNL     1      -1.250   9.212  16.567  0.00  0.00    +0.000 F 
ENDBRANCH  24  25
ENDBRANCH   4  24
TORSDOF 4
ENDMDL
MODEL 5
REMARK VINA RESULT:      -7.3      3.262      7.029
REMARK  Name = 
REMARK  6 active torsions:
REMARK  status: ('A' for Active; 'I' for Inactive)
REMARK    1  A    between atoms: C_1  and  C_2
REMARK    2  A    between atoms: N_4  and  C_5
REMARK    3  A    between atoms: C_8  and  O_9
REMARK    4  A    between atoms: O_9  and  C_10
REMARK    5  A    between atoms: C_18  and  C_19
REMARK    6  A    between atoms: C_21  and  C_22
REMARK                            x       y       z     vdW  Elec       q    Type
REMARK                         _______ _______ _______ _____ _____    ______ ____
ROOT
ATOM      1  C   UNL     1       0.920  14.653  19.358  0.00  0.00    +0.000 A 
ATOM      2  C   UNL     1       1.857  13.872  20.017  0.00  0.00    +0.000 A 
ATOM      3  C   UNL     1       1.624  12.518  20.230  0.00  0.00    +0.000 A 
ATOM      4  C   UNL     1       0.406  11.926  19.858  0.00  0.00    +0.000 A 
ATOM      5  C   UNL     1      -0.521  12.660  19.088  0.00  0.00    +0.000 A 
ATOM      6  C   UNL     1      -0.248  14.038  18.879  0.00  0.00    +0.000 A 
ENDROOT
BRANCH   5   7
ATOM      7  C   UNL     1      -1.789  12.109  18.537  0.00  0.00    +0.000 A 
ATOM      8  C   UNL     1      -1.953  11.411  17.342  0.00  0.00    +0.000 A 
ATOM      9  C   UNL     1      -3.329  11.138  17.131  0.00  0.00    +0.000 A 
ATOM     10  C   UNL     1      -3.929  10.469  15.947  0.00  0.00    +0.000 C 
ATOM     11  C   UNL     1      -3.990  11.629  18.243  0.00  0.00    +0.000 A 
ATOM     12  C   UNL     1      -5.404  11.635  18.570  0.00  0.00    +0.000 A 
ATOM     13  O   UNL     1      -6.299  11.225  17.839  0.00  0.00    +0.000 OA
ATOM     14  N   UNL     1      -5.708  12.164  19.816  0.00  0.00    +0.000 N 
ATOM     15  C   UNL     1      -4.765  12.610  20.712  0.00  0.00    +0.000 A 
ATOM     16  C   UNL     1      -3.464  12.586  20.393  0.00  0.00    +0.000 A 
ATOM     17  N   UNL     1      -3.054  12.144  19.133  0.00  0.00    +0.000 N 
ATOM     18  H   UNL     1      -6.700  12.185  20.047  0.00  0.00    +0.000 HD
ENDBRANCH   5   7
BRANCH   1  22
ATOM     19  C   UNL     1       0.920  18.425  19.515  0.00  0.00    +0.000 C 
ATOM     20  C   UNL     1       0.729  17.037  20.067  0.00  0.00    +0.000 C 
ATOM     21  O   UNL     1       0.297  16.879  21.204  0.00  0.00    +0.000 OA
ATOM     22  N   UNL     1       1.087  16.044  19.169  0.00  0.00    +0.000 N 
ATOM     23  H   UNL     1       1.549  16.333  18.315  0.00  0.00    +0.000 HD
ENDBRANCH   1  22
BRANCH   4  24
ATOM     24  O   UNL     1       0.100  10.631  20.248  0.00  0.00    +0.000 OA
BRANCH  24  25
ATOM     25  C   UNL     1       0.836   9.587  19.728  0.00  0.00    +0.000 A 
ATOM     26  C   UNL     1       1.127   9.623  18.360  0.00  0.00    +0.000 A 
ATOM     27  C   UNL     1       1.916   8.617  17.794  0.00  0.00    +0.000 A 
ATOM     28  C   UNL     1       2.402   7.586  18.598  0.00  0.00    +0.000 A 
ATOM     29  F   UNL     1       3.182   6.641  18.056  0.00  0.00    +0.000 F 
ATOM     30  C   UNL     1       2.092   7.521  19.948  0.00  0.00    +0.000 A 
ATOM     31  C   UNL     1       1.284   8.505  20.500  0.00  0.00    +0.000 A 
ATOM     32  F   UNL     1       0.976   8.420  21.802  0.00  0.00    +0.000 F 
ENDBRANCH  24  25
ENDBRANCH   4  24
TORSDOF 4
ENDMDL
MODEL 6
REMARK VINA RESULT:      -7.2      4.199      6.420
REMARK  Name = 
REMARK  6 active torsions:
REMARK  status: ('A' for Active; 'I' for Inactive)
REMARK    1  A    between atoms: C_1  and  C_2
REMARK    2  A    between atoms: N_4  and  C_5
REMARK    3  A    between atoms: C_8  and  O_9
REMARK    4  A    between atoms: O_9  and  C_10
REMARK    5  A    between atoms: C_18  and  C_19
REMARK    6  A    between atoms: C_21  and  C_22
REMARK                            x       y       z     vdW  Elec       q    Type
REMARK                         _______ _______ _______ _____ _____    ______ ____
ROOT
ATOM      1  C   UNL     1      -0.577  14.935  20.295  0.00  0.00    +0.000 A 
ATOM      2  C   UNL     1       0.022  14.053  19.408  0.00  0.00    +0.000 A 
ATOM      3  C   UNL     1      -0.634  12.892  19.016  0.00  0.00    +0.000 A 
ATOM      4  C   UNL     1      -1.879  12.542  19.564  0.00  0.00    +0.000 A 
ATOM      5  C   UNL     1      -2.566  13.466  20.379  0.00  0.00    +0.000 A 
ATOM      6  C   UNL     1      -1.873  14.647  20.753  0.00  0.00    +0.000 A 
ENDROOT
BRANCH   5   7
ATOM      7  C   UNL     1      -3.937  13.260  20.924  0.00  0.00    +0.000 A 
ATOM      8  C   UNL     1      -5.138  13.328  20.223  0.00  0.00    +0.000 A 
ATOM      9  C   UNL     1      -6.227  13.163  21.118  0.00  0.00    +0.000 A 
ATOM     10  C   UNL     1      -7.673  13.232  20.779  0.00  0.00    +0.000 C 
ATOM     11  C   UNL     1      -5.665  12.936  22.362  0.00  0.00    +0.000 A 
ATOM     12  C   UNL     1      -6.294  12.706  23.649  0.00  0.00    +0.000 A 
ATOM     13  O   UNL     1      -7.502  12.731  23.859  0.00  0.00    +0.000 OA
ATOM     14  N   UNL     1      -5.411  12.452  24.688  0.00  0.00    +0.000 N 
ATOM     15  C   UNL     1      -4.047  12.367  24.533  0.00  0.00    +0.000 A 
ATOM     16  C   UNL     1      -3.488  12.573  23.333  0.00  0.00    +0.000 A 
ATOM     17  N   UNL     1      -4.280  12.913  22.234  0.00  0.00    +0.000 N 
ATOM     18  H   UNL     1      -5.843  12.303  25.598  0.00  0.00    +0.000 HD
ENDBRANCH   5   7
BRANCH   1  22
ATOM     19  C   UNL     1       1.232  17.621  22.233  0.00  0.00    +0.000 C 
ATOM     20  C   UNL     1       0.764  16.216  21.962  0.00  0.00    +0.000 C 
ATOM     21  O   UNL     1       1.006  15.320  22.764  0.00  0.00    +0.000 OA
ATOM     22  N   UNL     1       0.074  16.097  20.766  0.00  0.00    +0.000 N 
ATOM     23  H   UNL     1       0.066  16.902  20.151  0.00  0.00    +0.000 HD
ENDBRANCH   1  22
BRANCH   4  24
ATOM     24  O   UNL     1      -2.434  11.295  19.322  0.00  0.00    +0.000 OA
BRANCH  24  25
ATOM     25  C   UNL     1      -2.791  10.964  18.031  0.00  0.00    +0.000 A 
ATOM     26  C   UNL     1      -4.002  11.472  17.548  0.00  0.00    +0.000 A 
ATOM     27  C   UNL     1      -4.384  11.211  16.229  0.00  0.00    +0.000 A 
ATOM     28  C   UNL     1      -3.557  10.444  15.409  0.00  0.00    +0.000 A 
ATOM     29  F   UNL     1      -3.914  10.222  14.137  0.00  0.00    +0.000 F 
ATOM     30  C   UNL     1      -2.371   9.907  15.887  0.00  0.00    +0.000 A 
ATOM     31  C   UNL     1      -2.010  10.143  17.206  0.00  0.00    +0.000 A 
ATOM     32  F   UNL     1      -0.871   9.602  17.661  0.00  0.00    +0.000 F 
ENDBRANCH  24  25
ENDBRANCH   4  24
TORSDOF 4
ENDMDL
MODEL 7
REMARK VINA RESULT:      -7.2      4.444      7.048
REMARK  Name = 
REMARK  6 active torsions:
REMARK  status: ('A' for Active; 'I' for Inactive)
REMARK    1  A    between atoms: C_1  and  C_2
REMARK    2  A    between atoms: N_4  and  C_5
REMARK    3  A    between atoms: C_8  and  O_9
REMARK    4  A    between atoms: O_9  and  C_10
REMARK    5  A    between atoms: C_18  and  C_19
REMARK    6  A    between atoms: C_21  and  C_22
REMARK                            x       y       z     vdW  Elec       q    Type
REMARK                         _______ _______ _______ _____ _____    ______ ____
ROOT
ATOM      1  C   UNL     1      -3.808  10.214  15.280  0.00  0.00    +0.000 A 
ATOM      2  C   UNL     1      -2.524   9.759  15.538  0.00  0.00    +0.000 A 
ATOM      3  C   UNL     1      -1.955   9.927  16.796  0.00  0.00    +0.000 A 
ATOM      4  C   UNL     1      -2.628  10.629  17.808  0.00  0.00    +0.000 A 
ATOM      5  C   UNL     1      -3.975  11.007  17.618  0.00  0.00    +0.000 A 
ATOM      6  C   UNL     1      -4.531  10.812  16.326  0.00  0.00    +0.000 A 
ENDROOT
BRANCH   5   7
ATOM      7  C   UNL     1      -4.829  11.651  18.654  0.00  0.00    +0.000 A 
ATOM      8  C   UNL     1      -4.772  12.974  19.086  0.00  0.00    +0.000 A 
ATOM      9  C   UNL     1      -5.689  13.171  20.150  0.00  0.00    +0.000 A 
ATOM     10  C   UNL     1      -5.890  14.423  20.928  0.00  0.00    +0.000 C 
ATOM     11  C   UNL     1      -6.343  11.964  20.318  0.00  0.00    +0.000 A 
ATOM     12  C   UNL     1      -7.377  11.577  21.261  0.00  0.00    +0.000 A 
ATOM     13  O   UNL     1      -7.824  12.293  22.150  0.00  0.00    +0.000 OA
ATOM     14  N   UNL     1      -7.852  10.284  21.102  0.00  0.00    +0.000 N 
ATOM     15  C   UNL     1      -7.434   9.429  20.108  0.00  0.00    +0.000 A 
ATOM     16  C   UNL     1      -6.486   9.810  19.242  0.00  0.00    +0.000 A 
ATOM     17  N   UNL     1      -5.884  11.065  19.361  0.00  0.00    +0.000 N 
ATOM     18  H   UNL     1      -8.567  10.000  21.768  0.00  0.00    +0.000 HD
ENDBRANCH   5   7
BRANCH   1  22
ATOM     19  C   UNL     1      -4.651   9.882  11.616  0.00  0.00    +0.000 C 
ATOM     20  C   UNL     1      -3.764   9.770  12.826  0.00  0.00    +0.000 C 
ATOM     21  O   UNL     1      -2.600   9.402  12.706  0.00  0.00    +0.000 OA
ATOM     22  N   UNL     1      -4.407  10.117  14.004  0.00  0.00    +0.000 N 
ATOM     23  H   UNL     1      -5.406  10.277  13.958  0.00  0.00    +0.000 HD
ENDBRANCH   1  22
BRANCH   4  24
ATOM     24  O   UNL     1      -1.982  10.966  18.987  0.00  0.00    +0.000 OA
BRANCH  24  25
ATOM     25  C   UNL     1      -0.829  11.721  18.922  0.00  0.00    +0.000 A 
ATOM     26  C   UNL     1      -0.969  13.088  18.661  0.00  0.00    +0.000 A 
ATOM     27  C   UNL     1       0.164  13.907  18.638  0.00  0.00    +0.000 A 
ATOM     28  C   UNL     1       1.422  13.353  18.873  0.00  0.00    +0.000 A 
ATOM     29  F   UNL     1       2.500  14.148  18.879  0.00  0.00    +0.000 F 
ATOM     30  C   UNL     1       1.577  11.993  19.099  0.00  0.00    +0.000 A 
ATOM     31  C   UNL     1       0.453  11.178  19.090  0.00  0.00    +0.000 A 
ATOM     32  F   UNL     1       0.619   9.864  19.291  0.00  0.00    +0.000 F 
ENDBRANCH  24  25
ENDBRANCH   4  24
TORSDOF 4
ENDMDL
MODEL 8
REMARK VINA RESULT:      -7.1      2.331      6.251
REMARK  Name = 
REMARK  6 active torsions:
REMARK  status: ('A' for Active; 'I' for Inactive)
REMARK    1  A    between atoms: C_1  and  C_2
REMARK    2  A    between atoms: N_4  and  C_5
REMARK    3  A    between atoms: C_8  and  O_9
REMARK    4  A    between atoms: O_9  and  C_10
REMARK    5  A    between atoms: C_18  and  C_19
REMARK    6  A    between atoms: C_21  and  C_22
REMARK                            x       y       z     vdW  Elec       q    Type
REMARK                         _______ _______ _______ _____ _____    ______ ____
ROOT
ATOM      1  C   UNL     1       1.024  14.398  19.015  0.00  0.00    +0.000 A 
ATOM      2  C   UNL     1      -0.322  14.616  19.265  0.00  0.00    +0.000 A 
ATOM      3  C   UNL     1      -1.197  13.544  19.402  0.00  0.00    +0.000 A 
ATOM      4  C   UNL     1      -0.760  12.223  19.213  0.00  0.00    +0.000 A 
ATOM      5  C   UNL     1       0.618  11.958  19.070  0.00  0.00    +0.000 A 
ATOM      6  C   UNL     1       1.487  13.074  18.944  0.00  0.00    +0.000 A 
ENDROOT
BRANCH   5   7
ATOM      7  C   UNL     1       1.214  10.597  18.978  0.00  0.00    +0.000 A 
ATOM      8  C   UNL     1       1.880  10.043  17.888  0.00  0.00    +0.000 A 
ATOM      9  C   UNL     1       2.215   8.692  18.165  0.00  0.00    +0.000 A 
ATOM     10  C   UNL     1       2.875   7.734  17.239  0.00  0.00    +0.000 C 
ATOM     11  C   UNL     1       1.795   8.454  19.462  0.00  0.00    +0.000 A 
ATOM     12  C   UNL     1       1.871   7.251  20.268  0.00  0.00    +0.000 A 
ATOM     13  O   UNL     1       2.302   6.169  19.883  0.00  0.00    +0.000 OA
ATOM     14  N   UNL     1       1.399   7.392  21.565  0.00  0.00    +0.000 N 
ATOM     15  C   UNL     1       0.936   8.576  22.089  0.00  0.00    +0.000 A 
ATOM     16  C   UNL     1       0.884   9.678  21.329  0.00  0.00    +0.000 A 
ATOM     17  N   UNL     1       1.263   9.628  19.985  0.00  0.00    +0.000 N 
ATOM     18  H   UNL     1       1.436   6.548  22.134  0.00  0.00    +0.000 HD
ENDBRANCH   5   7
BRANCH   1  22
ATOM     19  C   UNL     1       3.660  17.091  19.241  0.00  0.00    +0.000 C 
ATOM     20  C   UNL     1       2.935  15.851  19.693  0.00  0.00    +0.000 C 
ATOM     21  O   UNL     1       3.248  15.302  20.743  0.00  0.00    +0.000 OA
ATOM     22  N   UNL     1       1.941  15.455  18.812  0.00  0.00    +0.000 N 
ATOM     23  H   UNL     1       1.887  15.937  17.923  0.00  0.00    +0.000 HD
ENDBRANCH   1  22
BRANCH   4  24
ATOM     24  O   UNL     1      -1.670  11.179  19.154  0.00  0.00    +0.000 OA
BRANCH  24  25
ATOM     25  C   UNL     1      -2.373  10.973  17.985  0.00  0.00    +0.000 A 
ATOM     26  C   UNL     1      -1.759  10.201  16.992  0.00  0.00    +0.000 A 
ATOM     27  C   UNL     1      -2.451   9.919  15.811  0.00  0.00    +0.000 A 
ATOM     28  C   UNL     1      -3.744  10.411  15.632  0.00  0.00    +0.000 A 
ATOM     29  F   UNL     1      -4.412  10.112  14.510  0.00  0.00    +0.000 F 
ATOM     30  C   UNL     1      -4.348  11.206  16.594  0.00  0.00    +0.000 A 
ATOM     31  C   UNL     1      -3.647  11.510  17.753  0.00  0.00    +0.000 A 
ATOM     32  F   UNL     1      -4.236  12.295  18.665  0.00  0.00    +0.000 F 
ENDBRANCH  24  25
ENDBRANCH   4  24
TORSDOF 4
ENDMDL
MODEL 9
REMARK VINA RESULT:      -7.1      4.523      8.763
REMARK  Name = 
REMARK  6 active torsions:
REMARK  status: ('A' for Active; 'I' for Inactive)
REMARK    1  A    between atoms: C_1  and  C_2
REMARK    2  A    between atoms: N_4  and  C_5
REMARK    3  A    between atoms: C_8  and  O_9
REMARK    4  A    between atoms: O_9  and  C_10
REMARK    5  A    between atoms: C_18  and  C_19
REMARK    6  A    between atoms: C_21  and  C_22
REMARK                            x       y       z     vdW  Elec       q    Type
REMARK                         _______ _______ _______ _____ _____    ______ ____
ROOT
ATOM      1  C   UNL     1       1.414   9.055  18.879  0.00  0.00    +0.000 A 
ATOM      2  C   UNL     1       1.199   8.706  20.204  0.00  0.00    +0.000 A 
ATOM      3  C   UNL     1       1.826   7.592  20.751  0.00  0.00    +0.000 A 
ATOM      4  C   UNL     1       2.625   6.749  19.961  0.00  0.00    +0.000 A 
ATOM      5  C   UNL     1       2.955   7.134  18.644  0.00  0.00    +0.000 A 
ATOM      6  C   UNL     1       2.307   8.282  18.118  0.00  0.00    +0.000 A 
ENDROOT
BRANCH   5   7
ATOM      7  C   UNL     1       3.883   6.387  17.750  0.00  0.00    +0.000 A 
ATOM      8  C   UNL     1       3.597   5.241  17.012  0.00  0.00    +0.000 A 
ATOM      9  C   UNL     1       4.772   4.784  16.361  0.00  0.00    +0.000 A 
ATOM     10  C   UNL     1       4.906   3.559  15.529  0.00  0.00    +0.000 C 
ATOM     11  C   UNL     1       5.759   5.703  16.668  0.00  0.00    +0.000 A 
ATOM     12  C   UNL     1       7.158   5.743  16.284  0.00  0.00    +0.000 A 
ATOM     13  O   UNL     1       7.735   4.883  15.627  0.00  0.00    +0.000 OA
ATOM     14  N   UNL     1       7.849   6.860  16.731  0.00  0.00    +0.000 N 
ATOM     15  C   UNL     1       7.272   7.889  17.438  0.00  0.00    +0.000 A 
ATOM     16  C   UNL     1       5.976   7.835  17.773  0.00  0.00    +0.000 A 
ATOM     17  N   UNL     1       5.206   6.718  17.441  0.00  0.00    +0.000 N 
ATOM     18  H   UNL     1       8.835   6.889  16.478  0.00  0.00    +0.000 HD
ENDBRANCH   5   7
BRANCH   1  22
ATOM     19  C   UNL     1      -0.314  12.285  17.970  0.00  0.00    +0.000 C 
ATOM     20  C   UNL     1       0.526  11.386  18.836  0.00  0.00    +0.000 C 
ATOM     21  O   UNL     1       0.932  11.780  19.924  0.00  0.00    +0.000 OA
ATOM     22  N   UNL     1       0.756  10.144  18.264  0.00  0.00    +0.000 N 
ATOM     23  H   UNL     1       0.462  10.013  17.303  0.00  0.00    +0.000 HD
ENDBRANCH   1  22
BRANCH   4  24
ATOM     24  O   UNL     1       3.084   5.539  20.457  0.00  0.00    +0.000 OA
BRANCH  24  25
ATOM     25  C   UNL     1       2.486   4.373  20.026  0.00  0.00    +0.000 A 
ATOM     26  C   UNL     1       1.088   4.318  20.055  0.00  0.00    +0.000 A 
ATOM     27  C   UNL     1       0.431   3.180  19.578  0.00  0.00    +0.000 A 
ATOM     28  C   UNL     1       1.174   2.110  19.082  0.00  0.00    +0.000 A 
ATOM     29  F   UNL     1       0.538   1.034  18.599  0.00  0.00    +0.000 F 
ATOM     30  C   UNL     1       2.561   2.139  19.080  0.00  0.00    +0.000 A 
ATOM     31  C   UNL     1       3.211   3.258  19.583  0.00  0.00    +0.000 A 
ATOM     32  F   UNL     1       4.551   3.265  19.593  0.00  0.00    +0.000 F 
ENDBRANCH  24  25
ENDBRANCH   4  24
TORSDOF 4
ENDMDL
