MODEL 1
REMARK VINA RESULT:      -9.7      0.000      0.000
REMARK  Name = 
REMARK  6 active torsions:
REMARK  status: ('A' for Active; 'I' for Inactive)
REMARK    1  A    between atoms: N_3  and  C_4
REMARK    2  A    between atoms: C_12  and  C_13
REMARK    3  A    between atoms: N_16  and  C_17
REMARK    4  A    between atoms: C_17  and  C_18
REMARK    5  A    between atoms: C_21  and  C_22
REMARK    6  A    between atoms: C_27  and  C_28
REMARK                            x       y       z     vdW  Elec       q    Type
REMARK                         _______ _______ _______ _____ _____    ______ ____
ROOT
ATOM      1  C   UNL     1       1.159   8.813  19.820  0.00  0.00    +0.000 A 
ATOM      2  C   UNL     1       1.476   9.094  18.488  0.00  0.00    +0.000 A 
ATOM      3  C   UNL     1       2.307   8.234  17.758  0.00  0.00    +0.000 A 
ATOM      4  C   UNL     1       2.873   7.079  18.332  0.00  0.00    +0.000 A 
ATOM      5  C   UNL     1       2.572   6.842  19.684  0.00  0.00    +0.000 A 
ATOM      6  C   UNL     1       1.697   7.665  20.403  0.00  0.00    +0.000 A 
ENDROOT
BRANCH   4   7
ATOM      7  C   UNL     1       3.760   6.177  17.537  0.00  0.00    +0.000 A 
ATOM      8  C   UNL     1       4.835   6.759  16.819  0.00  0.00    +0.000 A 
ATOM      9  C   UNL     1       5.718   6.000  16.044  0.00  0.00    +0.000 A 
ATOM     10  C   UNL     1       5.577   4.624  15.985  0.00  0.00    +0.000 A 
ATOM     11  C   UNL     1       4.546   4.011  16.692  0.00  0.00    +0.000 A 
ATOM     12  C   UNL     1       3.623   4.765  17.452  0.00  0.00    +0.000 A 
BRANCH  12  13
ATOM     13  C   UNL     1       2.570   4.005  18.117  0.00  0.00    +0.000 A 
ATOM     14  N   UNL     1       1.325   3.833  17.549  0.00  0.00    +0.000 NA
ATOM     15  N   UNL     1       0.640   3.042  18.362  0.00  0.00    +0.000 NA
ATOM     16  N   UNL     1       1.480   2.789  19.371  0.00  0.00    +0.000 N 
ATOM     17  N   UNL     1       2.676   3.388  19.306  0.00  0.00    +0.000 NA
ATOM     18  H   UNL     1       1.230   2.159  20.128  0.00  0.00    +0.000 HD
ENDBRANCH  12  13
ENDBRANCH   4   7
BRANCH   1  19
ATOM     19  C   UNL     1       0.290   9.747  20.621  0.00  0.00    +0.000 C 
BRANCH  19  25
ATOM     20  O   UNL     1       1.673  12.278  20.881  0.00  0.00    +0.000 OA
ATOM     21  C   UNL     1       0.694  12.156  20.158  0.00  0.00    +0.000 A 
ATOM     22  N   UNL     1       0.016  13.140  19.406  0.00  0.00    +0.000 N 
ATOM     23  N   UNL     1      -1.028  12.559  18.728  0.00  0.00    +0.000 NA
ATOM     24  C   UNL     1      -0.985  11.310  19.080  0.00  0.00    +0.000 A 
ATOM     25  N   UNL     1      -0.004  10.989  19.946  0.00  0.00    +0.000 N 
BRANCH  22  26
ATOM     26  C   UNL     1       0.350  14.503  19.214  0.00  0.00    +0.000 A 
ATOM     27  C   UNL     1      -0.584  15.494  19.578  0.00  0.00    +0.000 A 
ATOM     28  C   UNL     1      -0.296  16.858  19.454  0.00  0.00    +0.000 A 
ATOM     29  C   UNL     1       0.932  17.270  18.956  0.00  0.00    +0.000 A 
ATOM     30  C   UNL     1       1.865  16.317  18.563  0.00  0.00    +0.000 A 
ATOM     31  C   UNL     1       1.587  14.943  18.690  0.00  0.00    +0.000 A 
ATOM     32 CL   UNL     1       2.803  13.883  18.050  0.00  0.00    +0.000 Cl
ENDBRANCH  22  26
BRANCH  24  33
ATOM     33  C   UNL     1      -1.925  10.338  18.504  0.00  0.00    +0.000 C 
ATOM     34  C   UNL     1      -2.971  10.684  17.474  0.00  0.00    +0.000 C 
ATOM     35  C   UNL     1      -1.755   9.919  17.058  0.00  0.00    +0.000 C 
ENDBRANCH  24  33
ENDBRANCH  19  25
ENDBRANCH   1  19
TORSDOF 6
ENDMDL
MODEL 2
REMARK VINA RESULT:      -9.5      0.630      1.242
REMARK  Name = 
REMARK  6 active torsions:
REMARK  status: ('A' for Active; 'I' for Inactive)
REMARK    1  A    between atoms: N_3  and  C_4
REMARK    2  A    between atoms: C_12  and  C_13
REMARK    3  A    between atoms: N_16  and  C_17
REMARK    4  A    between atoms: C_17  and  C_18
REMARK    5  A    between atoms: C_21  and  C_22
REMARK    6  A    between atoms: C_27  and  C_28
REMARK                            x       y       z     vdW  Elec       q    Type
REMARK                         _______ _______ _______ _____ _____    ______ ____
ROOT
ATOM      1  C   UNL     1       1.049   9.038  20.029  0.00  0.00    +0.000 A 
ATOM      2  C   UNL     1       1.469   7.878  20.686  0.00  0.00    +0.000 A 
ATOM      3  C   UNL     1       2.244   6.922  20.016  0.00  0.00    +0.000 A 
ATOM      4  C   UNL     1       2.609   7.073  18.664  0.00  0.00    +0.000 A 
ATOM      5  C   UNL     1       2.140   8.228  18.015  0.00  0.00    +0.000 A 
ATOM      6  C   UNL     1       1.414   9.215  18.693  0.00  0.00    +0.000 A 
ENDROOT
BRANCH   4   7
ATOM      7  C   UNL     1       3.433   6.040  17.967  0.00  0.00    +0.000 A 
ATOM      8  C   UNL     1       4.411   6.477  17.038  0.00  0.00    +0.000 A 
ATOM      9  C   UNL     1       5.230   5.588  16.334  0.00  0.00    +0.000 A 
ATOM     10  C   UNL     1       5.121   4.226  16.559  0.00  0.00    +0.000 A 
ATOM     11  C   UNL     1       4.187   3.756  17.478  0.00  0.00    +0.000 A 
ATOM     12  C   UNL     1       3.327   4.637  18.172  0.00  0.00    +0.000 A 
BRANCH  12  13
ATOM     13  C   UNL     1       2.372   4.014  19.080  0.00  0.00    +0.000 A 
ATOM     14  N   UNL     1       2.735   3.587  20.340  0.00  0.00    +0.000 NA
ATOM     15  N   UNL     1       1.633   3.144  20.928  0.00  0.00    +0.000 NA
ATOM     16  N   UNL     1       0.675   3.307  20.009  0.00  0.00    +0.000 N 
ATOM     17  N   UNL     1       1.070   3.800  18.827  0.00  0.00    +0.000 NA
ATOM     18  H   UNL     1      -0.297   3.091  20.209  0.00  0.00    +0.000 HD
ENDBRANCH  12  13
ENDBRANCH   4   7
BRANCH   1  19
ATOM     19  C   UNL     1       0.191  10.057  20.732  0.00  0.00    +0.000 C 
BRANCH  19  25
ATOM     20  O   UNL     1       1.775  12.478  20.871  0.00  0.00    +0.000 OA
ATOM     21  C   UNL     1       0.798  12.395  20.141  0.00  0.00    +0.000 A 
ATOM     22  N   UNL     1       0.212  13.385  19.324  0.00  0.00    +0.000 N 
ATOM     23  N   UNL     1      -0.868  12.854  18.663  0.00  0.00    +0.000 NA
ATOM     24  C   UNL     1      -0.933  11.627  19.084  0.00  0.00    +0.000 A 
ATOM     25  N   UNL     1       0.008  11.278  19.983  0.00  0.00    +0.000 N 
BRANCH  22  26
ATOM     26  C   UNL     1       0.660  14.703  19.061  0.00  0.00    +0.000 A 
ATOM     27  C   UNL     1      -0.218  15.783  19.289  0.00  0.00    +0.000 A 
ATOM     28  C   UNL     1       0.179  17.110  19.089  0.00  0.00    +0.000 A 
ATOM     29  C   UNL     1       1.464  17.395  18.651  0.00  0.00    +0.000 A 
ATOM     30  C   UNL     1       2.346  16.352  18.392  0.00  0.00    +0.000 A 
ATOM     31  C   UNL     1       1.958  15.015  18.595  0.00  0.00    +0.000 A 
ATOM     32 CL   UNL     1       3.129  13.826  18.117  0.00  0.00    +0.000 Cl
ENDBRANCH  22  26
BRANCH  24  33
ATOM     33  C   UNL     1      -1.942  10.704  18.549  0.00  0.00    +0.000 C 
ATOM     34  C   UNL     1      -2.799  10.998  17.343  0.00  0.00    +0.000 C 
ATOM     35  C   UNL     1      -1.679  10.013  17.228  0.00  0.00    +0.000 C 
ENDBRANCH  24  33
ENDBRANCH  19  25
ENDBRANCH   1  19
TORSDOF 6
ENDMDL
MODEL 3
REMARK VINA RESULT:      -9.5      0.959      1.506
REMARK  Name = 
REMARK  6 active torsions:
REMARK  status: ('A' for Active; 'I' for Inactive)
REMARK    1  A    between atoms: N_3  and  C_4
REMARK    2  A    between atoms: C_12  and  C_13
REMARK    3  A    between atoms: N_16  and  C_17
REMARK    4  A    between atoms: C_17  and  C_18
REMARK    5  A    between atoms: C_21  and  C_22
REMARK    6  A    between atoms: C_27  and  C_28
REMARK                            x       y       z     vdW  Elec       q    Type
REMARK                         _______ _______ _______ _____ _____    ______ ____
ROOT
ATOM      1  C   UNL     1       1.122   8.879  19.780  0.00  0.00    +0.000 A 
ATOM      2  C   UNL     1       1.681   7.750  20.384  0.00  0.00    +0.000 A 
ATOM      3  C   UNL     1       2.541   6.909  19.664  0.00  0.00    +0.000 A 
ATOM      4  C   UNL     1       2.855   7.147  18.312  0.00  0.00    +0.000 A 
ATOM      5  C   UNL     1       2.248   8.266  17.717  0.00  0.00    +0.000 A 
ATOM      6  C   UNL     1       1.434   9.142  18.445  0.00  0.00    +0.000 A 
ENDROOT
BRANCH   4   7
ATOM      7  C   UNL     1       3.771   6.236  17.561  0.00  0.00    +0.000 A 
ATOM      8  C   UNL     1       4.878   6.807  16.884  0.00  0.00    +0.000 A 
ATOM      9  C   UNL     1       5.790   6.040  16.153  0.00  0.00    +0.000 A 
ATOM     10  C   UNL     1       5.645   4.664  16.099  0.00  0.00    +0.000 A 
ATOM     11  C   UNL     1       4.582   4.060  16.767  0.00  0.00    +0.000 A 
ATOM     12  C   UNL     1       3.632   4.824  17.481  0.00  0.00    +0.000 A 
BRANCH  12  13
ATOM     13  C   UNL     1       2.549   4.073  18.107  0.00  0.00    +0.000 A 
ATOM     14  N   UNL     1       1.315   3.934  17.506  0.00  0.00    +0.000 NA
ATOM     15  N   UNL     1       0.595   3.143  18.288  0.00  0.00    +0.000 NA
ATOM     16  N   UNL     1       1.405   2.858  19.313  0.00  0.00    +0.000 N 
ATOM     17  N   UNL     1       2.613   3.435  19.288  0.00  0.00    +0.000 NA
ATOM     18  H   UNL     1       1.124   2.221  20.053  0.00  0.00    +0.000 HD
ENDBRANCH  12  13
ENDBRANCH   4   7
BRANCH   1  19
ATOM     19  C   UNL     1       0.175   9.772  20.537  0.00  0.00    +0.000 C 
BRANCH  19  25
ATOM     20  O   UNL     1       1.684  12.221  20.873  0.00  0.00    +0.000 OA
ATOM     21  C   UNL     1       0.702  12.171  20.147  0.00  0.00    +0.000 A 
ATOM     22  N   UNL     1       0.075  13.210  19.426  0.00  0.00    +0.000 N 
ATOM     23  N   UNL     1      -0.996  12.704  18.731  0.00  0.00    +0.000 NA
ATOM     24  C   UNL     1      -1.018  11.444  19.044  0.00  0.00    +0.000 A 
ATOM     25  N   UNL     1      -0.055  11.048  19.900  0.00  0.00    +0.000 N 
BRANCH  22  26
ATOM     26  C   UNL     1       0.479  14.559  19.276  0.00  0.00    +0.000 A 
ATOM     27  C   UNL     1       1.714  14.839  18.656  0.00  0.00    +0.000 A 
ATOM     28  C   UNL     1       2.149  16.151  18.439  0.00  0.00    +0.000 A 
ATOM     29  C   UNL     1       1.363  17.222  18.841  0.00  0.00    +0.000 A 
ATOM     30  C   UNL     1       0.152  16.980  19.478  0.00  0.00    +0.000 A 
ATOM     31  C   UNL     1      -0.297  15.664  19.695  0.00  0.00    +0.000 A 
ATOM     32 CL   UNL     1      -1.769  15.527  20.604  0.00  0.00    +0.000 Cl
ENDBRANCH  22  26
BRANCH  24  33
ATOM     33  C   UNL     1      -2.005  10.540  18.439  0.00  0.00    +0.000 C 
ATOM     34  C   UNL     1      -2.843  10.889  17.235  0.00  0.00    +0.000 C 
ATOM     35  C   UNL     1      -1.708   9.927  17.087  0.00  0.00    +0.000 C 
ENDBRANCH  24  33
ENDBRANCH  19  25
ENDBRANCH   1  19
TORSDOF 6
ENDMDL
MODEL 4
REMARK VINA RESULT:      -9.4      2.759      3.913
REMARK  Name = 
REMARK  6 active torsions:
REMARK  status: ('A' for Active; 'I' for Inactive)
REMARK    1  A    between atoms: N_3  and  C_4
REMARK    2  A    between atoms: C_12  and  C_13
REMARK    3  A    between atoms: N_16  and  C_17
REMARK    4  A    between atoms: C_17  and  C_18
REMARK    5  A    between atoms: C_21  and  C_22
REMARK    6  A    between atoms: C_27  and  C_28
REMARK                            x       y       z     vdW  Elec       q    Type
REMARK                         _______ _______ _______ _____ _____    ______ ____
ROOT
ATOM      1  C   UNL     1       1.731   8.954  18.671  0.00  0.00    +0.000 A 
ATOM      2  C   UNL     1       1.535   8.604  20.010  0.00  0.00    +0.000 A 
ATOM      3  C   UNL     1       1.794   7.299  20.450  0.00  0.00    +0.000 A 
ATOM      4  C   UNL     1       2.233   6.290  19.570  0.00  0.00    +0.000 A 
ATOM      5  C   UNL     1       2.382   6.657  18.222  0.00  0.00    +0.000 A 
ATOM      6  C   UNL     1       2.180   7.972  17.786  0.00  0.00    +0.000 A 
ENDROOT
BRANCH   4   7
ATOM      7  C   UNL     1       2.500   4.903  20.059  0.00  0.00    +0.000 A 
ATOM      8  C   UNL     1       1.511   4.272  20.856  0.00  0.00    +0.000 A 
ATOM      9  C   UNL     1       1.668   2.979  21.363  0.00  0.00    +0.000 A 
ATOM     10  C   UNL     1       2.810   2.254  21.063  0.00  0.00    +0.000 A 
ATOM     11  C   UNL     1       3.796   2.830  20.267  0.00  0.00    +0.000 A 
ATOM     12  C   UNL     1       3.670   4.149  19.775  0.00  0.00    +0.000 A 
BRANCH  12  13
ATOM     13  C   UNL     1       4.789   4.644  18.981  0.00  0.00    +0.000 A 
ATOM     14  N   UNL     1       5.801   5.398  19.539  0.00  0.00    +0.000 NA
ATOM     15  N   UNL     1       6.687   5.619  18.578  0.00  0.00    +0.000 NA
ATOM     16  N   UNL     1       6.173   5.014  17.502  0.00  0.00    +0.000 N 
ATOM     17  N   UNL     1       4.979   4.429  17.669  0.00  0.00    +0.000 NA
ATOM     18  H   UNL     1       6.673   4.983  16.618  0.00  0.00    +0.000 HD
ENDBRANCH  12  13
ENDBRANCH   4   7
BRANCH   1  19
ATOM     19  C   UNL     1       1.427  10.346  18.184  0.00  0.00    +0.000 C 
BRANCH  19  25
ATOM     20  O   UNL     1       1.316  12.150  20.447  0.00  0.00    +0.000 OA
ATOM     21  C   UNL     1       0.300  11.759  19.891  0.00  0.00    +0.000 A 
ATOM     22  N   UNL     1      -1.049  12.004  20.228  0.00  0.00    +0.000 N 
ATOM     23  N   UNL     1      -1.869  11.377  19.323  0.00  0.00    +0.000 NA
ATOM     24  C   UNL     1      -1.053  10.775  18.512  0.00  0.00    +0.000 A 
ATOM     25  N   UNL     1       0.256  10.932  18.791  0.00  0.00    +0.000 N 
BRANCH  22  26
ATOM     26  C   UNL     1      -1.575  12.846  21.238  0.00  0.00    +0.000 A 
ATOM     27  C   UNL     1      -1.938  14.168  20.908  0.00  0.00    +0.000 A 
ATOM     28  C   UNL     1      -2.504  15.034  21.850  0.00  0.00    +0.000 A 
ATOM     29  C   UNL     1      -2.718  14.605  23.152  0.00  0.00    +0.000 A 
ATOM     30  C   UNL     1      -2.347  13.316  23.517  0.00  0.00    +0.000 A 
ATOM     31  C   UNL     1      -1.783  12.436  22.575  0.00  0.00    +0.000 A 
ATOM     32 CL   UNL     1      -1.268  10.905  23.212  0.00  0.00    +0.000 Cl
ENDBRANCH  22  26
BRANCH  24  33
ATOM     33  C   UNL     1      -1.564  10.032  17.352  0.00  0.00    +0.000 C 
ATOM     34  C   UNL     1      -3.018   9.690  17.142  0.00  0.00    +0.000 C 
ATOM     35  C   UNL     1      -2.389  10.766  16.315  0.00  0.00    +0.000 C 
ENDBRANCH  24  33
ENDBRANCH  19  25
ENDBRANCH   1  19
TORSDOF 6
ENDMDL
MODEL 5
REMARK VINA RESULT:      -9.3      2.664      3.737
REMARK  Name = 
REMARK  6 active torsions:
REMARK  status: ('A' for Active; 'I' for Inactive)
REMARK    1  A    between atoms: N_3  and  C_4
REMARK    2  A    between atoms: C_12  and  C_13
REMARK    3  A    between atoms: N_16  and  C_17
REMARK    4  A    between atoms: C_17  and  C_18
REMARK    5  A    between atoms: C_21  and  C_22
REMARK    6  A    between atoms: C_27  and  C_28
REMARK                            x       y       z     vdW  Elec       q    Type
REMARK                         _______ _______ _______ _____ _____    ______ ____
ROOT
ATOM      1  C   UNL     1       1.731   8.907  18.685  0.00  0.00    +0.000 A 
ATOM      2  C   UNL     1       2.188   7.919  17.809  0.00  0.00    +0.000 A 
ATOM      3  C   UNL     1       2.416   6.614  18.265  0.00  0.00    +0.000 A 
ATOM      4  C   UNL     1       2.222   6.251  19.613  0.00  0.00    +0.000 A 
ATOM      5  C   UNL     1       1.801   7.273  20.481  0.00  0.00    +0.000 A 
ATOM      6  C   UNL     1       1.517   8.564  20.021  0.00  0.00    +0.000 A 
ENDROOT
BRANCH   4   7
ATOM      7  C   UNL     1       2.475   4.854  20.079  0.00  0.00    +0.000 A 
ATOM      8  C   UNL     1       1.466   4.208  20.837  0.00  0.00    +0.000 A 
ATOM      9  C   UNL     1       1.608   2.904  21.321  0.00  0.00    +0.000 A 
ATOM     10  C   UNL     1       2.757   2.184  21.036  0.00  0.00    +0.000 A 
ATOM     11  C   UNL     1       3.764   2.775  20.277  0.00  0.00    +0.000 A 
ATOM     12  C   UNL     1       3.652   4.104  19.810  0.00  0.00    +0.000 A 
BRANCH  12  13
ATOM     13  C   UNL     1       4.791   4.615  19.056  0.00  0.00    +0.000 A 
ATOM     14  N   UNL     1       4.983   4.305  17.726  0.00  0.00    +0.000 NA
ATOM     15  N   UNL     1       6.050   4.980  17.325  0.00  0.00    +0.000 NA
ATOM     16  N   UNL     1       6.457   5.642  18.414  0.00  0.00    +0.000 N 
ATOM     17  N   UNL     1       5.749   5.427  19.532  0.00  0.00    +0.000 NA
ATOM     18  H   UNL     1       7.241   6.286  18.385  0.00  0.00    +0.000 HD
ENDBRANCH  12  13
ENDBRANCH   4   7
BRANCH   1  19
ATOM     19  C   UNL     1       1.511  10.319  18.210  0.00  0.00    +0.000 C 
BRANCH  19  25
ATOM     20  O   UNL     1       1.545  12.243  20.375  0.00  0.00    +0.000 OA
ATOM     21  C   UNL     1       0.495  11.855  19.882  0.00  0.00    +0.000 A 
ATOM     22  N   UNL     1      -0.830  12.158  20.259  0.00  0.00    +0.000 N 
ATOM     23  N   UNL     1      -1.705  11.509  19.422  0.00  0.00    +0.000 NA
ATOM     24  C   UNL     1      -0.941  10.840  18.613  0.00  0.00    +0.000 A 
ATOM     25  N   UNL     1       0.382  10.972  18.831  0.00  0.00    +0.000 N 
BRANCH  22  26
ATOM     26  C   UNL     1      -1.291  13.067  21.242  0.00  0.00    +0.000 A 
ATOM     27  C   UNL     1      -1.463  14.423  20.894  0.00  0.00    +0.000 A 
ATOM     28  C   UNL     1      -1.956  15.362  21.807  0.00  0.00    +0.000 A 
ATOM     29  C   UNL     1      -2.285  14.973  23.098  0.00  0.00    +0.000 A 
ATOM     30  C   UNL     1      -2.103  13.649  23.481  0.00  0.00    +0.000 A 
ATOM     31  C   UNL     1      -1.613  12.697  22.568  0.00  0.00    +0.000 A 
ATOM     32 CL   UNL     1      -1.332  11.117  23.230  0.00  0.00    +0.000 Cl
ENDBRANCH  22  26
BRANCH  24  33
ATOM     33  C   UNL     1      -1.520  10.054  17.516  0.00  0.00    +0.000 C 
ATOM     34  C   UNL     1      -2.991   9.750  17.380  0.00  0.00    +0.000 C 
ATOM     35  C   UNL     1      -2.361  10.757  16.471  0.00  0.00    +0.000 C 
ENDBRANCH  24  33
ENDBRANCH  19  25
ENDBRANCH   1  19
TORSDOF 6
ENDMDL
MODEL 6
REMARK VINA RESULT:      -9.1      2.500      3.684
REMARK  Name = 
REMARK  6 active torsions:
REMARK  status: ('A' for Active; 'I' for Inactive)
REMARK    1  A    between atoms: N_3  and  C_4
REMARK    2  A    between atoms: C_12  and  C_13
REMARK    3  A    between atoms: N_16  and  C_17
REMARK    4  A    between atoms: C_17  and  C_18
REMARK    5  A    between atoms: C_21  and  C_22
REMARK    6  A    between atoms: C_27  and  C_28
REMARK                            x       y       z     vdW  Elec       q    Type
REMARK                         _______ _______ _______ _____ _____    ______ ____
ROOT
ATOM      1  C   UNL     1       1.760   8.952  18.718  0.00  0.00    +0.000 A 
ATOM      2  C   UNL     1       1.515   8.582  20.043  0.00  0.00    +0.000 A 
ATOM      3  C   UNL     1       1.737   7.264  20.467  0.00  0.00    +0.000 A 
ATOM      4  C   UNL     1       2.186   6.263  19.583  0.00  0.00    +0.000 A 
ATOM      5  C   UNL     1       2.385   6.652  18.248  0.00  0.00    +0.000 A 
ATOM      6  C   UNL     1       2.221   7.978  17.830  0.00  0.00    +0.000 A 
ENDROOT
BRANCH   4   7
ATOM      7  C   UNL     1       2.412   4.864  20.054  0.00  0.00    +0.000 A 
ATOM      8  C   UNL     1       1.383   4.232  20.798  0.00  0.00    +0.000 A 
ATOM      9  C   UNL     1       1.500   2.927  21.285  0.00  0.00    +0.000 A 
ATOM     10  C   UNL     1       2.642   2.191  21.017  0.00  0.00    +0.000 A 
ATOM     11  C   UNL     1       3.668   2.766  20.273  0.00  0.00    +0.000 A 
ATOM     12  C   UNL     1       3.582   4.097  19.803  0.00  0.00    +0.000 A 
BRANCH  12  13
ATOM     13  C   UNL     1       4.739   4.590  19.065  0.00  0.00    +0.000 A 
ATOM     14  N   UNL     1       4.960   4.253  17.746  0.00  0.00    +0.000 NA
ATOM     15  N   UNL     1       6.038   4.918  17.357  0.00  0.00    +0.000 NA
ATOM     16  N   UNL     1       6.421   5.601  18.440  0.00  0.00    +0.000 N 
ATOM     17  N   UNL     1       5.688   5.411  19.546  0.00  0.00    +0.000 NA
ATOM     18  H   UNL     1       7.207   6.244  18.416  0.00  0.00    +0.000 HD
ENDBRANCH  12  13
ENDBRANCH   4   7
BRANCH   1  19
ATOM     19  C   UNL     1       1.497  10.358  18.247  0.00  0.00    +0.000 C 
BRANCH  19  25
ATOM     20  O   UNL     1       1.469  12.282  20.412  0.00  0.00    +0.000 OA
ATOM     21  C   UNL     1       0.433  11.859  19.919  0.00  0.00    +0.000 A 
ATOM     22  N   UNL     1      -0.902  12.119  20.297  0.00  0.00    +0.000 N 
ATOM     23  N   UNL     1      -1.755  11.443  19.460  0.00  0.00    +0.000 NA
ATOM     24  C   UNL     1      -0.970  10.799  18.651  0.00  0.00    +0.000 A 
ATOM     25  N   UNL     1       0.348  10.974  18.869  0.00  0.00    +0.000 N 
BRANCH  22  26
ATOM     26  C   UNL     1      -1.392  13.013  21.280  0.00  0.00    +0.000 A 
ATOM     27  C   UNL     1      -1.950  12.489  22.465  0.00  0.00    +0.000 A 
ATOM     28  C   UNL     1      -2.411  13.320  23.492  0.00  0.00    +0.000 A 
ATOM     29  C   UNL     1      -2.333  14.699  23.362  0.00  0.00    +0.000 A 
ATOM     30  C   UNL     1      -1.813  15.248  22.196  0.00  0.00    +0.000 A 
ATOM     31  C   UNL     1      -1.341  14.421  21.160  0.00  0.00    +0.000 A 
ATOM     32 CL   UNL     1      -0.830  15.254  19.725  0.00  0.00    +0.000 Cl
ENDBRANCH  22  26
BRANCH  24  33
ATOM     33  C   UNL     1      -1.523   9.994  17.553  0.00  0.00    +0.000 C 
ATOM     34  C   UNL     1      -2.992   9.696  17.382  0.00  0.00    +0.000 C 
ATOM     35  C   UNL     1      -2.330  10.682  16.472  0.00  0.00    +0.000 C 
ENDBRANCH  24  33
ENDBRANCH  19  25
ENDBRANCH   1  19
TORSDOF 6
ENDMDL
MODEL 7
REMARK VINA RESULT:      -9.0      2.934      3.995
REMARK  Name = 
REMARK  6 active torsions:
REMARK  status: ('A' for Active; 'I' for Inactive)
REMARK    1  A    between atoms: N_3  and  C_4
REMARK    2  A    between atoms: C_12  and  C_13
REMARK    3  A    between atoms: N_16  and  C_17
REMARK    4  A    between atoms: C_17  and  C_18
REMARK    5  A    between atoms: C_21  and  C_22
REMARK    6  A    between atoms: C_27  and  C_28
REMARK                            x       y       z     vdW  Elec       q    Type
REMARK                         _______ _______ _______ _____ _____    ______ ____
ROOT
ATOM      1  C   UNL     1       1.476   9.251  18.815  0.00  0.00    +0.000 A 
ATOM      2  C   UNL     1       1.908   8.350  17.838  0.00  0.00    +0.000 A 
ATOM      3  C   UNL     1       2.265   7.040  18.187  0.00  0.00    +0.000 A 
ATOM      4  C   UNL     1       2.230   6.589  19.521  0.00  0.00    +0.000 A 
ATOM      5  C   UNL     1       1.833   7.527  20.488  0.00  0.00    +0.000 A 
ATOM      6  C   UNL     1       1.420   8.819  20.141  0.00  0.00    +0.000 A 
ENDROOT
BRANCH   4   7
ATOM      7  C   UNL     1       2.619   5.189  19.871  0.00  0.00    +0.000 A 
ATOM      8  C   UNL     1       1.832   4.493  20.823  0.00  0.00    +0.000 A 
ATOM      9  C   UNL     1       2.115   3.183  21.220  0.00  0.00    +0.000 A 
ATOM     10  C   UNL     1       3.182   2.506  20.652  0.00  0.00    +0.000 A 
ATOM     11  C   UNL     1       3.969   3.146  19.697  0.00  0.00    +0.000 A 
ATOM     12  C   UNL     1       3.718   4.483  19.311  0.00  0.00    +0.000 A 
BRANCH  12  13
ATOM     13  C   UNL     1       4.636   5.047  18.328  0.00  0.00    +0.000 A 
ATOM     14  N   UNL     1       5.686   5.863  18.695  0.00  0.00    +0.000 NA
ATOM     15  N   UNL     1       6.361   6.138  17.589  0.00  0.00    +0.000 NA
ATOM     16  N   UNL     1       5.694   5.501  16.621  0.00  0.00    +0.000 N 
ATOM     17  N   UNL     1       4.591   4.842  17.001  0.00  0.00    +0.000 NA
ATOM     18  H   UNL     1       6.021   5.500  15.659  0.00  0.00    +0.000 HD
ENDBRANCH  12  13
ENDBRANCH   4   7
BRANCH   1  19
ATOM     19  C   UNL     1       1.118  10.669  18.453  0.00  0.00    +0.000 C 
BRANCH  19  25
ATOM     20  O   UNL     1       0.565  12.294  20.786  0.00  0.00    +0.000 OA
ATOM     21  C   UNL     1      -0.336  11.839  20.096  0.00  0.00    +0.000 A 
ATOM     22  N   UNL     1      -1.732  11.921  20.290  0.00  0.00    +0.000 N 
ATOM     23  N   UNL     1      -2.375  11.275  19.263  0.00  0.00    +0.000 NA
ATOM     24  C   UNL     1      -1.415  10.816  18.518  0.00  0.00    +0.000 A 
ATOM     25  N   UNL     1      -0.170  11.088  18.954  0.00  0.00    +0.000 N 
BRANCH  22  26
ATOM     26  C   UNL     1      -2.454  12.633  21.278  0.00  0.00    +0.000 A 
ATOM     27  C   UNL     1      -3.196  13.770  20.897  0.00  0.00    +0.000 A 
ATOM     28  C   UNL     1      -3.964  14.491  21.819  0.00  0.00    +0.000 A 
ATOM     29  C   UNL     1      -4.008  14.098  23.149  0.00  0.00    +0.000 A 
ATOM     30  C   UNL     1      -3.268  12.997  23.561  0.00  0.00    +0.000 A 
ATOM     31  C   UNL     1      -2.497  12.262  22.642  0.00  0.00    +0.000 A 
ATOM     32 CL   UNL     1      -1.540  10.989  23.332  0.00  0.00    +0.000 Cl
ENDBRANCH  22  26
BRANCH  24  33
ATOM     33  C   UNL     1      -1.713  10.106  17.267  0.00  0.00    +0.000 C 
ATOM     34  C   UNL     1      -3.089   9.631  16.873  0.00  0.00    +0.000 C 
ATOM     35  C   UNL     1      -2.496  10.820  16.185  0.00  0.00    +0.000 C 
ENDBRANCH  24  33
ENDBRANCH  19  25
ENDBRANCH   1  19
TORSDOF 6
ENDMDL
MODEL 8
REMARK VINA RESULT:      -8.9      2.939      3.857
REMARK  Name = 
REMARK  6 active torsions:
REMARK  status: ('A' for Active; 'I' for Inactive)
REMARK    1  A    between atoms: N_3  and  C_4
REMARK    2  A    between atoms: C_12  and  C_13
REMARK    3  A    between atoms: N_16  and  C_17
REMARK    4  A    between atoms: C_17  and  C_18
REMARK    5  A    between atoms: C_21  and  C_22
REMARK    6  A    between atoms: C_27  and  C_28
REMARK                            x       y       z     vdW  Elec       q    Type
REMARK                         _______ _______ _______ _____ _____    ______ ____
ROOT
ATOM      1  C   UNL     1       1.697   9.611  18.908  0.00  0.00    +0.000 A 
ATOM      2  C   UNL     1       1.999   9.107  17.640  0.00  0.00    +0.000 A 
ATOM      3  C   UNL     1       2.235   7.738  17.456  0.00  0.00    +0.000 A 
ATOM      4  C   UNL     1       2.203   6.826  18.529  0.00  0.00    +0.000 A 
ATOM      5  C   UNL     1       1.938   7.365  19.800  0.00  0.00    +0.000 A 
ATOM      6  C   UNL     1       1.645   8.721  19.982  0.00  0.00    +0.000 A 
ENDROOT
BRANCH   4   7
ATOM      7  C   UNL     1       2.462   5.370  18.312  0.00  0.00    +0.000 A 
ATOM      8  C   UNL     1       1.430   4.451  18.633  0.00  0.00    +0.000 A 
ATOM      9  C   UNL     1       1.576   3.071  18.468  0.00  0.00    +0.000 A 
ATOM     10  C   UNL     1       2.752   2.559  17.944  0.00  0.00    +0.000 A 
ATOM     11  C   UNL     1       3.782   3.429  17.597  0.00  0.00    +0.000 A 
ATOM     12  C   UNL     1       3.665   4.824  17.790  0.00  0.00    +0.000 A 
BRANCH  12  13
ATOM     13  C   UNL     1       4.829   5.620  17.417  0.00  0.00    +0.000 A 
ATOM     14  N   UNL     1       5.041   6.038  16.119  0.00  0.00    +0.000 NA
ATOM     15  N   UNL     1       6.130   6.794  16.134  0.00  0.00    +0.000 NA
ATOM     16  N   UNL     1       6.527   6.786  17.410  0.00  0.00    +0.000 N 
ATOM     17  N   UNL     1       5.793   6.043  18.251  0.00  0.00    +0.000 NA
ATOM     18  H   UNL     1       7.324   7.331  17.724  0.00  0.00    +0.000 HD
ENDBRANCH  12  13
ENDBRANCH   4   7
BRANCH   1  19
ATOM     19  C   UNL     1       1.470  11.085  19.120  0.00  0.00    +0.000 C 
BRANCH  19  25
ATOM     20  O   UNL     1       0.849  12.623  21.494  0.00  0.00    +0.000 OA
ATOM     21  C   UNL     1      -0.031  12.118  20.812  0.00  0.00    +0.000 A 
ATOM     22  N   UNL     1      -1.425  12.095  21.033  0.00  0.00    +0.000 N 
ATOM     23  N   UNL     1      -2.041  11.425  20.005  0.00  0.00    +0.000 NA
ATOM     24  C   UNL     1      -1.065  11.049  19.234  0.00  0.00    +0.000 A 
ATOM     25  N   UNL     1       0.166  11.402  19.652  0.00  0.00    +0.000 N 
BRANCH  22  26
ATOM     26  C   UNL     1      -2.176  12.735  22.048  0.00  0.00    +0.000 A 
ATOM     27  C   UNL     1      -2.746  11.953  23.074  0.00  0.00    +0.000 A 
ATOM     28  C   UNL     1      -3.462  12.530  24.129  0.00  0.00    +0.000 A 
ATOM     29  C   UNL     1      -3.635  13.906  24.184  0.00  0.00    +0.000 A 
ATOM     30  C   UNL     1      -3.108  14.703  23.175  0.00  0.00    +0.000 A 
ATOM     31  C   UNL     1      -2.381  14.132  22.113  0.00  0.00    +0.000 A 
ATOM     32 CL   UNL     1      -1.890  15.244  20.874  0.00  0.00    +0.000 Cl
ENDBRANCH  22  26
BRANCH  24  33
ATOM     33  C   UNL     1      -1.336  10.343  17.975  0.00  0.00    +0.000 C 
ATOM     34  C   UNL     1      -2.690   9.807  17.582  0.00  0.00    +0.000 C 
ATOM     35  C   UNL     1      -2.160  11.033  16.908  0.00  0.00    +0.000 C 
ENDBRANCH  24  33
ENDBRANCH  19  25
ENDBRANCH   1  19
TORSDOF 6
ENDMDL
MODEL 9
REMARK VINA RESULT:      -8.9      2.729      4.407
REMARK  Name = 
REMARK  6 active torsions:
REMARK  status: ('A' for Active; 'I' for Inactive)
REMARK    1  A    between atoms: N_3  and  C_4
REMARK    2  A    between atoms: C_12  and  C_13
REMARK    3  A    between atoms: N_16  and  C_17
REMARK    4  A    between atoms: C_17  and  C_18
REMARK    5  A    between atoms: C_21  and  C_22
REMARK    6  A    between atoms: C_27  and  C_28
REMARK                            x       y       z     vdW  Elec       q    Type
REMARK                         _______ _______ _______ _____ _____    ______ ____
ROOT
ATOM      1  C   UNL     1       1.686   8.661  20.147  0.00  0.00    +0.000 A 
ATOM      2  C   UNL     1       2.105   8.419  18.836  0.00  0.00    +0.000 A 
ATOM      3  C   UNL     1       2.357   7.111  18.400  0.00  0.00    +0.000 A 
ATOM      4  C   UNL     1       2.227   6.002  19.259  0.00  0.00    +0.000 A 
ATOM      5  C   UNL     1       1.845   6.277  20.583  0.00  0.00    +0.000 A 
ATOM      6  C   UNL     1       1.536   7.574  21.009  0.00  0.00    +0.000 A 
ENDROOT
BRANCH   4   7
ATOM      7  C   UNL     1       2.505   4.615  18.775  0.00  0.00    +0.000 A 
ATOM      8  C   UNL     1       1.406   3.745  18.567  0.00  0.00    +0.000 A 
ATOM      9  C   UNL     1       1.563   2.430  18.120  0.00  0.00    +0.000 A 
ATOM     10  C   UNL     1       2.828   1.946  17.831  0.00  0.00    +0.000 A 
ATOM     11  C   UNL     1       3.933   2.774  18.003  0.00  0.00    +0.000 A 
ATOM     12  C   UNL     1       3.796   4.095  18.488  0.00  0.00    +0.000 A 
BRANCH  12  13
ATOM     13  C   UNL     1       5.036   4.846  18.654  0.00  0.00    +0.000 A 
ATOM     14  N   UNL     1       5.800   4.748  19.798  0.00  0.00    +0.000 NA
ATOM     15  N   UNL     1       6.882   5.487  19.600  0.00  0.00    +0.000 NA
ATOM     16  N   UNL     1       6.718   6.000  18.376  0.00  0.00    +0.000 N 
ATOM     17  N   UNL     1       5.577   5.681  17.751  0.00  0.00    +0.000 NA
ATOM     18  H   UNL     1       7.431   6.579  17.941  0.00  0.00    +0.000 HD
ENDBRANCH  12  13
ENDBRANCH   4   7
BRANCH   1  19
ATOM     19  C   UNL     1       1.441  10.066  20.632  0.00  0.00    +0.000 C 
BRANCH  19  25
ATOM     20  O   UNL     1      -1.421   9.655  20.468  0.00  0.00    +0.000 OA
ATOM     21  C   UNL     1      -0.859  10.508  19.797  0.00  0.00    +0.000 A 
ATOM     22  N   UNL     1      -1.400  11.367  18.816  0.00  0.00    +0.000 N 
ATOM     23  N   UNL     1      -0.409  12.177  18.320  0.00  0.00    +0.000 NA
ATOM     24  C   UNL     1       0.662  11.802  18.952  0.00  0.00    +0.000 A 
ATOM     25  N   UNL     1       0.486  10.798  19.833  0.00  0.00    +0.000 N 
BRANCH  22  26
ATOM     26  C   UNL     1      -2.751  11.532  18.424  0.00  0.00    +0.000 A 
ATOM     27  C   UNL     1      -3.653  12.146  19.318  0.00  0.00    +0.000 A 
ATOM     28  C   UNL     1      -4.989  12.378  18.973  0.00  0.00    +0.000 A 
ATOM     29  C   UNL     1      -5.464  11.996  17.727  0.00  0.00    +0.000 A 
ATOM     30  C   UNL     1      -4.607  11.365  16.832  0.00  0.00    +0.000 A 
ATOM     31  C   UNL     1      -3.260  11.133  17.167  0.00  0.00    +0.000 A 
ATOM     32 CL   UNL     1      -2.352  10.233  15.993  0.00  0.00    +0.000 Cl
ENDBRANCH  22  26
BRANCH  24  33
ATOM     33  C   UNL     1       1.941  12.489  18.731  0.00  0.00    +0.000 C 
ATOM     34  C   UNL     1       2.067  13.862  18.117  0.00  0.00    +0.000 C 
ATOM     35  C   UNL     1       2.287  13.690  19.587  0.00  0.00    +0.000 C 
ENDBRANCH  24  33
ENDBRANCH  19  25
ENDBRANCH   1  19
TORSDOF 6
ENDMDL
