MODEL 1
REMARK VINA RESULT:      -7.2      0.000      0.000
REMARK  Name = 
REMARK  18 active torsions:
REMARK  status: ('A' for Active; 'I' for Inactive)
REMARK    1  A    between atoms: C_1  and  N_2
REMARK    2  A    between atoms: C_3  and  C_5
REMARK    3  A    between atoms: C_5  and  N_6
REMARK    4  A    between atoms: C_5  and  C_29
REMARK    5  A    between atoms: C_7  and  C_9
REMARK    6  A    between atoms: C_9  and  C_10
REMARK    7  A    between atoms: C_9  and  C_14
REMARK    8  A    between atoms: C_10  and  C_11
REMARK    9  A    between atoms: C_11  and  C_12
REMARK   10  A    between atoms: C_11  and  C_13
REMARK   11  A    between atoms: C_14  and  N_15
REMARK   12  A    between atoms: C_14  and  C_25
REMARK   13  A    between atoms: N_15  and  S_16
REMARK   14  A    between atoms: S_16  and  C_19
REMARK   15  A    between atoms: N_27  and  O_28
REMARK   16  A    between atoms: C_29  and  C_30
REMARK   17  A    between atoms: C_29  and  C_31
REMARK   18  A    between atoms: C_29  and  C_32
REMARK                            x       y       z     vdW  Elec       q    Type
REMARK                         _______ _______ _______ _____ _____    ______ ____
ROOT
ATOM      1  C   UNL     1       3.117   5.432  18.917  0.00  0.00    +0.000 C 
ENDROOT
BRANCH   1   3
ATOM      2  N   UNL     1       2.071   7.556  19.618  0.00  0.00    +0.000 N 
ATOM      3  C   UNL     1       3.072   6.974  18.863  0.00  0.00    +0.000 C 
ATOM      4  O   UNL     1       3.865   7.627  18.192  0.00  0.00    +0.000 OA
ATOM      5  H   UNL     1       1.586   6.968  20.282  0.00  0.00    +0.000 HD
BRANCH   2   6
ATOM      6  C   UNL     1       1.865   9.022  19.764  0.00  0.00    +0.000 C 
BRANCH   6   9
ATOM      7  C   UNL     1      -0.595   8.656  22.691  0.00  0.00    +0.000 C 
ATOM      8  N   UNL     1       0.125   8.459  21.460  0.00  0.00    +0.000 N 
ATOM      9  C   UNL     1       1.103   9.356  21.092  0.00  0.00    +0.000 C 
ATOM     10  O   UNL     1       1.389  10.298  21.829  0.00  0.00    +0.000 OA
ATOM     11  H   UNL     1      -0.185   7.765  20.785  0.00  0.00    +0.000 HD
ENDBRANCH   6   9
BRANCH   6  12
ATOM     12  C   UNL     1       1.149   9.652  18.503  0.00  0.00    +0.000 C 
ATOM     13  C   UNL     1       0.795   8.560  17.457  0.00  0.00    +0.000 C 
ATOM     14  C   UNL     1      -0.192  10.306  18.903  0.00  0.00    +0.000 C 
ATOM     15  C   UNL     1       2.004  10.745  17.820  0.00  0.00    +0.000 C 
ENDBRANCH   6  12
ENDBRANCH   2   6
ENDBRANCH   1   3
BRANCH   1  16
ATOM     16  C   UNL     1       1.853   4.827  18.233  0.00  0.00    +0.000 C 
BRANCH  16  17
ATOM     17  C   UNL     1       0.911   3.925  19.070  0.00  0.00    +0.000 C 
ATOM     18  C   UNL     1       0.963   2.443  18.699  0.00  0.00    +0.000 C 
ATOM     19  C   UNL     1       1.252   4.038  20.566  0.00  0.00    +0.000 C 
ENDBRANCH  16  17
ENDBRANCH   1  16
BRANCH   1  20
ATOM     20  C   UNL     1       4.486   4.879  18.425  0.00  0.00    +0.000 C 
BRANCH  20  21
ATOM     21  C   UNL     1       4.545   3.341  18.540  0.00  0.00    +0.000 C 
ATOM     22  O   UNL     1       4.207   2.579  17.631  0.00  0.00    +0.000 OA
ATOM     23  N   UNL     1       5.046   2.877  19.721  0.00  0.00    +0.000 N 
ATOM     24  H   UNL     1       5.112   3.452  20.564  0.00  0.00    +0.000 HD
BRANCH  23  25
ATOM     25  O   UNL     1       5.103   1.479  19.890  0.00  0.00    +0.000 OA
ATOM     26  H   UNL     1       4.159   1.217  19.819  0.00  0.00    +0.000 HD
ENDBRANCH  23  25
ENDBRANCH  20  21
BRANCH  20  27
ATOM     27  N   UNL     1       4.698   5.267  16.974  0.00  0.00    +0.000 NA
ATOM     28  H   UNL     1       4.199   4.661  16.320  0.00  0.00    +0.000 HD
BRANCH  27  29
ATOM     29  S   UNL     1       6.278   5.626  16.433  0.00  0.00    +0.000 S 
ATOM     30  O   UNL     1       6.366   7.058  16.301  0.00  0.00    +0.000 OA
ATOM     31  O   UNL     1       7.185   4.861  17.264  0.00  0.00    +0.000 OA
BRANCH  29  32
ATOM     32  C   UNL     1       6.374   4.952  14.784  0.00  0.00    +0.000 A 
ATOM     33  C   UNL     1       7.461   5.271  13.961  0.00  0.00    +0.000 A 
ATOM     34  C   UNL     1       7.550   4.710  12.683  0.00  0.00    +0.000 A 
ATOM     35  C   UNL     1       6.566   3.827  12.232  0.00  0.00    +0.000 A 
ATOM     36  C   UNL     1       5.494   3.493  13.055  0.00  0.00    +0.000 A 
ATOM     37  C   UNL     1       5.405   4.042  14.337  0.00  0.00    +0.000 A 
ENDBRANCH  29  32
ENDBRANCH  27  29
ENDBRANCH  20  27
ENDBRANCH   1  20
TORSDOF 12
ENDMDL
MODEL 2
REMARK VINA RESULT:      -6.8      2.157      2.943
REMARK  Name = 
REMARK  18 active torsions:
REMARK  status: ('A' for Active; 'I' for Inactive)
REMARK    1  A    between atoms: C_1  and  N_2
REMARK    2  A    between atoms: C_3  and  C_5
REMARK    3  A    between atoms: C_5  and  N_6
REMARK    4  A    between atoms: C_5  and  C_29
REMARK    5  A    between atoms: C_7  and  C_9
REMARK    6  A    between atoms: C_9  and  C_10
REMARK    7  A    between atoms: C_9  and  C_14
REMARK    8  A    between atoms: C_10  and  C_11
REMARK    9  A    between atoms: C_11  and  C_12
REMARK   10  A    between atoms: C_11  and  C_13
REMARK   11  A    between atoms: C_14  and  N_15
REMARK   12  A    between atoms: C_14  and  C_25
REMARK   13  A    between atoms: N_15  and  S_16
REMARK   14  A    between atoms: S_16  and  C_19
REMARK   15  A    between atoms: N_27  and  O_28
REMARK   16  A    between atoms: C_29  and  C_30
REMARK   17  A    between atoms: C_29  and  C_31
REMARK   18  A    between atoms: C_29  and  C_32
REMARK                            x       y       z     vdW  Elec       q    Type
REMARK                         _______ _______ _______ _____ _____    ______ ____
ROOT
ATOM      1  C   UNL     1       3.116   5.127  19.459  0.00  0.00    +0.000 C 
ENDROOT
BRANCH   1   3
ATOM      2  N   UNL     1       1.906   7.229  19.920  0.00  0.00    +0.000 N 
ATOM      3  C   UNL     1       3.014   6.660  19.319  0.00  0.00    +0.000 C 
ATOM      4  O   UNL     1       3.853   7.318  18.710  0.00  0.00    +0.000 OA
ATOM      5  H   UNL     1       1.372   6.651  20.554  0.00  0.00    +0.000 HD
BRANCH   2   6
ATOM      6  C   UNL     1       1.623   8.689  19.963  0.00  0.00    +0.000 C 
BRANCH   6   9
ATOM      7  C   UNL     1      -0.328  10.739  22.561  0.00  0.00    +0.000 C 
ATOM      8  N   UNL     1       0.624  10.319  21.565  0.00  0.00    +0.000 N 
ATOM      9  C   UNL     1       0.582   9.029  21.084  0.00  0.00    +0.000 C 
ATOM     10  O   UNL     1      -0.288   8.251  21.472  0.00  0.00    +0.000 OA
ATOM     11  H   UNL     1       1.421  10.905  21.332  0.00  0.00    +0.000 HD
ENDBRANCH   6   9
BRANCH   6  12
ATOM     12  C   UNL     1       1.174   9.251  18.555  0.00  0.00    +0.000 C 
ATOM     13  C   UNL     1       2.221  10.252  17.993  0.00  0.00    +0.000 C 
ATOM     14  C   UNL     1       1.077   8.112  17.515  0.00  0.00    +0.000 C 
ATOM     15  C   UNL     1      -0.208   9.943  18.605  0.00  0.00    +0.000 C 
ENDBRANCH   6  12
ENDBRANCH   2   6
ENDBRANCH   1   3
BRANCH   1  16
ATOM     16  C   UNL     1       1.745   4.458  19.139  0.00  0.00    +0.000 C 
BRANCH  16  17
ATOM     17  C   UNL     1       1.463   3.035  19.686  0.00  0.00    +0.000 C 
ATOM     18  C   UNL     1       1.028   2.998  21.150  0.00  0.00    +0.000 C 
ATOM     19  C   UNL     1       0.359   2.353  18.859  0.00  0.00    +0.000 C 
ENDBRANCH  16  17
ENDBRANCH   1  16
BRANCH   1  20
ATOM     20  C   UNL     1       4.345   4.560  18.688  0.00  0.00    +0.000 C 
BRANCH  20  21
ATOM     21  C   UNL     1       4.536   3.054  18.966  0.00  0.00    +0.000 C 
ATOM     22  O   UNL     1       4.998   2.612  20.020  0.00  0.00    +0.000 OA
ATOM     23  N   UNL     1       4.112   2.232  17.963  0.00  0.00    +0.000 N 
ATOM     24  H   UNL     1       3.950   2.555  17.007  0.00  0.00    +0.000 HD
BRANCH  23  25
ATOM     25  O   UNL     1       4.283   0.846  18.154  0.00  0.00    +0.000 OA
ATOM     26  H   UNL     1       3.658   0.462  17.503  0.00  0.00    +0.000 HD
ENDBRANCH  23  25
ENDBRANCH  20  21
BRANCH  20  27
ATOM     27  N   UNL     1       4.145   4.759  17.198  0.00  0.00    +0.000 NA
ATOM     28  H   UNL     1       3.480   4.099  16.791  0.00  0.00    +0.000 HD
BRANCH  27  29
ATOM     29  S   UNL     1       5.512   4.985  16.200  0.00  0.00    +0.000 S 
ATOM     30  O   UNL     1       6.113   3.691  16.005  0.00  0.00    +0.000 OA
ATOM     31  O   UNL     1       5.088   5.824  15.098  0.00  0.00    +0.000 OA
BRANCH  29  32
ATOM     32  C   UNL     1       6.656   5.940  17.182  0.00  0.00    +0.000 A 
ATOM     33  C   UNL     1       6.864   7.294  16.891  0.00  0.00    +0.000 A 
ATOM     34  C   UNL     1       7.734   8.046  17.687  0.00  0.00    +0.000 A 
ATOM     35  C   UNL     1       8.383   7.456  18.773  0.00  0.00    +0.000 A 
ATOM     36  C   UNL     1       8.164   6.115  19.075  0.00  0.00    +0.000 A 
ATOM     37  C   UNL     1       7.289   5.359  18.290  0.00  0.00    +0.000 A 
ENDBRANCH  29  32
ENDBRANCH  27  29
ENDBRANCH  20  27
ENDBRANCH   1  20
TORSDOF 12
ENDMDL
MODEL 3
REMARK VINA RESULT:      -6.7      1.469      1.951
REMARK  Name = 
REMARK  18 active torsions:
REMARK  status: ('A' for Active; 'I' for Inactive)
REMARK    1  A    between atoms: C_1  and  N_2
REMARK    2  A    between atoms: C_3  and  C_5
REMARK    3  A    between atoms: C_5  and  N_6
REMARK    4  A    between atoms: C_5  and  C_29
REMARK    5  A    between atoms: C_7  and  C_9
REMARK    6  A    between atoms: C_9  and  C_10
REMARK    7  A    between atoms: C_9  and  C_14
REMARK    8  A    between atoms: C_10  and  C_11
REMARK    9  A    between atoms: C_11  and  C_12
REMARK   10  A    between atoms: C_11  and  C_13
REMARK   11  A    between atoms: C_14  and  N_15
REMARK   12  A    between atoms: C_14  and  C_25
REMARK   13  A    between atoms: N_15  and  S_16
REMARK   14  A    between atoms: S_16  and  C_19
REMARK   15  A    between atoms: N_27  and  O_28
REMARK   16  A    between atoms: C_29  and  C_30
REMARK   17  A    between atoms: C_29  and  C_31
REMARK   18  A    between atoms: C_29  and  C_32
REMARK                            x       y       z     vdW  Elec       q    Type
REMARK                         _______ _______ _______ _____ _____    ______ ____
ROOT
ATOM      1  C   UNL     1       3.817   5.898  18.637  0.00  0.00    +0.000 C 
ENDROOT
BRANCH   1   3
ATOM      2  N   UNL     1       2.262   7.537  19.632  0.00  0.00    +0.000 N 
ATOM      3  C   UNL     1       3.273   7.340  18.710  0.00  0.00    +0.000 C 
ATOM      4  O   UNL     1       3.705   8.238  17.993  0.00  0.00    +0.000 OA
ATOM      5  H   UNL     1       2.097   6.803  20.307  0.00  0.00    +0.000 HD
BRANCH   2   6
ATOM      6  C   UNL     1       1.621   8.849  19.918  0.00  0.00    +0.000 C 
BRANCH   6   9
ATOM      7  C   UNL     1      -0.271   9.823  23.116  0.00  0.00    +0.000 C 
ATOM      8  N   UNL     1       0.640   9.808  22.002  0.00  0.00    +0.000 N 
ATOM      9  C   UNL     1       0.632   8.743  21.128  0.00  0.00    +0.000 C 
ATOM     10  O   UNL     1      -0.177   7.827  21.276  0.00  0.00    +0.000 OA
ATOM     11  H   UNL     1       1.393  10.488  21.941  0.00  0.00    +0.000 HD
ENDBRANCH   6   9
BRANCH   6  12
ATOM     12  C   UNL     1       0.919   9.461  18.639  0.00  0.00    +0.000 C 
ATOM     13  C   UNL     1       0.631   8.362  17.580  0.00  0.00    +0.000 C 
ATOM     14  C   UNL     1      -0.454  10.068  19.005  0.00  0.00    +0.000 C 
ATOM     15  C   UNL     1       1.756  10.585  17.985  0.00  0.00    +0.000 C 
ENDBRANCH   6  12
ENDBRANCH   2   6
ENDBRANCH   1   3
BRANCH   1  16
ATOM     16  C   UNL     1       2.898   5.015  17.740  0.00  0.00    +0.000 C 
BRANCH  16  17
ATOM     17  C   UNL     1       2.488   3.609  18.249  0.00  0.00    +0.000 C 
ATOM     18  C   UNL     1       0.981   3.410  18.408  0.00  0.00    +0.000 C 
ATOM     19  C   UNL     1       2.998   2.522  17.287  0.00  0.00    +0.000 C 
ENDBRANCH  16  17
ENDBRANCH   1  16
BRANCH   1  20
ATOM     20  C   UNL     1       5.334   5.874  18.288  0.00  0.00    +0.000 C 
BRANCH  20  21
ATOM     21  C   UNL     1       6.154   5.175  19.395  0.00  0.00    +0.000 C 
ATOM     22  O   UNL     1       5.779   4.154  19.973  0.00  0.00    +0.000 OA
ATOM     23  N   UNL     1       7.360   5.753  19.660  0.00  0.00    +0.000 N 
ATOM     24  H   UNL     1       7.595   6.708  19.380  0.00  0.00    +0.000 HD
BRANCH  23  25
ATOM     25  O   UNL     1       8.141   5.170  20.677  0.00  0.00    +0.000 OA
ATOM     26  H   UNL     1       8.791   5.877  20.881  0.00  0.00    +0.000 HD
ENDBRANCH  23  25
ENDBRANCH  20  21
BRANCH  20  27
ATOM     27  N   UNL     1       5.542   5.128  16.984  0.00  0.00    +0.000 NA
ATOM     28  H   UNL     1       5.139   4.190  16.990  0.00  0.00    +0.000 HD
BRANCH  27  29
ATOM     29  S   UNL     1       7.084   5.157  16.249  0.00  0.00    +0.000 S 
ATOM     30  O   UNL     1       7.496   6.535  16.182  0.00  0.00    +0.000 OA
ATOM     31  O   UNL     1       7.875   4.135  16.903  0.00  0.00    +0.000 OA
BRANCH  29  32
ATOM     32  C   UNL     1       6.812   4.621  14.568  0.00  0.00    +0.000 A 
ATOM     33  C   UNL     1       5.711   3.811  14.264  0.00  0.00    +0.000 A 
ATOM     34  C   UNL     1       5.482   3.424  12.940  0.00  0.00    +0.000 A 
ATOM     35  C   UNL     1       6.338   3.853  11.923  0.00  0.00    +0.000 A 
ATOM     36  C   UNL     1       7.423   4.673  12.220  0.00  0.00    +0.000 A 
ATOM     37  C   UNL     1       7.652   5.071  13.540  0.00  0.00    +0.000 A 
ENDBRANCH  29  32
ENDBRANCH  27  29
ENDBRANCH  20  27
ENDBRANCH   1  20
TORSDOF 12
ENDMDL
MODEL 4
REMARK VINA RESULT:      -6.7      5.062      8.553
REMARK  Name = 
REMARK  18 active torsions:
REMARK  status: ('A' for Active; 'I' for Inactive)
REMARK    1  A    between atoms: C_1  and  N_2
REMARK    2  A    between atoms: C_3  and  C_5
REMARK    3  A    between atoms: C_5  and  N_6
REMARK    4  A    between atoms: C_5  and  C_29
REMARK    5  A    between atoms: C_7  and  C_9
REMARK    6  A    between atoms: C_9  and  C_10
REMARK    7  A    between atoms: C_9  and  C_14
REMARK    8  A    between atoms: C_10  and  C_11
REMARK    9  A    between atoms: C_11  and  C_12
REMARK   10  A    between atoms: C_11  and  C_13
REMARK   11  A    between atoms: C_14  and  N_15
REMARK   12  A    between atoms: C_14  and  C_25
REMARK   13  A    between atoms: N_15  and  S_16
REMARK   14  A    between atoms: S_16  and  C_19
REMARK   15  A    between atoms: N_27  and  O_28
REMARK   16  A    between atoms: C_29  and  C_30
REMARK   17  A    between atoms: C_29  and  C_31
REMARK   18  A    between atoms: C_29  and  C_32
REMARK                            x       y       z     vdW  Elec       q    Type
REMARK                         _______ _______ _______ _____ _____    ______ ____
ROOT
ATOM      1  C   UNL     1      -0.271  12.270  20.728  0.00  0.00    +0.000 C 
ENDROOT
BRANCH   1   3
ATOM      2  N   UNL     1      -1.845  13.289  22.335  0.00  0.00    +0.000 N 
ATOM      3  C   UNL     1      -0.859  12.338  22.154  0.00  0.00    +0.000 C 
ATOM      4  O   UNL     1      -0.467  11.604  23.056  0.00  0.00    +0.000 OA
ATOM      5  H   UNL     1      -2.238  13.716  21.507  0.00  0.00    +0.000 HD
BRANCH   2   6
ATOM      6  C   UNL     1      -2.594  13.501  23.603  0.00  0.00    +0.000 C 
BRANCH   6   9
ATOM      7  C   UNL     1      -6.048  12.760  22.096  0.00  0.00    +0.000 C 
ATOM      8  N   UNL     1      -4.713  13.255  22.311  0.00  0.00    +0.000 N 
ATOM      9  C   UNL     1      -4.061  12.965  23.490  0.00  0.00    +0.000 C 
ATOM     10  O   UNL     1      -4.600  12.255  24.338  0.00  0.00    +0.000 OA
ATOM     11  H   UNL     1      -4.309  13.943  21.682  0.00  0.00    +0.000 HD
ENDBRANCH   6   9
BRANCH   6  12
ATOM     12  C   UNL     1      -2.555  15.011  24.071  0.00  0.00    +0.000 C 
ATOM     13  C   UNL     1      -1.382  15.262  25.057  0.00  0.00    +0.000 C 
ATOM     14  C   UNL     1      -2.307  15.952  22.871  0.00  0.00    +0.000 C 
ATOM     15  C   UNL     1      -3.877  15.459  24.737  0.00  0.00    +0.000 C 
ENDBRANCH   6  12
ENDBRANCH   2   6
ENDBRANCH   1   3
BRANCH   1  16
ATOM     16  C   UNL     1       1.240  12.653  20.744  0.00  0.00    +0.000 C 
BRANCH  16  17
ATOM     17  C   UNL     1       1.769  13.649  19.681  0.00  0.00    +0.000 C 
ATOM     18  C   UNL     1       2.163  13.004  18.353  0.00  0.00    +0.000 C 
ATOM     19  C   UNL     1       0.707  14.720  19.376  0.00  0.00    +0.000 C 
ENDBRANCH  16  17
ENDBRANCH   1  16
BRANCH   1  20
ATOM     20  C   UNL     1      -0.625  10.928  20.023  0.00  0.00    +0.000 C 
BRANCH  20  21
ATOM     21  C   UNL     1      -1.169  11.169  18.598  0.00  0.00    +0.000 C 
ATOM     22  O   UNL     1      -1.478  12.282  18.170  0.00  0.00    +0.000 OA
ATOM     23  N   UNL     1      -1.245  10.050  17.822  0.00  0.00    +0.000 N 
ATOM     24  H   UNL     1      -1.226   9.102  18.204  0.00  0.00    +0.000 HD
BRANCH  23  25
ATOM     25  O   UNL     1      -1.756  10.207  16.518  0.00  0.00    +0.000 OA
ATOM     26  H   UNL     1      -2.408   9.477  16.454  0.00  0.00    +0.000 HD
ENDBRANCH  23  25
ENDBRANCH  20  21
BRANCH  20  27
ATOM     27  N   UNL     1       0.616  10.061  19.931  0.00  0.00    +0.000 NA
ATOM     28  H   UNL     1       0.805   9.733  18.982  0.00  0.00    +0.000 HD
BRANCH  27  29
ATOM     29  S   UNL     1       0.858   8.832  21.092  0.00  0.00    +0.000 S 
ATOM     30  O   UNL     1       1.783   9.348  22.068  0.00  0.00    +0.000 OA
ATOM     31  O   UNL     1      -0.454   8.332  21.447  0.00  0.00    +0.000 OA
BRANCH  29  32
ATOM     32  C   UNL     1       1.706   7.525  20.222  0.00  0.00    +0.000 A 
ATOM     33  C   UNL     1       1.726   6.231  20.755  0.00  0.00    +0.000 A 
ATOM     34  C   UNL     1       2.360   5.203  20.051  0.00  0.00    +0.000 A 
ATOM     35  C   UNL     1       2.960   5.461  18.816  0.00  0.00    +0.000 A 
ATOM     36  C   UNL     1       2.926   6.743  18.275  0.00  0.00    +0.000 A 
ATOM     37  C   UNL     1       2.285   7.773  18.969  0.00  0.00    +0.000 A 
ENDBRANCH  29  32
ENDBRANCH  27  29
ENDBRANCH  20  27
ENDBRANCH   1  20
TORSDOF 12
ENDMDL
MODEL 5
REMARK VINA RESULT:      -6.7      7.988     12.149
REMARK  Name = 
REMARK  18 active torsions:
REMARK  status: ('A' for Active; 'I' for Inactive)
REMARK    1  A    between atoms: C_1  and  N_2
REMARK    2  A    between atoms: C_3  and  C_5
REMARK    3  A    between atoms: C_5  and  N_6
REMARK    4  A    between atoms: C_5  and  C_29
REMARK    5  A    between atoms: C_7  and  C_9
REMARK    6  A    between atoms: C_9  and  C_10
REMARK    7  A    between atoms: C_9  and  C_14
REMARK    8  A    between atoms: C_10  and  C_11
REMARK    9  A    between atoms: C_11  and  C_12
REMARK   10  A    between atoms: C_11  and  C_13
REMARK   11  A    between atoms: C_14  and  N_15
REMARK   12  A    between atoms: C_14  and  C_25
REMARK   13  A    between atoms: N_15  and  S_16
REMARK   14  A    between atoms: S_16  and  C_19
REMARK   15  A    between atoms: N_27  and  O_28
REMARK   16  A    between atoms: C_29  and  C_30
REMARK   17  A    between atoms: C_29  and  C_31
REMARK   18  A    between atoms: C_29  and  C_32
REMARK                            x       y       z     vdW  Elec       q    Type
REMARK                         _______ _______ _______ _____ _____    ______ ____
ROOT
ATOM      1  C   UNL     1      -1.210  13.252  21.061  0.00  0.00    +0.000 C 
ENDROOT
BRANCH   1   3
ATOM      2  N   UNL     1      -2.643  12.194  19.351  0.00  0.00    +0.000 N 
ATOM      3  C   UNL     1      -1.547  13.007  19.575  0.00  0.00    +0.000 C 
ATOM      4  O   UNL     1      -0.881  13.493  18.666  0.00  0.00    +0.000 OA
ATOM      5  H   UNL     1      -3.242  11.992  20.139  0.00  0.00    +0.000 HD
BRANCH   2   6
ATOM      6  C   UNL     1      -3.189  11.861  18.007  0.00  0.00    +0.000 C 
BRANCH   6   9
ATOM      7  C   UNL     1      -6.793  12.083  19.316  0.00  0.00    +0.000 C 
ATOM      8  N   UNL     1      -5.363  11.947  19.228  0.00  0.00    +0.000 N 
ATOM      9  C   UNL     1      -4.753  11.959  17.993  0.00  0.00    +0.000 C 
ATOM     10  O   UNL     1      -5.421  12.125  16.973  0.00  0.00    +0.000 OA
ATOM     11  H   UNL     1      -4.817  11.683  20.043  0.00  0.00    +0.000 HD
ENDBRANCH   6   9
BRANCH   6  12
ATOM     12  C   UNL     1      -2.685  10.454  17.491  0.00  0.00    +0.000 C 
ATOM     13  C   UNL     1      -2.537  10.446  15.945  0.00  0.00    +0.000 C 
ATOM     14  C   UNL     1      -1.280  10.136  18.052  0.00  0.00    +0.000 C 
ATOM     15  C   UNL     1      -3.619   9.297  17.915  0.00  0.00    +0.000 C 
ENDBRANCH   6  12
ENDBRANCH   2   6
ENDBRANCH   1   3
BRANCH   1  16
ATOM     16  C   UNL     1      -1.598  14.703  21.475  0.00  0.00    +0.000 C 
BRANCH  16  17
ATOM     17  C   UNL     1      -0.477  15.677  21.921  0.00  0.00    +0.000 C 
ATOM     18  C   UNL     1       0.906  15.037  22.034  0.00  0.00    +0.000 C 
ATOM     19  C   UNL     1      -0.363  16.851  20.933  0.00  0.00    +0.000 C 
ENDBRANCH  16  17
ENDBRANCH   1  16
BRANCH   1  20
ATOM     20  C   UNL     1      -1.761  12.115  21.970  0.00  0.00    +0.000 C 
BRANCH  20  21
ATOM     21  C   UNL     1      -0.638  11.149  22.405  0.00  0.00    +0.000 C 
ATOM     22  O   UNL     1       0.506  11.190  21.948  0.00  0.00    +0.000 OA
ATOM     23  N   UNL     1      -0.995  10.261  23.377  0.00  0.00    +0.000 N 
ATOM     24  H   UNL     1      -1.968  10.043  23.604  0.00  0.00    +0.000 HD
BRANCH  23  25
ATOM     25  O   UNL     1      -0.014   9.340  23.796  0.00  0.00    +0.000 OA
ATOM     26  H   UNL     1       0.121   8.791  22.994  0.00  0.00    +0.000 HD
ENDBRANCH  23  25
ENDBRANCH  20  21
BRANCH  20  27
ATOM     27  N   UNL     1      -2.391  12.718  23.211  0.00  0.00    +0.000 NA
ATOM     28  H   UNL     1      -1.916  12.447  24.074  0.00  0.00    +0.000 HD
BRANCH  27  29
ATOM     29  S   UNL     1      -4.090  12.684  23.379  0.00  0.00    +0.000 S 
ATOM     30  O   UNL     1      -4.642  12.487  22.064  0.00  0.00    +0.000 OA
ATOM     31  O   UNL     1      -4.380  11.800  24.489  0.00  0.00    +0.000 OA
BRANCH  29  32
ATOM     32  C   UNL     1      -4.544  14.335  23.885  0.00  0.00    +0.000 A 
ATOM     33  C   UNL     1      -3.617  15.137  24.562  0.00  0.00    +0.000 A 
ATOM     34  C   UNL     1      -3.966  16.442  24.923  0.00  0.00    +0.000 A 
ATOM     35  C   UNL     1      -5.227  16.949  24.600  0.00  0.00    +0.000 A 
ATOM     36  C   UNL     1      -6.143  16.160  23.910  0.00  0.00    +0.000 A 
ATOM     37  C   UNL     1      -5.798  14.858  23.538  0.00  0.00    +0.000 A 
ENDBRANCH  29  32
ENDBRANCH  27  29
ENDBRANCH  20  27
ENDBRANCH   1  20
TORSDOF 12
ENDMDL
MODEL 6
REMARK VINA RESULT:      -6.5      2.227      5.378
REMARK  Name = 
REMARK  18 active torsions:
REMARK  status: ('A' for Active; 'I' for Inactive)
REMARK    1  A    between atoms: C_1  and  N_2
REMARK    2  A    between atoms: C_3  and  C_5
REMARK    3  A    between atoms: C_5  and  N_6
REMARK    4  A    between atoms: C_5  and  C_29
REMARK    5  A    between atoms: C_7  and  C_9
REMARK    6  A    between atoms: C_9  and  C_10
REMARK    7  A    between atoms: C_9  and  C_14
REMARK    8  A    between atoms: C_10  and  C_11
REMARK    9  A    between atoms: C_11  and  C_12
REMARK   10  A    between atoms: C_11  and  C_13
REMARK   11  A    between atoms: C_14  and  N_15
REMARK   12  A    between atoms: C_14  and  C_25
REMARK   13  A    between atoms: N_15  and  S_16
REMARK   14  A    between atoms: S_16  and  C_19
REMARK   15  A    between atoms: N_27  and  O_28
REMARK   16  A    between atoms: C_29  and  C_30
REMARK   17  A    between atoms: C_29  and  C_31
REMARK   18  A    between atoms: C_29  and  C_32
REMARK                            x       y       z     vdW  Elec       q    Type
REMARK                         _______ _______ _______ _____ _____    ______ ____
ROOT
ATOM      1  C   UNL     1       4.248   6.130  17.475  0.00  0.00    +0.000 C 
ENDROOT
BRANCH   1   3
ATOM      2  N   UNL     1       2.720   7.708  18.603  0.00  0.00    +0.000 N 
ATOM      3  C   UNL     1       2.832   6.480  17.978  0.00  0.00    +0.000 C 
ATOM      4  O   UNL     1       1.882   5.716  17.837  0.00  0.00    +0.000 OA
ATOM      5  H   UNL     1       3.496   8.350  18.512  0.00  0.00    +0.000 HD
BRANCH   2   6
ATOM      6  C   UNL     1       1.448   8.282  19.120  0.00  0.00    +0.000 C 
BRANCH   6   9
ATOM      7  C   UNL     1      -0.149  11.744  18.655  0.00  0.00    +0.000 C 
ATOM      8  N   UNL     1       0.068  10.353  18.958  0.00  0.00    +0.000 N 
ATOM      9  C   UNL     1       1.296   9.785  18.703  0.00  0.00    +0.000 C 
ATOM     10  O   UNL     1       2.215  10.469  18.255  0.00  0.00    +0.000 OA
ATOM     11  H   UNL     1      -0.711   9.750  19.205  0.00  0.00    +0.000 HD
ENDBRANCH   6   9
BRANCH   6  12
ATOM     12  C   UNL     1       1.299   8.089  20.683  0.00  0.00    +0.000 C 
ATOM     13  C   UNL     1      -0.196   8.040  21.100  0.00  0.00    +0.000 C 
ATOM     14  C   UNL     1       1.907   6.741  21.129  0.00  0.00    +0.000 C 
ATOM     15  C   UNL     1       2.011   9.201  21.488  0.00  0.00    +0.000 C 
ENDBRANCH   6  12
ENDBRANCH   2   6
ENDBRANCH   1   3
BRANCH   1  16
ATOM     16  C   UNL     1       5.271   6.186  18.650  0.00  0.00    +0.000 C 
BRANCH  16  17
ATOM     17  C   UNL     1       6.781   6.026  18.333  0.00  0.00    +0.000 C 
ATOM     18  C   UNL     1       7.435   7.272  17.736  0.00  0.00    +0.000 C 
ATOM     19  C   UNL     1       7.559   5.662  19.609  0.00  0.00    +0.000 C 
ENDBRANCH  16  17
ENDBRANCH   1  16
BRANCH   1  20
ATOM     20  C   UNL     1       4.252   4.822  16.632  0.00  0.00    +0.000 C 
BRANCH  20  21
ATOM     21  C   UNL     1       5.316   4.877  15.514  0.00  0.00    +0.000 C 
ATOM     22  O   UNL     1       5.715   5.928  15.010  0.00  0.00    +0.000 OA
ATOM     23  N   UNL     1       5.821   3.663  15.149  0.00  0.00    +0.000 N 
ATOM     24  H   UNL     1       5.359   2.778  15.367  0.00  0.00    +0.000 HD
BRANCH  23  25
ATOM     25  O   UNL     1       6.779   3.652  14.116  0.00  0.00    +0.000 OA
ATOM     26  H   UNL     1       6.758   2.719  13.814  0.00  0.00    +0.000 HD
ENDBRANCH  23  25
ENDBRANCH  20  21
BRANCH  20  27
ATOM     27  N   UNL     1       4.553   3.639  17.533  0.00  0.00    +0.000 NA
ATOM     28  H   UNL     1       5.505   3.285  17.424  0.00  0.00    +0.000 HD
BRANCH  27  29
ATOM     29  S   UNL     1       3.411   2.375  17.652  0.00  0.00    +0.000 S 
ATOM     30  O   UNL     1       2.412   2.610  16.643  0.00  0.00    +0.000 OA
ATOM     31  O   UNL     1       4.165   1.141  17.732  0.00  0.00    +0.000 OA
BRANCH  29  32
ATOM     32  C   UNL     1       2.614   2.611  19.231  0.00  0.00    +0.000 A 
ATOM     33  C   UNL     1       3.366   2.542  20.410  0.00  0.00    +0.000 A 
ATOM     34  C   UNL     1       2.743   2.765  21.642  0.00  0.00    +0.000 A 
ATOM     35  C   UNL     1       1.380   3.066  21.697  0.00  0.00    +0.000 A 
ATOM     36  C   UNL     1       0.634   3.153  20.525  0.00  0.00    +0.000 A 
ATOM     37  C   UNL     1       1.252   2.942  19.290  0.00  0.00    +0.000 A 
ENDBRANCH  29  32
ENDBRANCH  27  29
ENDBRANCH  20  27
ENDBRANCH   1  20
TORSDOF 12
ENDMDL
MODEL 7
REMARK VINA RESULT:      -6.5      6.286      9.405
REMARK  Name = 
REMARK  18 active torsions:
REMARK  status: ('A' for Active; 'I' for Inactive)
REMARK    1  A    between atoms: C_1  and  N_2
REMARK    2  A    between atoms: C_3  and  C_5
REMARK    3  A    between atoms: C_5  and  N_6
REMARK    4  A    between atoms: C_5  and  C_29
REMARK    5  A    between atoms: C_7  and  C_9
REMARK    6  A    between atoms: C_9  and  C_10
REMARK    7  A    between atoms: C_9  and  C_14
REMARK    8  A    between atoms: C_10  and  C_11
REMARK    9  A    between atoms: C_11  and  C_12
REMARK   10  A    between atoms: C_11  and  C_13
REMARK   11  A    between atoms: C_14  and  N_15
REMARK   12  A    between atoms: C_14  and  C_25
REMARK   13  A    between atoms: N_15  and  S_16
REMARK   14  A    between atoms: S_16  and  C_19
REMARK   15  A    between atoms: N_27  and  O_28
REMARK   16  A    between atoms: C_29  and  C_30
REMARK   17  A    between atoms: C_29  and  C_31
REMARK   18  A    between atoms: C_29  and  C_32
REMARK                            x       y       z     vdW  Elec       q    Type
REMARK                         _______ _______ _______ _____ _____    ______ ____
ROOT
ATOM      1  C   UNL     1      -0.866  11.038  20.102  0.00  0.00    +0.000 C 
ENDROOT
BRANCH   1   3
ATOM      2  N   UNL     1      -2.280  12.361  21.634  0.00  0.00    +0.000 N 
ATOM      3  C   UNL     1      -1.205  11.498  21.536  0.00  0.00    +0.000 C 
ATOM      4  O   UNL     1      -0.557  11.127  22.510  0.00  0.00    +0.000 OA
ATOM      5  H   UNL     1      -2.870  12.465  20.820  0.00  0.00    +0.000 HD
BRANCH   2   6
ATOM      6  C   UNL     1      -2.824  12.893  22.913  0.00  0.00    +0.000 C 
BRANCH   6   9
ATOM      7  C   UNL     1      -6.487  12.391  21.871  0.00  0.00    +0.000 C 
ATOM      8  N   UNL     1      -5.078  12.687  21.864  0.00  0.00    +0.000 N 
ATOM      9  C   UNL     1      -4.359  12.606  23.037  0.00  0.00    +0.000 C 
ATOM     10  O   UNL     1      -4.909  12.244  24.076  0.00  0.00    +0.000 OA
ATOM     11  H   UNL     1      -4.642  13.108  21.049  0.00  0.00    +0.000 HD
ENDBRANCH   6   9
BRANCH   6  12
ATOM     12  C   UNL     1      -2.497  14.428  23.106  0.00  0.00    +0.000 C 
ATOM     13  C   UNL     1      -3.489  15.091  24.100  0.00  0.00    +0.000 C 
ATOM     14  C   UNL     1      -1.092  14.616  23.723  0.00  0.00    +0.000 C 
ATOM     15  C   UNL     1      -2.520  15.212  21.774  0.00  0.00    +0.000 C 
ENDBRANCH   6  12
ENDBRANCH   2   6
ENDBRANCH   1   3
BRANCH   1  16
ATOM     16  C   UNL     1      -1.858  11.671  19.080  0.00  0.00    +0.000 C 
BRANCH  16  17
ATOM     17  C   UNL     1      -2.733  10.732  18.210  0.00  0.00    +0.000 C 
ATOM     18  C   UNL     1      -3.906  11.425  17.518  0.00  0.00    +0.000 C 
ATOM     19  C   UNL     1      -1.881  10.065  17.117  0.00  0.00    +0.000 C 
ENDBRANCH  16  17
ENDBRANCH   1  16
BRANCH   1  20
ATOM     20  C   UNL     1       0.647  11.218  19.783  0.00  0.00    +0.000 C 
BRANCH  20  21
ATOM     21  C   UNL     1       1.241   9.945  19.142  0.00  0.00    +0.000 C 
ATOM     22  O   UNL     1       1.254   8.847  19.702  0.00  0.00    +0.000 OA
ATOM     23  N   UNL     1       1.719  10.115  17.876  0.00  0.00    +0.000 N 
ATOM     24  H   UNL     1       1.937  11.032  17.480  0.00  0.00    +0.000 HD
BRANCH  23  25
ATOM     25  O   UNL     1       2.293   8.990  17.251  0.00  0.00    +0.000 OA
ATOM     26  H   UNL     1       1.742   8.889  16.445  0.00  0.00    +0.000 HD
ENDBRANCH  23  25
ENDBRANCH  20  21
BRANCH  20  27
ATOM     27  N   UNL     1       0.828  12.377  18.822  0.00  0.00    +0.000 NA
ATOM     28  H   UNL     1       0.780  12.095  17.841  0.00  0.00    +0.000 HD
BRANCH  27  29
ATOM     29  S   UNL     1       2.082  13.501  19.104  0.00  0.00    +0.000 S 
ATOM     30  O   UNL     1       2.353  13.488  20.518  0.00  0.00    +0.000 OA
ATOM     31  O   UNL     1       3.104  13.240  18.111  0.00  0.00    +0.000 OA
BRANCH  29  32
ATOM     32  C   UNL     1       1.375  15.096  18.730  0.00  0.00    +0.000 A 
ATOM     33  C   UNL     1       0.004  15.312  18.915  0.00  0.00    +0.000 A 
ATOM     34  C   UNL     1      -0.538  16.575  18.656  0.00  0.00    +0.000 A 
ATOM     35  C   UNL     1       0.283  17.620  18.227  0.00  0.00    +0.000 A 
ATOM     36  C   UNL     1       1.650  17.413  18.061  0.00  0.00    +0.000 A 
ATOM     37  C   UNL     1       2.200  16.156  18.327  0.00  0.00    +0.000 A 
ENDBRANCH  29  32
ENDBRANCH  27  29
ENDBRANCH  20  27
ENDBRANCH   1  20
TORSDOF 12
ENDMDL
MODEL 8
REMARK VINA RESULT:      -6.4      5.190      8.787
REMARK  Name = 
REMARK  18 active torsions:
REMARK  status: ('A' for Active; 'I' for Inactive)
REMARK    1  A    between atoms: C_1  and  N_2
REMARK    2  A    between atoms: C_3  and  C_5
REMARK    3  A    between atoms: C_5  and  N_6
REMARK    4  A    between atoms: C_5  and  C_29
REMARK    5  A    between atoms: C_7  and  C_9
REMARK    6  A    between atoms: C_9  and  C_10
REMARK    7  A    between atoms: C_9  and  C_14
REMARK    8  A    between atoms: C_10  and  C_11
REMARK    9  A    between atoms: C_11  and  C_12
REMARK   10  A    between atoms: C_11  and  C_13
REMARK   11  A    between atoms: C_14  and  N_15
REMARK   12  A    between atoms: C_14  and  C_25
REMARK   13  A    between atoms: N_15  and  S_16
REMARK   14  A    between atoms: S_16  and  C_19
REMARK   15  A    between atoms: N_27  and  O_28
REMARK   16  A    between atoms: C_29  and  C_30
REMARK   17  A    between atoms: C_29  and  C_31
REMARK   18  A    between atoms: C_29  and  C_32
REMARK                            x       y       z     vdW  Elec       q    Type
REMARK                         _______ _______ _______ _____ _____    ______ ____
ROOT
ATOM      1  C   UNL     1      -0.785  12.523  20.400  0.00  0.00    +0.000 C 
ENDROOT
BRANCH   1   3
ATOM      2  N   UNL     1      -2.854  13.376  21.442  0.00  0.00    +0.000 N 
ATOM      3  C   UNL     1      -1.665  12.702  21.654  0.00  0.00    +0.000 C 
ATOM      4  O   UNL     1      -1.325  12.283  22.756  0.00  0.00    +0.000 OA
ATOM      5  H   UNL     1      -3.144  13.520  20.485  0.00  0.00    +0.000 HD
BRANCH   2   6
ATOM      6  C   UNL     1      -3.885  13.621  22.486  0.00  0.00    +0.000 C 
BRANCH   6   9
ATOM      7  C   UNL     1      -6.529  11.668  20.500  0.00  0.00    +0.000 C 
ATOM      8  N   UNL     1      -5.377  12.448  20.867  0.00  0.00    +0.000 N 
ATOM      9  C   UNL     1      -5.198  12.823  22.180  0.00  0.00    +0.000 C 
ATOM     10  O   UNL     1      -5.998  12.460  23.042  0.00  0.00    +0.000 OA
ATOM     11  H   UNL     1      -4.782  12.859  20.153  0.00  0.00    +0.000 HD
ENDBRANCH   6   9
BRANCH   6  12
ATOM     12  C   UNL     1      -4.171  15.163  22.692  0.00  0.00    +0.000 C 
ATOM     13  C   UNL     1      -4.852  15.427  24.062  0.00  0.00    +0.000 C 
ATOM     14  C   UNL     1      -2.851  15.967  22.713  0.00  0.00    +0.000 C 
ATOM     15  C   UNL     1      -5.050  15.759  21.568  0.00  0.00    +0.000 C 
ENDBRANCH   6  12
ENDBRANCH   2   6
ENDBRANCH   1   3
BRANCH   1  16
ATOM     16  C   UNL     1       0.595  13.220  20.599  0.00  0.00    +0.000 C 
BRANCH  16  17
ATOM     17  C   UNL     1       1.145  14.125  19.467  0.00  0.00    +0.000 C 
ATOM     18  C   UNL     1       1.910  13.376  18.377  0.00  0.00    +0.000 C 
ATOM     19  C   UNL     1      -0.005  14.887  18.785  0.00  0.00    +0.000 C 
ENDBRANCH  16  17
ENDBRANCH   1  16
BRANCH   1  20
ATOM     20  C   UNL     1      -0.735  11.036  19.940  0.00  0.00    +0.000 C 
BRANCH  20  21
ATOM     21  C   UNL     1      -1.041  10.904  18.432  0.00  0.00    +0.000 C 
ATOM     22  O   UNL     1      -0.709   9.928  17.757  0.00  0.00    +0.000 OA
ATOM     23  N   UNL     1      -1.753  11.940  17.903  0.00  0.00    +0.000 N 
ATOM     24  H   UNL     1      -1.837  12.851  18.360  0.00  0.00    +0.000 HD
BRANCH  23  25
ATOM     25  O   UNL     1      -2.042  11.882  16.525  0.00  0.00    +0.000 OA
ATOM     26  H   UNL     1      -1.474  12.594  16.158  0.00  0.00    +0.000 HD
ENDBRANCH  23  25
ENDBRANCH  20  21
BRANCH  20  27
ATOM     27  N   UNL     1       0.645  10.468  20.208  0.00  0.00    +0.000 NA
ATOM     28  H   UNL     1       1.217  10.390  19.366  0.00  0.00    +0.000 HD
BRANCH  27  29
ATOM     29  S   UNL     1       0.797   9.095  21.213  0.00  0.00    +0.000 S 
ATOM     30  O   UNL     1       1.727   9.436  22.258  0.00  0.00    +0.000 OA
ATOM     31  O   UNL     1      -0.547   8.629  21.484  0.00  0.00    +0.000 OA
BRANCH  29  32
ATOM     32  C   UNL     1       1.592   7.859  20.200  0.00  0.00    +0.000 A 
ATOM     33  C   UNL     1       2.115   8.212  18.950  0.00  0.00    +0.000 A 
ATOM     34  C   UNL     1       2.770   7.249  18.177  0.00  0.00    +0.000 A 
ATOM     35  C   UNL     1       2.913   5.943  18.653  0.00  0.00    +0.000 A 
ATOM     36  C   UNL     1       2.411   5.594  19.903  0.00  0.00    +0.000 A 
ATOM     37  C   UNL     1       1.764   6.555  20.685  0.00  0.00    +0.000 A 
ENDBRANCH  29  32
ENDBRANCH  27  29
ENDBRANCH  20  27
ENDBRANCH   1  20
TORSDOF 12
ENDMDL
MODEL 9
REMARK VINA RESULT:      -6.4      1.100      1.575
REMARK  Name = 
REMARK  18 active torsions:
REMARK  status: ('A' for Active; 'I' for Inactive)
REMARK    1  A    between atoms: C_1  and  N_2
REMARK    2  A    between atoms: C_3  and  C_5
REMARK    3  A    between atoms: C_5  and  N_6
REMARK    4  A    between atoms: C_5  and  C_29
REMARK    5  A    between atoms: C_7  and  C_9
REMARK    6  A    between atoms: C_9  and  C_10
REMARK    7  A    between atoms: C_9  and  C_14
REMARK    8  A    between atoms: C_10  and  C_11
REMARK    9  A    between atoms: C_11  and  C_12
REMARK   10  A    between atoms: C_11  and  C_13
REMARK   11  A    between atoms: C_14  and  N_15
REMARK   12  A    between atoms: C_14  and  C_25
REMARK   13  A    between atoms: N_15  and  S_16
REMARK   14  A    between atoms: S_16  and  C_19
REMARK   15  A    between atoms: N_27  and  O_28
REMARK   16  A    between atoms: C_29  and  C_30
REMARK   17  A    between atoms: C_29  and  C_31
REMARK   18  A    between atoms: C_29  and  C_32
REMARK                            x       y       z     vdW  Elec       q    Type
REMARK                         _______ _______ _______ _____ _____    ______ ____
ROOT
ATOM      1  C   UNL     1       2.798   5.462  19.107  0.00  0.00    +0.000 C 
ENDROOT
BRANCH   1   3
ATOM      2  N   UNL     1       1.725   7.567  19.823  0.00  0.00    +0.000 N 
ATOM      3  C   UNL     1       2.785   7.004  19.136  0.00  0.00    +0.000 C 
ATOM      4  O   UNL     1       3.649   7.676  18.581  0.00  0.00    +0.000 OA
ATOM      5  H   UNL     1       1.169   6.954  20.405  0.00  0.00    +0.000 HD
BRANCH   2   6
ATOM      6  C   UNL     1       1.531   9.027  20.032  0.00  0.00    +0.000 C 
BRANCH   6   9
ATOM      7  C   UNL     1      -0.550  10.971  22.609  0.00  0.00    +0.000 C 
ATOM      8  N   UNL     1       0.309  10.624  21.508  0.00  0.00    +0.000 N 
ATOM      9  C   UNL     1       0.636   9.304  21.288  0.00  0.00    +0.000 C 
ATOM     10  O   UNL     1       0.165   8.422  22.004  0.00  0.00    +0.000 OA
ATOM     11  H   UNL     1       0.805  11.346  20.992  0.00  0.00    +0.000 HD
ENDBRANCH   6   9
BRANCH   6  12
ATOM     12  C   UNL     1       0.966   9.743  18.740  0.00  0.00    +0.000 C 
ATOM     13  C   UNL     1      -0.560  10.002  18.865  0.00  0.00    +0.000 C 
ATOM     14  C   UNL     1       1.616  11.133  18.555  0.00  0.00    +0.000 C 
ATOM     15  C   UNL     1       1.237   8.937  17.448  0.00  0.00    +0.000 C 
ENDBRANCH   6  12
ENDBRANCH   2   6
ENDBRANCH   1   3
BRANCH   1  16
ATOM     16  C   UNL     1       1.891   4.932  17.956  0.00  0.00    +0.000 C 
BRANCH  16  17
ATOM     17  C   UNL     1       1.121   3.602  18.164  0.00  0.00    +0.000 C 
ATOM     18  C   UNL     1       1.940   2.346  17.868  0.00  0.00    +0.000 C 
ATOM     19  C   UNL     1       0.620   3.496  19.615  0.00  0.00    +0.000 C 
ENDBRANCH  16  17
ENDBRANCH   1  16
BRANCH   1  20
ATOM     20  C   UNL     1       4.249   4.899  19.143  0.00  0.00    +0.000 C 
BRANCH  20  21
ATOM     21  C   UNL     1       4.316   3.567  19.922  0.00  0.00    +0.000 C 
ATOM     22  O   UNL     1       3.579   3.301  20.874  0.00  0.00    +0.000 OA
ATOM     23  N   UNL     1       5.233   2.676  19.448  0.00  0.00    +0.000 N 
ATOM     24  H   UNL     1       6.004   2.943  18.832  0.00  0.00    +0.000 HD
BRANCH  23  25
ATOM     25  O   UNL     1       5.353   1.452  20.136  0.00  0.00    +0.000 OA
ATOM     26  H   UNL     1       6.216   1.111  19.817  0.00  0.00    +0.000 HD
ENDBRANCH  23  25
ENDBRANCH  20  21
BRANCH  20  27
ATOM     27  N   UNL     1       4.735   4.659  17.726  0.00  0.00    +0.000 NA
ATOM     28  H   UNL     1       4.549   3.711  17.394  0.00  0.00    +0.000 HD
BRANCH  27  29
ATOM     29  S   UNL     1       6.294   5.196  17.282  0.00  0.00    +0.000 S 
ATOM     30  O   UNL     1       6.291   6.633  17.381  0.00  0.00    +0.000 OA
ATOM     31  O   UNL     1       7.240   4.366  17.998  0.00  0.00    +0.000 OA
BRANCH  29  32
ATOM     32  C   UNL     1       6.449   4.802  15.548  0.00  0.00    +0.000 A 
ATOM     33  C   UNL     1       5.455   4.048  14.913  0.00  0.00    +0.000 A 
ATOM     34  C   UNL     1       5.563   3.773  13.546  0.00  0.00    +0.000 A 
ATOM     35  C   UNL     1       6.650   4.258  12.814  0.00  0.00    +0.000 A 
ATOM     36  C   UNL     1       7.630   5.023  13.440  0.00  0.00    +0.000 A 
ATOM     37  C   UNL     1       7.523   5.310  14.803  0.00  0.00    +0.000 A 
ENDBRANCH  29  32
ENDBRANCH  27  29
ENDBRANCH  20  27
ENDBRANCH   1  20
TORSDOF 12
ENDMDL
