MODEL 1
REMARK VINA RESULT:      -7.9      0.000      0.000
REMARK  Name = 
REMARK  5 active torsions:
REMARK  status: ('A' for Active; 'I' for Inactive)
REMARK    1  A    between atoms: C_2  and  C_14
REMARK    2  A    between atoms: N_3  and  S_4
REMARK    3  A    between atoms: S_4  and  C_7
REMARK    4  A    between atoms: C_7  and  C_8
REMARK    5  A    between atoms: C_17  and  C_18
REMARK                            x       y       z     vdW  Elec       q    Type
REMARK                         _______ _______ _______ _____ _____    ______ ____
ROOT
ATOM      1  O   UNL     1       5.623   6.135  17.789  0.00  0.00    +0.000 OA
ATOM      2  C   UNL     1       5.295   4.938  17.753  0.00  0.00    +0.000 C 
ATOM      3  N   UNL     1       5.601   4.125  16.645  0.00  0.00    +0.000 N 
ATOM      4  H   UNL     1       5.349   3.142  16.597  0.00  0.00    +0.000 HD
ENDROOT
BRANCH   2   5
ATOM      5  C   UNL     1       4.599   4.278  18.934  0.00  0.00    +0.000 C 
ATOM      6  C   UNL     1       3.620   5.216  19.653  0.00  0.00    +0.000 C 
ATOM      7  C   UNL     1       2.292   5.398  18.918  0.00  0.00    +0.000 C 
ATOM      8  C   UNL     1       1.633   4.067  18.516  0.00  0.00    +0.000 C 
ATOM      9  C   UNL     1       2.611   3.103  17.818  0.00  0.00    +0.000 C 
ATOM     10  C   UNL     1       3.939   2.948  18.562  0.00  0.00    +0.000 C 
BRANCH   8  11
ATOM     11  C   UNL     1       0.968   3.392  19.719  0.00  0.00    +0.000 C 
ATOM     12  F   UNL     1       1.854   2.733  20.492  0.00  0.00    +0.000 F 
ATOM     13  F   UNL     1       0.355   4.309  20.499  0.00  0.00    +0.000 F 
ATOM     14  F   UNL     1       0.030   2.499  19.338  0.00  0.00    +0.000 F 
ENDBRANCH   8  11
ENDBRANCH   2   5
BRANCH   3  15
ATOM     15  S   UNL     1       6.352   4.719  15.281  0.00  0.00    +0.000 S 
ATOM     16  O   UNL     1       5.565   5.846  14.814  0.00  0.00    +0.000 OA
ATOM     17  O   UNL     1       7.748   4.863  15.597  0.00  0.00    +0.000 OA
BRANCH  15  18
ATOM     18  C   UNL     1       6.130   3.387  14.089  0.00  0.00    +0.000 C 
BRANCH  18  19
ATOM     19  C   UNL     1       5.979   3.950  12.659  0.00  0.00    +0.000 C 
ATOM     20  C   UNL     1       7.304   3.936  11.880  0.00  0.00    +0.000 C 
ATOM     21  C   UNL     1       7.758   2.532  11.500  0.00  0.00    +0.000 C 
ATOM     22  C   UNL     1       6.678   1.808  10.706  0.00  0.00    +0.000 C 
ATOM     23  C   UNL     1       5.344   1.794  11.448  0.00  0.00    +0.000 C 
ATOM     24  C   UNL     1       4.908   3.202  11.850  0.00  0.00    +0.000 C 
ENDBRANCH  18  19
ENDBRANCH  15  18
ENDBRANCH   3  15
TORSDOF 5
ENDMDL
MODEL 2
REMARK VINA RESULT:      -7.4      0.725      1.089
REMARK  Name = 
REMARK  5 active torsions:
REMARK  status: ('A' for Active; 'I' for Inactive)
REMARK    1  A    between atoms: C_2  and  C_14
REMARK    2  A    between atoms: N_3  and  S_4
REMARK    3  A    between atoms: S_4  and  C_7
REMARK    4  A    between atoms: C_7  and  C_8
REMARK    5  A    between atoms: C_17  and  C_18
REMARK                            x       y       z     vdW  Elec       q    Type
REMARK                         _______ _______ _______ _____ _____    ______ ____
ROOT
ATOM      1  O   UNL     1       6.948   4.759  18.390  0.00  0.00    +0.000 OA
ATOM      2  C   UNL     1       5.790   4.431  18.086  0.00  0.00    +0.000 C 
ATOM      3  N   UNL     1       5.384   4.324  16.743  0.00  0.00    +0.000 N 
ATOM      4  H   UNL     1       4.445   4.049  16.471  0.00  0.00    +0.000 HD
ENDROOT
BRANCH   2   5
ATOM      5  C   UNL     1       4.771   4.067  19.155  0.00  0.00    +0.000 C 
ATOM      6  C   UNL     1       3.557   5.006  19.170  0.00  0.00    +0.000 C 
ATOM      7  C   UNL     1       2.550   4.726  18.055  0.00  0.00    +0.000 C 
ATOM      8  C   UNL     1       2.139   3.245  17.965  0.00  0.00    +0.000 C 
ATOM      9  C   UNL     1       3.346   2.288  17.978  0.00  0.00    +0.000 C 
ATOM     10  C   UNL     1       4.349   2.597  19.093  0.00  0.00    +0.000 C 
BRANCH   8  11
ATOM     11  C   UNL     1       1.142   2.879  19.068  0.00  0.00    +0.000 C 
ATOM     12  F   UNL     1       0.113   2.143  18.606  0.00  0.00    +0.000 F 
ATOM     13  F   UNL     1       1.749   2.159  20.038  0.00  0.00    +0.000 F 
ATOM     14  F   UNL     1       0.616   3.976  19.654  0.00  0.00    +0.000 F 
ENDBRANCH   8  11
ENDBRANCH   2   5
BRANCH   3  15
ATOM     15  S   UNL     1       6.395   4.701  15.471  0.00  0.00    +0.000 S 
ATOM     16  O   UNL     1       5.953   5.975  14.935  0.00  0.00    +0.000 OA
ATOM     17  O   UNL     1       7.744   4.514  15.936  0.00  0.00    +0.000 OA
BRANCH  15  18
ATOM     18  C   UNL     1       5.989   3.442  14.250  0.00  0.00    +0.000 C 
BRANCH  18  19
ATOM     19  C   UNL     1       5.891   4.059  12.838  0.00  0.00    +0.000 C 
ATOM     20  C   UNL     1       7.239   4.055  12.100  0.00  0.00    +0.000 C 
ATOM     21  C   UNL     1       7.685   2.660  11.681  0.00  0.00    +0.000 C 
ATOM     22  C   UNL     1       6.621   1.981  10.828  0.00  0.00    +0.000 C 
ATOM     23  C   UNL     1       5.265   1.959  11.528  0.00  0.00    +0.000 C 
ATOM     24  C   UNL     1       4.835   3.356  11.969  0.00  0.00    +0.000 C 
ENDBRANCH  18  19
ENDBRANCH  15  18
ENDBRANCH   3  15
TORSDOF 5
ENDMDL
MODEL 3
REMARK VINA RESULT:      -7.4      1.533      2.269
REMARK  Name = 
REMARK  5 active torsions:
REMARK  status: ('A' for Active; 'I' for Inactive)
REMARK    1  A    between atoms: C_2  and  C_14
REMARK    2  A    between atoms: N_3  and  S_4
REMARK    3  A    between atoms: S_4  and  C_7
REMARK    4  A    between atoms: C_7  and  C_8
REMARK    5  A    between atoms: C_17  and  C_18
REMARK                            x       y       z     vdW  Elec       q    Type
REMARK                         _______ _______ _______ _____ _____    ______ ____
ROOT
ATOM      1  O   UNL     1       5.110   2.943  16.717  0.00  0.00    +0.000 OA
ATOM      2  C   UNL     1       4.645   4.015  17.134  0.00  0.00    +0.000 C 
ATOM      3  N   UNL     1       5.443   5.169  17.246  0.00  0.00    +0.000 N 
ATOM      4  H   UNL     1       5.082   6.059  17.578  0.00  0.00    +0.000 HD
ENDROOT
BRANCH   2   5
ATOM      5  C   UNL     1       3.170   4.148  17.487  0.00  0.00    +0.000 C 
ATOM      6  C   UNL     1       2.486   2.794  17.722  0.00  0.00    +0.000 C 
ATOM      7  C   UNL     1       2.800   2.176  19.084  0.00  0.00    +0.000 C 
ATOM      8  C   UNL     1       2.583   3.149  20.257  0.00  0.00    +0.000 C 
ATOM      9  C   UNL     1       3.240   4.522  20.023  0.00  0.00    +0.000 C 
ATOM     10  C   UNL     1       2.926   5.115  18.647  0.00  0.00    +0.000 C 
BRANCH   8  11
ATOM     11  C   UNL     1       1.095   3.305  20.579  0.00  0.00    +0.000 C 
ATOM     12  F   UNL     1       0.304   2.763  19.632  0.00  0.00    +0.000 F 
ATOM     13  F   UNL     1       0.796   2.698  21.749  0.00  0.00    +0.000 F 
ATOM     14  F   UNL     1       0.740   4.602  20.699  0.00  0.00    +0.000 F 
ENDBRANCH   8  11
ENDBRANCH   2   5
BRANCH   3  15
ATOM     15  S   UNL     1       7.074   5.164  16.902  0.00  0.00    +0.000 S 
ATOM     16  O   UNL     1       7.458   6.535  16.622  0.00  0.00    +0.000 OA
ATOM     17  O   UNL     1       7.720   4.405  17.940  0.00  0.00    +0.000 OA
BRANCH  15  18
ATOM     18  C   UNL     1       7.153   4.262  15.346  0.00  0.00    +0.000 C 
BRANCH  18  19
ATOM     19  C   UNL     1       6.649   5.137  14.179  0.00  0.00    +0.000 C 
ATOM     20  C   UNL     1       7.510   4.984  12.915  0.00  0.00    +0.000 C 
ATOM     21  C   UNL     1       7.343   3.628  12.240  0.00  0.00    +0.000 C 
ATOM     22  C   UNL     1       5.880   3.361  11.910  0.00  0.00    +0.000 C 
ATOM     23  C   UNL     1       4.988   3.498  13.142  0.00  0.00    +0.000 C 
ATOM     24  C   UNL     1       5.180   4.849  13.828  0.00  0.00    +0.000 C 
ENDBRANCH  18  19
ENDBRANCH  15  18
ENDBRANCH   3  15
TORSDOF 5
ENDMDL
MODEL 4
REMARK VINA RESULT:      -7.4      0.749      1.107
REMARK  Name = 
REMARK  5 active torsions:
REMARK  status: ('A' for Active; 'I' for Inactive)
REMARK    1  A    between atoms: C_2  and  C_14
REMARK    2  A    between atoms: N_3  and  S_4
REMARK    3  A    between atoms: S_4  and  C_7
REMARK    4  A    between atoms: C_7  and  C_8
REMARK    5  A    between atoms: C_17  and  C_18
REMARK                            x       y       z     vdW  Elec       q    Type
REMARK                         _______ _______ _______ _____ _____    ______ ____
ROOT
ATOM      1  O   UNL     1       4.498   6.594  16.583  0.00  0.00    +0.000 OA
ATOM      2  C   UNL     1       4.693   5.488  17.111  0.00  0.00    +0.000 C 
ATOM      3  N   UNL     1       5.613   4.567  16.575  0.00  0.00    +0.000 N 
ATOM      4  H   UNL     1       5.793   3.660  16.995  0.00  0.00    +0.000 HD
ENDROOT
BRANCH   2   5
ATOM      5  C   UNL     1       3.989   5.100  18.403  0.00  0.00    +0.000 C 
ATOM      6  C   UNL     1       2.502   5.480  18.412  0.00  0.00    +0.000 C 
ATOM      7  C   UNL     1       1.621   4.532  17.598  0.00  0.00    +0.000 C 
ATOM      8  C   UNL     1       1.844   3.049  17.942  0.00  0.00    +0.000 C 
ATOM      9  C   UNL     1       3.334   2.659  17.965  0.00  0.00    +0.000 C 
ATOM     10  C   UNL     1       4.200   3.630  18.772  0.00  0.00    +0.000 C 
BRANCH   8  11
ATOM     11  C   UNL     1       1.164   2.678  19.263  0.00  0.00    +0.000 C 
ATOM     12  F   UNL     1       1.049   3.732  20.095  0.00  0.00    +0.000 F 
ATOM     13  F   UNL     1      -0.081   2.203  19.039  0.00  0.00    +0.000 F 
ATOM     14  F   UNL     1       1.845   1.719  19.926  0.00  0.00    +0.000 F 
ENDBRANCH   8  11
ENDBRANCH   2   5
BRANCH   3  15
ATOM     15  S   UNL     1       6.446   4.858  15.160  0.00  0.00    +0.000 S 
ATOM     16  O   UNL     1       5.938   6.101  14.610  0.00  0.00    +0.000 OA
ATOM     17  O   UNL     1       7.845   4.688  15.453  0.00  0.00    +0.000 OA
BRANCH  15  18
ATOM     18  C   UNL     1       5.882   3.531  14.083  0.00  0.00    +0.000 C 
BRANCH  18  19
ATOM     19  C   UNL     1       5.802   4.011  12.617  0.00  0.00    +0.000 C 
ATOM     20  C   UNL     1       7.176   4.025  11.928  0.00  0.00    +0.000 C 
ATOM     21  C   UNL     1       7.721   2.629  11.655  0.00  0.00    +0.000 C 
ATOM     22  C   UNL     1       6.733   1.810  10.834  0.00  0.00    +0.000 C 
ATOM     23  C   UNL     1       5.354   1.766  11.487  0.00  0.00    +0.000 C 
ATOM     24  C   UNL     1       4.825   3.168  11.782  0.00  0.00    +0.000 C 
ENDBRANCH  18  19
ENDBRANCH  15  18
ENDBRANCH   3  15
TORSDOF 5
ENDMDL
MODEL 5
REMARK VINA RESULT:      -7.3      1.343      1.992
REMARK  Name = 
REMARK  5 active torsions:
REMARK  status: ('A' for Active; 'I' for Inactive)
REMARK    1  A    between atoms: C_2  and  C_14
REMARK    2  A    between atoms: N_3  and  S_4
REMARK    3  A    between atoms: S_4  and  C_7
REMARK    4  A    between atoms: C_7  and  C_8
REMARK    5  A    between atoms: C_17  and  C_18
REMARK                            x       y       z     vdW  Elec       q    Type
REMARK                         _______ _______ _______ _____ _____    ______ ____
ROOT
ATOM      1  O   UNL     1       5.089   6.896  16.935  0.00  0.00    +0.000 OA
ATOM      2  C   UNL     1       4.913   5.943  17.712  0.00  0.00    +0.000 C 
ATOM      3  N   UNL     1       5.895   4.951  17.895  0.00  0.00    +0.000 N 
ATOM      4  H   UNL     1       5.775   4.168  18.531  0.00  0.00    +0.000 HD
ENDROOT
BRANCH   2   5
ATOM      5  C   UNL     1       3.648   5.838  18.552  0.00  0.00    +0.000 C 
ATOM      6  C   UNL     1       2.424   5.395  17.739  0.00  0.00    +0.000 C 
ATOM      7  C   UNL     1       2.398   3.897  17.436  0.00  0.00    +0.000 C 
ATOM      8  C   UNL     1       2.617   3.022  18.683  0.00  0.00    +0.000 C 
ATOM      9  C   UNL     1       3.825   3.472  19.525  0.00  0.00    +0.000 C 
ATOM     10  C   UNL     1       3.840   4.977  19.803  0.00  0.00    +0.000 C 
BRANCH   8  11
ATOM     11  C   UNL     1       1.351   2.953  19.541  0.00  0.00    +0.000 C 
ATOM     12  F   UNL     1       0.970   4.165  19.992  0.00  0.00    +0.000 F 
ATOM     13  F   UNL     1       0.320   2.446  18.828  0.00  0.00    +0.000 F 
ATOM     14  F   UNL     1       1.519   2.161  20.621  0.00  0.00    +0.000 F 
ENDBRANCH   8  11
ENDBRANCH   2   5
BRANCH   3  15
ATOM     15  S   UNL     1       7.322   4.938  17.034  0.00  0.00    +0.000 S 
ATOM     16  O   UNL     1       7.592   6.305  16.628  0.00  0.00    +0.000 OA
ATOM     17  O   UNL     1       8.274   4.187  17.809  0.00  0.00    +0.000 OA
BRANCH  15  18
ATOM     18  C   UNL     1       6.885   4.019  15.548  0.00  0.00    +0.000 C 
BRANCH  18  19
ATOM     19  C   UNL     1       6.463   4.979  14.415  0.00  0.00    +0.000 C 
ATOM     20  C   UNL     1       7.402   4.902  13.200  0.00  0.00    +0.000 C 
ATOM     21  C   UNL     1       7.266   3.598  12.423  0.00  0.00    +0.000 C 
ATOM     22  C   UNL     1       5.824   3.374  11.984  0.00  0.00    +0.000 C 
ATOM     23  C   UNL     1       4.857   3.437  13.164  0.00  0.00    +0.000 C 
ATOM     24  C   UNL     1       5.017   4.735  13.954  0.00  0.00    +0.000 C 
ENDBRANCH  18  19
ENDBRANCH  15  18
ENDBRANCH   3  15
TORSDOF 5
ENDMDL
MODEL 6
REMARK VINA RESULT:      -7.3      3.081      4.641
REMARK  Name = 
REMARK  5 active torsions:
REMARK  status: ('A' for Active; 'I' for Inactive)
REMARK    1  A    between atoms: C_2  and  C_14
REMARK    2  A    between atoms: N_3  and  S_4
REMARK    3  A    between atoms: S_4  and  C_7
REMARK    4  A    between atoms: C_7  and  C_8
REMARK    5  A    between atoms: C_17  and  C_18
REMARK                            x       y       z     vdW  Elec       q    Type
REMARK                         _______ _______ _______ _____ _____    ______ ____
ROOT
ATOM      1  O   UNL     1       4.848   2.632  16.907  0.00  0.00    +0.000 OA
ATOM      2  C   UNL     1       4.070   3.559  16.629  0.00  0.00    +0.000 C 
ATOM      3  N   UNL     1       4.455   4.611  15.776  0.00  0.00    +0.000 N 
ATOM      4  H   UNL     1       3.834   5.375  15.529  0.00  0.00    +0.000 HD
ENDROOT
BRANCH   2   5
ATOM      5  C   UNL     1       2.641   3.569  17.150  0.00  0.00    +0.000 C 
ATOM      6  C   UNL     1       2.269   2.284  17.903  0.00  0.00    +0.000 C 
ATOM      7  C   UNL     1       2.831   2.220  19.323  0.00  0.00    +0.000 C 
ATOM      8  C   UNL     1       2.537   3.485  20.149  0.00  0.00    +0.000 C 
ATOM      9  C   UNL     1       2.879   4.784  19.396  0.00  0.00    +0.000 C 
ATOM     10  C   UNL     1       2.320   4.820  17.971  0.00  0.00    +0.000 C 
BRANCH   8  11
ATOM     11  C   UNL     1       1.086   3.504  20.637  0.00  0.00    +0.000 C 
ATOM     12  F   UNL     1       0.604   4.756  20.766  0.00  0.00    +0.000 F 
ATOM     13  F   UNL     1       0.284   2.851  19.767  0.00  0.00    +0.000 F 
ATOM     14  F   UNL     1       0.952   2.900  21.837  0.00  0.00    +0.000 F 
ENDBRANCH   8  11
ENDBRANCH   2   5
BRANCH   3  15
ATOM     15  S   UNL     1       5.993   4.730  15.142  0.00  0.00    +0.000 S 
ATOM     16  O   UNL     1       6.317   3.443  14.557  0.00  0.00    +0.000 OA
ATOM     17  O   UNL     1       6.033   5.938  14.361  0.00  0.00    +0.000 OA
BRANCH  15  18
ATOM     18  C   UNL     1       7.018   4.919  16.611  0.00  0.00    +0.000 C 
BRANCH  18  19
ATOM     19  C   UNL     1       6.316   5.810  17.658  0.00  0.00    +0.000 C 
ATOM     20  C   UNL     1       6.851   5.577  19.080  0.00  0.00    +0.000 C 
ATOM     21  C   UNL     1       8.267   6.105  19.279  0.00  0.00    +0.000 C 
ATOM     22  C   UNL     1       8.351   7.584  18.926  0.00  0.00    +0.000 C 
ATOM     23  C   UNL     1       7.833   7.859  17.516  0.00  0.00    +0.000 C 
ATOM     24  C   UNL     1       6.424   7.305  17.316  0.00  0.00    +0.000 C 
ENDBRANCH  18  19
ENDBRANCH  15  18
ENDBRANCH   3  15
TORSDOF 5
ENDMDL
MODEL 7
REMARK VINA RESULT:      -7.2      0.841      1.446
REMARK  Name = 
REMARK  5 active torsions:
REMARK  status: ('A' for Active; 'I' for Inactive)
REMARK    1  A    between atoms: C_2  and  C_14
REMARK    2  A    between atoms: N_3  and  S_4
REMARK    3  A    between atoms: S_4  and  C_7
REMARK    4  A    between atoms: C_7  and  C_8
REMARK    5  A    between atoms: C_17  and  C_18
REMARK                            x       y       z     vdW  Elec       q    Type
REMARK                         _______ _______ _______ _____ _____    ______ ____
ROOT
ATOM      1  O   UNL     1       5.421   6.272  17.710  0.00  0.00    +0.000 OA
ATOM      2  C   UNL     1       4.531   5.572  17.199  0.00  0.00    +0.000 C 
ATOM      3  N   UNL     1       4.799   4.721  16.111  0.00  0.00    +0.000 N 
ATOM      4  H   UNL     1       4.089   4.134  15.682  0.00  0.00    +0.000 HD
ENDROOT
BRANCH   2   5
ATOM      5  C   UNL     1       3.120   5.556  17.769  0.00  0.00    +0.000 C 
ATOM      6  C   UNL     1       2.344   4.282  17.409  0.00  0.00    +0.000 C 
ATOM      7  C   UNL     1       2.740   3.065  18.245  0.00  0.00    +0.000 C 
ATOM      8  C   UNL     1       2.737   3.341  19.759  0.00  0.00    +0.000 C 
ATOM      9  C   UNL     1       3.488   4.632  20.133  0.00  0.00    +0.000 C 
ATOM     10  C   UNL     1       3.087   5.834  19.273  0.00  0.00    +0.000 C 
BRANCH   8  11
ATOM     11  C   UNL     1       1.311   3.360  20.315  0.00  0.00    +0.000 C 
ATOM     12  F   UNL     1       1.098   2.382  21.218  0.00  0.00    +0.000 F 
ATOM     13  F   UNL     1       1.056   4.537  20.929  0.00  0.00    +0.000 F 
ATOM     14  F   UNL     1       0.389   3.209  19.340  0.00  0.00    +0.000 F 
ENDBRANCH   8  11
ENDBRANCH   2   5
BRANCH   3  15
ATOM     15  S   UNL     1       6.297   4.645  15.383  0.00  0.00    +0.000 S 
ATOM     16  O   UNL     1       6.474   5.877  14.636  0.00  0.00    +0.000 OA
ATOM     17  O   UNL     1       7.238   4.245  16.396  0.00  0.00    +0.000 OA
BRANCH  15  18
ATOM     18  C   UNL     1       6.092   3.320  14.181  0.00  0.00    +0.000 C 
BRANCH  18  19
ATOM     19  C   UNL     1       5.888   3.894  12.762  0.00  0.00    +0.000 C 
ATOM     20  C   UNL     1       7.190   3.919  11.945  0.00  0.00    +0.000 C 
ATOM     21  C   UNL     1       7.664   2.529  11.537  0.00  0.00    +0.000 C 
ATOM     22  C   UNL     1       6.578   1.789  10.766  0.00  0.00    +0.000 C 
ATOM     23  C   UNL     1       5.267   1.737  11.546  0.00  0.00    +0.000 C 
ATOM     24  C   UNL     1       4.811   3.130  11.975  0.00  0.00    +0.000 C 
ENDBRANCH  18  19
ENDBRANCH  15  18
ENDBRANCH   3  15
TORSDOF 5
ENDMDL
MODEL 8
REMARK VINA RESULT:      -7.2      4.648      7.151
REMARK  Name = 
REMARK  5 active torsions:
REMARK  status: ('A' for Active; 'I' for Inactive)
REMARK    1  A    between atoms: C_2  and  C_14
REMARK    2  A    between atoms: N_3  and  S_4
REMARK    3  A    between atoms: S_4  and  C_7
REMARK    4  A    between atoms: C_7  and  C_8
REMARK    5  A    between atoms: C_17  and  C_18
REMARK                            x       y       z     vdW  Elec       q    Type
REMARK                         _______ _______ _______ _____ _____    ______ ____
ROOT
ATOM      1  O   UNL     1       3.851   3.865  15.875  0.00  0.00    +0.000 OA
ATOM      2  C   UNL     1       4.813   3.756  16.653  0.00  0.00    +0.000 C 
ATOM      3  N   UNL     1       4.757   2.915  17.780  0.00  0.00    +0.000 N 
ATOM      4  H   UNL     1       5.534   2.805  18.426  0.00  0.00    +0.000 HD
ENDROOT
BRANCH   2   5
ATOM      5  C   UNL     1       6.124   4.482  16.388  0.00  0.00    +0.000 C 
ATOM      6  C   UNL     1       5.927   5.848  15.716  0.00  0.00    +0.000 C 
ATOM      7  C   UNL     1       5.465   6.944  16.677  0.00  0.00    +0.000 C 
ATOM      8  C   UNL     1       6.328   7.039  17.948  0.00  0.00    +0.000 C 
ATOM      9  C   UNL     1       6.559   5.672  18.617  0.00  0.00    +0.000 C 
ATOM     10  C   UNL     1       7.004   4.586  17.635  0.00  0.00    +0.000 C 
BRANCH   8  11
ATOM     11  C   UNL     1       7.660   7.738  17.662  0.00  0.00    +0.000 C 
ATOM     12  F   UNL     1       8.598   7.452  18.587  0.00  0.00    +0.000 F 
ATOM     13  F   UNL     1       8.149   7.356  16.461  0.00  0.00    +0.000 F 
ATOM     14  F   UNL     1       7.527   9.081  17.632  0.00  0.00    +0.000 F 
ENDBRANCH   8  11
ENDBRANCH   2   5
BRANCH   3  15
ATOM     15  S   UNL     1       3.381   2.069  18.196  0.00  0.00    +0.000 S 
ATOM     16  O   UNL     1       2.428   2.243  17.116  0.00  0.00    +0.000 OA
ATOM     17  O   UNL     1       3.804   0.759  18.616  0.00  0.00    +0.000 OA
BRANCH  15  18
ATOM     18  C   UNL     1       2.755   2.991  19.610  0.00  0.00    +0.000 C 
BRANCH  18  19
ATOM     19  C   UNL     1       1.528   3.839  19.211  0.00  0.00    +0.000 C 
ATOM     20  C   UNL     1       0.842   4.486  20.425  0.00  0.00    +0.000 C 
ATOM     21  C   UNL     1       1.667   5.604  21.052  0.00  0.00    +0.000 C 
ATOM     22  C   UNL     1       2.013   6.669  20.019  0.00  0.00    +0.000 C 
ATOM     23  C   UNL     1       2.702   6.068  18.796  0.00  0.00    +0.000 C 
ATOM     24  C   UNL     1       1.883   4.931  18.189  0.00  0.00    +0.000 C 
ENDBRANCH  18  19
ENDBRANCH  15  18
ENDBRANCH   3  15
TORSDOF 5
ENDMDL
MODEL 9
REMARK VINA RESULT:      -7.1      1.366      2.176
REMARK  Name = 
REMARK  5 active torsions:
REMARK  status: ('A' for Active; 'I' for Inactive)
REMARK    1  A    between atoms: C_2  and  C_14
REMARK    2  A    between atoms: N_3  and  S_4
REMARK    3  A    between atoms: S_4  and  C_7
REMARK    4  A    between atoms: C_7  and  C_8
REMARK    5  A    between atoms: C_17  and  C_18
REMARK                            x       y       z     vdW  Elec       q    Type
REMARK                         _______ _______ _______ _____ _____    ______ ____
ROOT
ATOM      1  O   UNL     1       4.317   6.074  17.108  0.00  0.00    +0.000 OA
ATOM      2  C   UNL     1       4.362   4.843  17.261  0.00  0.00    +0.000 C 
ATOM      3  N   UNL     1       5.578   4.137  17.201  0.00  0.00    +0.000 N 
ATOM      4  H   UNL     1       5.639   3.132  17.331  0.00  0.00    +0.000 HD
ENDROOT
BRANCH   2   5
ATOM      5  C   UNL     1       3.106   4.046  17.583  0.00  0.00    +0.000 C 
ATOM      6  C   UNL     1       3.402   2.742  18.337  0.00  0.00    +0.000 C 
ATOM      7  C   UNL     1       3.704   2.946  19.822  0.00  0.00    +0.000 C 
ATOM      8  C   UNL     1       2.653   3.810  20.542  0.00  0.00    +0.000 C 
ATOM      9  C   UNL     1       2.325   5.109  19.782  0.00  0.00    +0.000 C 
ATOM     10  C   UNL     1       2.041   4.883  18.295  0.00  0.00    +0.000 C 
BRANCH   8  11
ATOM     11  C   UNL     1       1.379   3.010  20.828  0.00  0.00    +0.000 C 
ATOM     12  F   UNL     1       0.264   3.671  20.459  0.00  0.00    +0.000 F 
ATOM     13  F   UNL     1       1.393   1.838  20.155  0.00  0.00    +0.000 F 
ATOM     14  F   UNL     1       1.254   2.717  22.140  0.00  0.00    +0.000 F 
ENDBRANCH   8  11
ENDBRANCH   2   5
BRANCH   3  15
ATOM     15  S   UNL     1       7.027   4.883  16.848  0.00  0.00    +0.000 S 
ATOM     16  O   UNL     1       6.758   6.302  16.711  0.00  0.00    +0.000 OA
ATOM     17  O   UNL     1       7.994   4.394  17.796  0.00  0.00    +0.000 OA
BRANCH  15  18
ATOM     18  C   UNL     1       7.411   4.254  15.205  0.00  0.00    +0.000 C 
BRANCH  18  19
ATOM     19  C   UNL     1       6.747   5.126  14.116  0.00  0.00    +0.000 C 
ATOM     20  C   UNL     1       7.479   5.038  12.767  0.00  0.00    +0.000 C 
ATOM     21  C   UNL     1       7.305   3.688  12.081  0.00  0.00    +0.000 C 
ATOM     22  C   UNL     1       5.829   3.358  11.898  0.00  0.00    +0.000 C 
ATOM     23  C   UNL     1       5.065   3.429  13.218  0.00  0.00    +0.000 C 
ATOM     24  C   UNL     1       5.265   4.774  13.913  0.00  0.00    +0.000 C 
ENDBRANCH  18  19
ENDBRANCH  15  18
ENDBRANCH   3  15
TORSDOF 5
ENDMDL
