MODEL 1
REMARK VINA RESULT:      -8.7      0.000      0.000
REMARK  Name = 
REMARK  6 active torsions:
REMARK  status: ('A' for Active; 'I' for Inactive)
REMARK    1  A    between atoms: C_1  and  C_2
REMARK    2  A    between atoms: N_5  and  C_6
REMARK    3  A    between atoms: C_7  and  C_8
REMARK    4  A    between atoms: N_10  and  C_11
REMARK    5  A    between atoms: C_15  and  C_16
REMARK    6  A    between atoms: N_18  and  C_19
REMARK                            x       y       z     vdW  Elec       q    Type
REMARK                         _______ _______ _______ _____ _____    ______ ____
ROOT
ATOM      1  C   UNL     1       2.832   6.982  19.038  0.00  0.00    +0.000 A 
ATOM      2  C   UNL     1       3.007   5.872  19.885  0.00  0.00    +0.000 A 
ATOM      3  C   UNL     1       3.817   4.810  19.500  0.00  0.00    +0.000 A 
ATOM      4  C   UNL     1       4.474   4.861  18.276  0.00  0.00    +0.000 A 
ATOM      5  C   UNL     1       4.329   5.975  17.436  0.00  0.00    +0.000 A 
ATOM      6  C   UNL     1       3.494   7.035  17.804  0.00  0.00    +0.000 A 
ENDROOT
BRANCH   1   9
ATOM      7  C   UNL     1       0.766   9.846  19.465  0.00  0.00    +0.000 A 
ATOM      8  C   UNL     1       1.508   9.054  18.631  0.00  0.00    +0.000 A 
ATOM      9  N   UNL     1       1.966   8.033  19.419  0.00  0.00    +0.000 N 
ATOM     10  N   UNL     1       1.468   8.169  20.672  0.00  0.00    +0.000 NA
ATOM     11  N   UNL     1       0.762   9.295  20.714  0.00  0.00    +0.000 NA
BRANCH   7  18
ATOM     12  C   UNL     1      -2.106  10.231  17.952  0.00  0.00    +0.000 C 
ATOM     13  C   UNL     1      -1.132  11.246  18.419  0.00  0.00    +0.000 A 
ATOM     14  N   UNL     1      -1.412  12.580  18.228  0.00  0.00    +0.000 NA
ATOM     15  C   UNL     1      -0.396  13.230  18.747  0.00  0.00    +0.000 A 
ATOM     16  N   UNL     1       0.533  12.378  19.271  0.00  0.00    +0.000 N 
ATOM     17  C   UNL     1       1.773  12.781  19.886  0.00  0.00    +0.000 C 
ATOM     18  C   UNL     1       0.084  11.098  19.070  0.00  0.00    +0.000 A 
ENDBRANCH   7  18
ENDBRANCH   1   9
BRANCH   5  19
ATOM     19  C   UNL     1       5.035   5.942  16.134  0.00  0.00    +0.000 C 
ATOM     20  O   UNL     1       5.200   7.019  15.570  0.00  0.00    +0.000 OA
ATOM     21  N   UNL     1       5.372   4.691  15.647  0.00  0.00    +0.000 N 
ATOM     22  H   UNL     1       5.005   3.880  16.131  0.00  0.00    +0.000 HD
BRANCH  21  23
ATOM     23  C   UNL     1       6.029   4.454  14.417  0.00  0.00    +0.000 A 
ATOM     24  C   UNL     1       7.174   5.155  14.022  0.00  0.00    +0.000 A 
ATOM     25  C   UNL     1       7.770   4.921  12.785  0.00  0.00    +0.000 A 
ATOM     26  C   UNL     1       7.233   3.971  11.925  0.00  0.00    +0.000 A 
ATOM     27  C   UNL     1       6.106   3.252  12.318  0.00  0.00    +0.000 A 
ATOM     28 CL   UNL     1       5.436   2.082  11.247  0.00  0.00    +0.000 Cl
ATOM     29  C   UNL     1       5.507   3.478  13.560  0.00  0.00    +0.000 A 
ENDBRANCH  21  23
ENDBRANCH   5  19
TORSDOF 4
ENDMDL
MODEL 2
REMARK VINA RESULT:      -8.5      0.504      1.509
REMARK  Name = 
REMARK  6 active torsions:
REMARK  status: ('A' for Active; 'I' for Inactive)
REMARK    1  A    between atoms: C_1  and  C_2
REMARK    2  A    between atoms: N_5  and  C_6
REMARK    3  A    between atoms: C_7  and  C_8
REMARK    4  A    between atoms: N_10  and  C_11
REMARK    5  A    between atoms: C_15  and  C_16
REMARK    6  A    between atoms: N_18  and  C_19
REMARK                            x       y       z     vdW  Elec       q    Type
REMARK                         _______ _______ _______ _____ _____    ______ ____
ROOT
ATOM      1  C   UNL     1       2.835   6.934  19.072  0.00  0.00    +0.000 A 
ATOM      2  C   UNL     1       3.028   5.821  19.911  0.00  0.00    +0.000 A 
ATOM      3  C   UNL     1       3.841   4.766  19.510  0.00  0.00    +0.000 A 
ATOM      4  C   UNL     1       4.482   4.828  18.279  0.00  0.00    +0.000 A 
ATOM      5  C   UNL     1       4.319   5.946  17.447  0.00  0.00    +0.000 A 
ATOM      6  C   UNL     1       3.482   6.998  17.830  0.00  0.00    +0.000 A 
ENDROOT
BRANCH   1   9
ATOM      7  C   UNL     1       0.788   9.802  19.557  0.00  0.00    +0.000 A 
ATOM      8  C   UNL     1       1.555   9.043  18.716  0.00  0.00    +0.000 A 
ATOM      9  N   UNL     1       1.967   7.977  19.469  0.00  0.00    +0.000 N 
ATOM     10  N   UNL     1       1.418   8.057  20.705  0.00  0.00    +0.000 NA
ATOM     11  N   UNL     1       0.724   9.190  20.776  0.00  0.00    +0.000 NA
BRANCH   7  18
ATOM     12  C   UNL     1       1.720  12.850  20.280  0.00  0.00    +0.000 C 
ATOM     13  C   UNL     1       0.542  12.370  19.520  0.00  0.00    +0.000 A 
ATOM     14  N   UNL     1      -0.341  13.290  19.001  0.00  0.00    +0.000 NA
ATOM     15  C   UNL     1      -1.257  12.586  18.380  0.00  0.00    +0.000 A 
ATOM     16  N   UNL     1      -1.010  11.246  18.468  0.00  0.00    +0.000 N 
ATOM     17  C   UNL     1      -1.846  10.211  17.914  0.00  0.00    +0.000 C 
ATOM     18  C   UNL     1       0.139  11.082  19.198  0.00  0.00    +0.000 A 
ENDBRANCH   7  18
ENDBRANCH   1   9
BRANCH   5  19
ATOM     19  C   UNL     1       5.009   5.925  16.136  0.00  0.00    +0.000 C 
ATOM     20  O   UNL     1       5.121   7.000  15.555  0.00  0.00    +0.000 OA
ATOM     21  N   UNL     1       5.393   4.682  15.661  0.00  0.00    +0.000 N 
ATOM     22  H   UNL     1       5.067   3.863  16.161  0.00  0.00    +0.000 HD
BRANCH  21  23
ATOM     23  C   UNL     1       6.044   4.456  14.426  0.00  0.00    +0.000 A 
ATOM     24  C   UNL     1       7.187   5.161  14.032  0.00  0.00    +0.000 A 
ATOM     25  C   UNL     1       7.777   4.937  12.790  0.00  0.00    +0.000 A 
ATOM     26  C   UNL     1       7.235   3.995  11.924  0.00  0.00    +0.000 A 
ATOM     27  C   UNL     1       6.110   3.273  12.315  0.00  0.00    +0.000 A 
ATOM     28 CL   UNL     1       5.434   2.114  11.237  0.00  0.00    +0.000 Cl
ATOM     29  C   UNL     1       5.517   3.489  13.563  0.00  0.00    +0.000 A 
ENDBRANCH  21  23
ENDBRANCH   5  19
TORSDOF 4
ENDMDL
MODEL 3
REMARK VINA RESULT:      -8.3      1.214      1.357
REMARK  Name = 
REMARK  6 active torsions:
REMARK  status: ('A' for Active; 'I' for Inactive)
REMARK    1  A    between atoms: C_1  and  C_2
REMARK    2  A    between atoms: N_5  and  C_6
REMARK    3  A    between atoms: C_7  and  C_8
REMARK    4  A    between atoms: N_10  and  C_11
REMARK    5  A    between atoms: C_15  and  C_16
REMARK    6  A    between atoms: N_18  and  C_19
REMARK                            x       y       z     vdW  Elec       q    Type
REMARK                         _______ _______ _______ _____ _____    ______ ____
ROOT
ATOM      1  C   UNL     1       2.929   7.067  18.631  0.00  0.00    +0.000 A 
ATOM      2  C   UNL     1       2.685   6.265  19.763  0.00  0.00    +0.000 A 
ATOM      3  C   UNL     1       3.300   5.025  19.894  0.00  0.00    +0.000 A 
ATOM      4  C   UNL     1       4.176   4.588  18.908  0.00  0.00    +0.000 A 
ATOM      5  C   UNL     1       4.447   5.392  17.790  0.00  0.00    +0.000 A 
ATOM      6  C   UNL     1       3.813   6.629  17.637  0.00  0.00    +0.000 A 
ENDROOT
BRANCH   1   9
ATOM      7  C   UNL     1       0.912   9.996  18.709  0.00  0.00    +0.000 A 
ATOM      8  C   UNL     1       1.293   8.823  19.303  0.00  0.00    +0.000 A 
ATOM      9  N   UNL     1       2.259   8.305  18.485  0.00  0.00    +0.000 N 
ATOM     10  N   UNL     1       2.499   9.163  17.465  0.00  0.00    +0.000 NA
ATOM     11  N   UNL     1       1.652  10.183  17.578  0.00  0.00    +0.000 NA
BRANCH   7  18
ATOM     12  C   UNL     1      -2.272  10.071  17.975  0.00  0.00    +0.000 C 
ATOM     13  C   UNL     1      -1.484  10.934  18.888  0.00  0.00    +0.000 A 
ATOM     14  N   UNL     1      -2.123  11.942  19.574  0.00  0.00    +0.000 NA
ATOM     15  C   UNL     1      -1.194  12.516  20.301  0.00  0.00    +0.000 A 
ATOM     16  N   UNL     1       0.024  11.925  20.121  0.00  0.00    +0.000 N 
ATOM     17  C   UNL     1       1.249  12.343  20.755  0.00  0.00    +0.000 C 
ATOM     18  C   UNL     1      -0.137  10.908  19.216  0.00  0.00    +0.000 A 
ENDBRANCH   7  18
ENDBRANCH   1   9
BRANCH   5  19
ATOM     19  C   UNL     1       5.368   4.845  16.766  0.00  0.00    +0.000 C 
ATOM     20  O   UNL     1       6.345   4.228  17.177  0.00  0.00    +0.000 OA
ATOM     21  N   UNL     1       5.075   5.149  15.448  0.00  0.00    +0.000 N 
ATOM     22  H   UNL     1       4.341   5.826  15.270  0.00  0.00    +0.000 HD
BRANCH  21  23
ATOM     23  C   UNL     1       5.842   4.736  14.334  0.00  0.00    +0.000 A 
ATOM     24  C   UNL     1       7.070   5.321  14.001  0.00  0.00    +0.000 A 
ATOM     25  C   UNL     1       7.778   4.913  12.873  0.00  0.00    +0.000 A 
ATOM     26  C   UNL     1       7.271   3.904  12.063  0.00  0.00    +0.000 A 
ATOM     27  C   UNL     1       6.061   3.301  12.398  0.00  0.00    +0.000 A 
ATOM     28 CL   UNL     1       5.430   2.058  11.387  0.00  0.00    +0.000 Cl
ATOM     29  C   UNL     1       5.349   3.701  13.532  0.00  0.00    +0.000 A 
ENDBRANCH  21  23
ENDBRANCH   5  19
TORSDOF 4
ENDMDL
MODEL 4
REMARK VINA RESULT:      -8.1      1.087      1.415
REMARK  Name = 
REMARK  6 active torsions:
REMARK  status: ('A' for Active; 'I' for Inactive)
REMARK    1  A    between atoms: C_1  and  C_2
REMARK    2  A    between atoms: N_5  and  C_6
REMARK    3  A    between atoms: C_7  and  C_8
REMARK    4  A    between atoms: N_10  and  C_11
REMARK    5  A    between atoms: C_15  and  C_16
REMARK    6  A    between atoms: N_18  and  C_19
REMARK                            x       y       z     vdW  Elec       q    Type
REMARK                         _______ _______ _______ _____ _____    ______ ____
ROOT
ATOM      1  C   UNL     1       2.701   6.855  19.183  0.00  0.00    +0.000 A 
ATOM      2  C   UNL     1       2.799   5.683  19.956  0.00  0.00    +0.000 A 
ATOM      3  C   UNL     1       3.558   4.605  19.511  0.00  0.00    +0.000 A 
ATOM      4  C   UNL     1       4.239   4.702  18.304  0.00  0.00    +0.000 A 
ATOM      5  C   UNL     1       4.170   5.877  17.540  0.00  0.00    +0.000 A 
ATOM      6  C   UNL     1       3.388   6.954  17.966  0.00  0.00    +0.000 A 
ENDROOT
BRANCH   1   9
ATOM      7  C   UNL     1       0.750   9.773  19.757  0.00  0.00    +0.000 A 
ATOM      8  C   UNL     1       1.431   8.977  18.876  0.00  0.00    +0.000 A 
ATOM      9  N   UNL     1       1.886   7.925  19.623  0.00  0.00    +0.000 N 
ATOM     10  N   UNL     1       1.445   8.048  20.898  0.00  0.00    +0.000 NA
ATOM     11  N   UNL     1       0.779   9.196  20.994  0.00  0.00    +0.000 NA
BRANCH   7  18
ATOM     12  C   UNL     1      -1.971  10.292  18.022  0.00  0.00    +0.000 C 
ATOM     13  C   UNL     1      -1.057  11.261  18.672  0.00  0.00    +0.000 A 
ATOM     14  N   UNL     1      -1.332  12.607  18.580  0.00  0.00    +0.000 NA
ATOM     15  C   UNL     1      -0.377  13.207  19.250  0.00  0.00    +0.000 A 
ATOM     16  N   UNL     1       0.508  12.312  19.779  0.00  0.00    +0.000 N 
ATOM     17  C   UNL     1       1.681  12.658  20.542  0.00  0.00    +0.000 C 
ATOM     18  C   UNL     1       0.094  11.055  19.418  0.00  0.00    +0.000 A 
ENDBRANCH   7  18
ENDBRANCH   1   9
BRANCH   5  19
ATOM     19  C   UNL     1       4.897   5.892  16.249  0.00  0.00    +0.000 C 
ATOM     20  O   UNL     1       5.129   6.994  15.760  0.00  0.00    +0.000 OA
ATOM     21  N   UNL     1       5.178   4.660  15.684  0.00  0.00    +0.000 N 
ATOM     22  H   UNL     1       4.760   3.839  16.107  0.00  0.00    +0.000 HD
BRANCH  21  23
ATOM     23  C   UNL     1       5.845   4.469  14.451  0.00  0.00    +0.000 A 
ATOM     24  C   UNL     1       5.395   3.569  13.478  0.00  0.00    +0.000 A 
ATOM     25  C   UNL     1       6.102   3.381  12.292  0.00  0.00    +0.000 A 
ATOM     26  C   UNL     1       7.267   4.100  12.057  0.00  0.00    +0.000 A 
ATOM     27  C   UNL     1       7.711   5.014  13.010  0.00  0.00    +0.000 A 
ATOM     28 CL   UNL     1       9.161   5.897  12.722  0.00  0.00    +0.000 Cl
ATOM     29  C   UNL     1       7.003   5.212  14.199  0.00  0.00    +0.000 A 
ENDBRANCH  21  23
ENDBRANCH   5  19
TORSDOF 4
ENDMDL
MODEL 5
REMARK VINA RESULT:      -8.1      1.726      2.206
REMARK  Name = 
REMARK  6 active torsions:
REMARK  status: ('A' for Active; 'I' for Inactive)
REMARK    1  A    between atoms: C_1  and  C_2
REMARK    2  A    between atoms: N_5  and  C_6
REMARK    3  A    between atoms: C_7  and  C_8
REMARK    4  A    between atoms: N_10  and  C_11
REMARK    5  A    between atoms: C_15  and  C_16
REMARK    6  A    between atoms: N_18  and  C_19
REMARK                            x       y       z     vdW  Elec       q    Type
REMARK                         _______ _______ _______ _____ _____    ______ ____
ROOT
ATOM      1  C   UNL     1       2.578   7.451  18.901  0.00  0.00    +0.000 A 
ATOM      2  C   UNL     1       2.589   6.337  19.760  0.00  0.00    +0.000 A 
ATOM      3  C   UNL     1       3.318   5.199  19.432  0.00  0.00    +0.000 A 
ATOM      4  C   UNL     1       4.056   5.176  18.255  0.00  0.00    +0.000 A 
ATOM      5  C   UNL     1       4.074   6.292  17.405  0.00  0.00    +0.000 A 
ATOM      6  C   UNL     1       3.323   7.430  17.714  0.00  0.00    +0.000 A 
ENDROOT
BRANCH   1   9
ATOM      7  C   UNL     1       0.463  10.003  20.192  0.00  0.00    +0.000 A 
ATOM      8  C   UNL     1       1.126   8.822  20.391  0.00  0.00    +0.000 A 
ATOM      9  N   UNL     1       1.794   8.584  19.221  0.00  0.00    +0.000 N 
ATOM     10  N   UNL     1       1.592   9.615  18.366  0.00  0.00    +0.000 NA
ATOM     11  N   UNL     1       0.750  10.469  18.942  0.00  0.00    +0.000 NA
BRANCH   7  18
ATOM     12  C   UNL     1       0.176   9.435  23.398  0.00  0.00    +0.000 C 
ATOM     13  C   UNL     1      -0.542  10.402  22.534  0.00  0.00    +0.000 A 
ATOM     14  N   UNL     1      -1.488  11.229  23.097  0.00  0.00    +0.000 NA
ATOM     15  C   UNL     1      -1.936  11.972  22.113  0.00  0.00    +0.000 A 
ATOM     16  N   UNL     1      -1.322  11.668  20.931  0.00  0.00    +0.000 N 
ATOM     17  C   UNL     1      -1.614  12.286  19.662  0.00  0.00    +0.000 C 
ATOM     18  C   UNL     1      -0.424  10.660  21.177  0.00  0.00    +0.000 A 
ENDBRANCH   7  18
ENDBRANCH   1   9
BRANCH   5  19
ATOM     19  C   UNL     1       4.859   6.181  16.153  0.00  0.00    +0.000 C 
ATOM     20  O   UNL     1       5.108   7.228  15.564  0.00  0.00    +0.000 OA
ATOM     21  N   UNL     1       5.169   4.899  15.731  0.00  0.00    +0.000 N 
ATOM     22  H   UNL     1       4.736   4.123  16.218  0.00  0.00    +0.000 HD
BRANCH  21  23
ATOM     23  C   UNL     1       5.891   4.589  14.555  0.00  0.00    +0.000 A 
ATOM     24  C   UNL     1       7.123   5.177  14.245  0.00  0.00    +0.000 A 
ATOM     25  C   UNL     1       7.785   4.874  13.057  0.00  0.00    +0.000 A 
ATOM     26  C   UNL     1       7.226   3.970  12.163  0.00  0.00    +0.000 A 
ATOM     27  C   UNL     1       6.011   3.363  12.472  0.00  0.00    +0.000 A 
ATOM     28 CL   UNL     1       5.315   2.251  11.357  0.00  0.00    +0.000 Cl
ATOM     29  C   UNL     1       5.345   3.658  13.665  0.00  0.00    +0.000 A 
ENDBRANCH  21  23
ENDBRANCH   5  19
TORSDOF 4
ENDMDL
MODEL 6
REMARK VINA RESULT:      -8.0      1.175      2.069
REMARK  Name = 
REMARK  6 active torsions:
REMARK  status: ('A' for Active; 'I' for Inactive)
REMARK    1  A    between atoms: C_1  and  C_2
REMARK    2  A    between atoms: N_5  and  C_6
REMARK    3  A    between atoms: C_7  and  C_8
REMARK    4  A    between atoms: N_10  and  C_11
REMARK    5  A    between atoms: C_15  and  C_16
REMARK    6  A    between atoms: N_18  and  C_19
REMARK                            x       y       z     vdW  Elec       q    Type
REMARK                         _______ _______ _______ _____ _____    ______ ____
ROOT
ATOM      1  C   UNL     1       2.688   6.857  19.171  0.00  0.00    +0.000 A 
ATOM      2  C   UNL     1       2.736   5.666  19.919  0.00  0.00    +0.000 A 
ATOM      3  C   UNL     1       3.459   4.571  19.457  0.00  0.00    +0.000 A 
ATOM      4  C   UNL     1       4.155   4.668  18.258  0.00  0.00    +0.000 A 
ATOM      5  C   UNL     1       4.136   5.861  17.519  0.00  0.00    +0.000 A 
ATOM      6  C   UNL     1       3.389   6.957  17.961  0.00  0.00    +0.000 A 
ENDROOT
BRANCH   1   9
ATOM      7  C   UNL     1       0.817   9.820  19.781  0.00  0.00    +0.000 A 
ATOM      8  C   UNL     1       1.456   9.005  18.886  0.00  0.00    +0.000 A 
ATOM      9  N   UNL     1       1.909   7.947  19.626  0.00  0.00    +0.000 N 
ATOM     10  N   UNL     1       1.504   8.086  20.911  0.00  0.00    +0.000 NA
ATOM     11  N   UNL     1       0.866   9.248  21.019  0.00  0.00    +0.000 NA
BRANCH   7  18
ATOM     12  C   UNL     1       1.827  12.845  20.497  0.00  0.00    +0.000 C 
ATOM     13  C   UNL     1       0.616  12.392  19.771  0.00  0.00    +0.000 A 
ATOM     14  N   UNL     1      -0.266  13.332  19.287  0.00  0.00    +0.000 NA
ATOM     15  C   UNL     1      -1.214  12.650  18.690  0.00  0.00    +0.000 A 
ATOM     16  N   UNL     1      -0.988  11.305  18.760  0.00  0.00    +0.000 N 
ATOM     17  C   UNL     1      -1.860  10.289  18.225  0.00  0.00    +0.000 C 
ATOM     18  C   UNL     1       0.180  11.115  19.452  0.00  0.00    +0.000 A 
ENDBRANCH   7  18
ENDBRANCH   1   9
BRANCH   5  19
ATOM     19  C   UNL     1       4.875   5.877  16.235  0.00  0.00    +0.000 C 
ATOM     20  O   UNL     1       5.123   6.979  15.756  0.00  0.00    +0.000 OA
ATOM     21  N   UNL     1       5.147   4.645  15.664  0.00  0.00    +0.000 N 
ATOM     22  H   UNL     1       4.716   3.826  16.078  0.00  0.00    +0.000 HD
BRANCH  21  23
ATOM     23  C   UNL     1       5.823   4.456  14.436  0.00  0.00    +0.000 A 
ATOM     24  C   UNL     1       5.374   3.565  13.454  0.00  0.00    +0.000 A 
ATOM     25  C   UNL     1       6.090   3.377  12.274  0.00  0.00    +0.000 A 
ATOM     26  C   UNL     1       7.263   4.087  12.053  0.00  0.00    +0.000 A 
ATOM     27  C   UNL     1       7.706   4.992  13.014  0.00  0.00    +0.000 A 
ATOM     28 CL   UNL     1       9.166   5.864  12.744  0.00  0.00    +0.000 Cl
ATOM     29  C   UNL     1       6.990   5.190  14.198  0.00  0.00    +0.000 A 
ENDBRANCH  21  23
ENDBRANCH   5  19
TORSDOF 4
ENDMDL
MODEL 7
REMARK VINA RESULT:      -8.0      5.380     10.980
REMARK  Name = 
REMARK  6 active torsions:
REMARK  status: ('A' for Active; 'I' for Inactive)
REMARK    1  A    between atoms: C_1  and  C_2
REMARK    2  A    between atoms: N_5  and  C_6
REMARK    3  A    between atoms: C_7  and  C_8
REMARK    4  A    between atoms: N_10  and  C_11
REMARK    5  A    between atoms: C_15  and  C_16
REMARK    6  A    between atoms: N_18  and  C_19
REMARK                            x       y       z     vdW  Elec       q    Type
REMARK                         _______ _______ _______ _____ _____    ______ ____
ROOT
ATOM      1  C   UNL     1       1.438   8.389  20.068  0.00  0.00    +0.000 A 
ATOM      2  C   UNL     1       1.627   9.158  18.904  0.00  0.00    +0.000 A 
ATOM      3  C   UNL     1       1.187  10.476  18.849  0.00  0.00    +0.000 A 
ATOM      4  C   UNL     1       0.576  11.039  19.963  0.00  0.00    +0.000 A 
ATOM      5  C   UNL     1       0.409  10.290  21.138  0.00  0.00    +0.000 A 
ATOM      6  C   UNL     1       0.823   8.956  21.192  0.00  0.00    +0.000 A 
ENDROOT
BRANCH   1   9
ATOM      7  C   UNL     1       2.514   5.038  19.553  0.00  0.00    +0.000 A 
ATOM      8  C   UNL     1       2.334   6.299  19.050  0.00  0.00    +0.000 A 
ATOM      9  N   UNL     1       1.844   7.035  20.094  0.00  0.00    +0.000 N 
ATOM     10  N   UNL     1       1.787   6.262  21.206  0.00  0.00    +0.000 NA
ATOM     11  N   UNL     1       2.162   5.031  20.872  0.00  0.00    +0.000 NA
BRANCH   7  18
ATOM     12  C   UNL     1       0.925   2.306  18.722  0.00  0.00    +0.000 C 
ATOM     13  C   UNL     1       2.323   2.716  18.446  0.00  0.00    +0.000 A 
ATOM     14  N   UNL     1       3.140   1.872  17.728  0.00  0.00    +0.000 NA
ATOM     15  C   UNL     1       4.290   2.495  17.630  0.00  0.00    +0.000 A 
ATOM     16  N   UNL     1       4.259   3.711  18.250  0.00  0.00    +0.000 N 
ATOM     17  C   UNL     1       5.372   4.623  18.343  0.00  0.00    +0.000 C 
ATOM     18  C   UNL     1       3.007   3.875  18.784  0.00  0.00    +0.000 A 
ENDBRANCH   7  18
ENDBRANCH   1   9
BRANCH   5  19
ATOM     19  C   UNL     1      -0.280  10.950  22.272  0.00  0.00    +0.000 C 
ATOM     20  O   UNL     1      -0.151  10.426  23.374  0.00  0.00    +0.000 OA
ATOM     21  N   UNL     1      -1.063  12.049  21.964  0.00  0.00    +0.000 N 
ATOM     22  H   UNL     1      -1.226  12.254  20.985  0.00  0.00    +0.000 HD
BRANCH  21  23
ATOM     23  C   UNL     1      -1.810  12.797  22.904  0.00  0.00    +0.000 A 
ATOM     24  C   UNL     1      -1.326  13.969  23.497  0.00  0.00    +0.000 A 
ATOM     25  C   UNL     1      -2.076  14.656  24.448  0.00  0.00    +0.000 A 
ATOM     26  C   UNL     1      -3.331  14.184  24.815  0.00  0.00    +0.000 A 
ATOM     27  C   UNL     1      -3.830  13.031  24.215  0.00  0.00    +0.000 A 
ATOM     28 CL   UNL     1      -5.380  12.442  24.679  0.00  0.00    +0.000 Cl
ATOM     29  C   UNL     1      -3.085  12.340  23.255  0.00  0.00    +0.000 A 
ENDBRANCH  21  23
ENDBRANCH   5  19
TORSDOF 4
ENDMDL
MODEL 8
REMARK VINA RESULT:      -7.9      5.309      9.862
REMARK  Name = 
REMARK  6 active torsions:
REMARK  status: ('A' for Active; 'I' for Inactive)
REMARK    1  A    between atoms: C_1  and  C_2
REMARK    2  A    between atoms: N_5  and  C_6
REMARK    3  A    between atoms: C_7  and  C_8
REMARK    4  A    between atoms: N_10  and  C_11
REMARK    5  A    between atoms: C_15  and  C_16
REMARK    6  A    between atoms: N_18  and  C_19
REMARK                            x       y       z     vdW  Elec       q    Type
REMARK                         _______ _______ _______ _____ _____    ______ ____
ROOT
ATOM      1  C   UNL     1       0.860   9.031  20.914  0.00  0.00    +0.000 A 
ATOM      2  C   UNL     1       0.043   8.702  22.012  0.00  0.00    +0.000 A 
ATOM      3  C   UNL     1      -0.568   9.701  22.762  0.00  0.00    +0.000 A 
ATOM      4  C   UNL     1      -0.385  11.031  22.406  0.00  0.00    +0.000 A 
ATOM      5  C   UNL     1       0.405  11.369  21.296  0.00  0.00    +0.000 A 
ATOM      6  C   UNL     1       1.045  10.372  20.554  0.00  0.00    +0.000 A 
ENDROOT
BRANCH   1   9
ATOM      7  C   UNL     1       2.496   6.161  19.596  0.00  0.00    +0.000 A 
ATOM      8  C   UNL     1       1.797   6.741  20.620  0.00  0.00    +0.000 A 
ATOM      9  N   UNL     1       1.516   8.009  20.190  0.00  0.00    +0.000 N 
ATOM     10  N   UNL     1       1.976   8.171  18.926  0.00  0.00    +0.000 NA
ATOM     11  N   UNL     1       2.608   7.055  18.571  0.00  0.00    +0.000 NA
BRANCH   7  18
ATOM     12  C   UNL     1       0.924   3.327  20.018  0.00  0.00    +0.000 C 
ATOM     13  C   UNL     1       2.365   3.592  19.797  0.00  0.00    +0.000 A 
ATOM     14  N   UNL     1       3.241   2.532  19.743  0.00  0.00    +0.000 NA
ATOM     15  C   UNL     1       4.422   3.061  19.527  0.00  0.00    +0.000 A 
ATOM     16  N   UNL     1       4.355   4.422  19.434  0.00  0.00    +0.000 N 
ATOM     17  C   UNL     1       5.483   5.296  19.229  0.00  0.00    +0.000 C 
ATOM     18  C   UNL     1       3.044   4.787  19.608  0.00  0.00    +0.000 A 
ENDBRANCH   7  18
ENDBRANCH   1   9
BRANCH   5  19
ATOM     19  C   UNL     1       0.579  12.810  20.999  0.00  0.00    +0.000 C 
ATOM     20  O   UNL     1       0.528  13.580  21.953  0.00  0.00    +0.000 OA
ATOM     21  N   UNL     1       0.707  13.153  19.664  0.00  0.00    +0.000 N 
ATOM     22  H   UNL     1       0.543  12.431  18.972  0.00  0.00    +0.000 HD
BRANCH  21  23
ATOM     23  C   UNL     1       0.862  14.473  19.181  0.00  0.00    +0.000 A 
ATOM     24  C   UNL     1       2.106  15.010  18.827  0.00  0.00    +0.000 A 
ATOM     25  C   UNL     1       2.223  16.328  18.393  0.00  0.00    +0.000 A 
ATOM     26  C   UNL     1       1.092  17.130  18.297  0.00  0.00    +0.000 A 
ATOM     27  C   UNL     1      -0.153  16.599  18.626  0.00  0.00    +0.000 A 
ATOM     28 CL   UNL     1      -1.551  17.597  18.516  0.00  0.00    +0.000 Cl
ATOM     29  C   UNL     1      -0.278  15.275  19.057  0.00  0.00    +0.000 A 
ENDBRANCH  21  23
ENDBRANCH   5  19
TORSDOF 4
ENDMDL
MODEL 9
REMARK VINA RESULT:      -7.9      5.029      9.723
REMARK  Name = 
REMARK  6 active torsions:
REMARK  status: ('A' for Active; 'I' for Inactive)
REMARK    1  A    between atoms: C_1  and  C_2
REMARK    2  A    between atoms: N_5  and  C_6
REMARK    3  A    between atoms: C_7  and  C_8
REMARK    4  A    between atoms: N_10  and  C_11
REMARK    5  A    between atoms: C_15  and  C_16
REMARK    6  A    between atoms: N_18  and  C_19
REMARK                            x       y       z     vdW  Elec       q    Type
REMARK                         _______ _______ _______ _____ _____    ______ ____
ROOT
ATOM      1  C   UNL     1       0.876   8.915  20.929  0.00  0.00    +0.000 A 
ATOM      2  C   UNL     1       0.068   8.559  22.024  0.00  0.00    +0.000 A 
ATOM      3  C   UNL     1      -0.567   9.538  22.782  0.00  0.00    +0.000 A 
ATOM      4  C   UNL     1      -0.415  10.875  22.436  0.00  0.00    +0.000 A 
ATOM      5  C   UNL     1       0.365  11.239  21.328  0.00  0.00    +0.000 A 
ATOM      6  C   UNL     1       1.029  10.264  20.578  0.00  0.00    +0.000 A 
ENDROOT
BRANCH   1   9
ATOM      7  C   UNL     1       2.555   6.084  19.581  0.00  0.00    +0.000 A 
ATOM      8  C   UNL     1       1.822   6.634  20.598  0.00  0.00    +0.000 A 
ATOM      9  N   UNL     1       1.556   7.914  20.196  0.00  0.00    +0.000 N 
ATOM     10  N   UNL     1       2.057   8.113  18.953  0.00  0.00    +0.000 NA
ATOM     11  N   UNL     1       2.700   7.008  18.587  0.00  0.00    +0.000 NA
BRANCH   7  18
ATOM     12  C   UNL     1       0.976   3.241  19.908  0.00  0.00    +0.000 C 
ATOM     13  C   UNL     1       2.421   3.512  19.720  0.00  0.00    +0.000 A 
ATOM     14  N   UNL     1       3.298   2.452  19.657  0.00  0.00    +0.000 NA
ATOM     15  C   UNL     1       4.483   2.987  19.474  0.00  0.00    +0.000 A 
ATOM     16  N   UNL     1       4.417   4.349  19.413  0.00  0.00    +0.000 N 
ATOM     17  C   UNL     1       5.549   5.227  19.248  0.00  0.00    +0.000 C 
ATOM     18  C   UNL     1       3.103   4.710  19.571  0.00  0.00    +0.000 A 
ENDBRANCH   7  18
ENDBRANCH   1   9
BRANCH   5  19
ATOM     19  C   UNL     1       0.505  12.686  21.041  0.00  0.00    +0.000 C 
ATOM     20  O   UNL     1       0.432  13.447  22.001  0.00  0.00    +0.000 OA
ATOM     21  N   UNL     1       0.630  13.041  19.709  0.00  0.00    +0.000 N 
ATOM     22  H   UNL     1       0.485  12.321  19.012  0.00  0.00    +0.000 HD
BRANCH  21  23
ATOM     23  C   UNL     1       0.754  14.369  19.236  0.00  0.00    +0.000 A 
ATOM     24  C   UNL     1      -0.344  15.222  19.075  0.00  0.00    +0.000 A 
ATOM     25  C   UNL     1      -0.185  16.510  18.569  0.00  0.00    +0.000 A 
ATOM     26  C   UNL     1       1.080  16.968  18.223  0.00  0.00    +0.000 A 
ATOM     27  C   UNL     1       2.182  16.135  18.399  0.00  0.00    +0.000 A 
ATOM     28 CL   UNL     1       3.747  16.701  17.960  0.00  0.00    +0.000 Cl
ATOM     29  C   UNL     1       2.030  14.843  18.912  0.00  0.00    +0.000 A 
ENDBRANCH  21  23
ENDBRANCH   5  19
TORSDOF 4
ENDMDL
