MODEL 1
REMARK VINA RESULT:      -6.1      0.000      0.000
REMARK  Name = 
REMARK  25 active torsions:
REMARK  status: ('A' for Active; 'I' for Inactive)
REMARK    1  A    between atoms: C_1  and  C_2
REMARK    2  A    between atoms: C_2  and  C_3
REMARK    3  A    between atoms: C_3  and  C_4
REMARK    4  A    between atoms: C_4  and  C_5
REMARK    5  A    between atoms: C_5  and  C_6
REMARK    6  A    between atoms: C_6  and  C_7
REMARK    7  A    between atoms: C_7  and  C_8
REMARK    8  A    between atoms: C_8  and  C_9
REMARK    9  A    between atoms: C_9  and  C_10
REMARK   10  A    between atoms: C_10  and  C_11
REMARK   11  A    between atoms: C_11  and  C_12
REMARK   12  A    between atoms: C_12  and  C_13
REMARK   13  A    between atoms: C_13  and  C_14
REMARK   14  A    between atoms: C_14  and  S_15
REMARK   15  A    between atoms: S_15  and  N_18
REMARK   16  A    between atoms: N_18  and  C_19
REMARK   17  A    between atoms: C_19  and  C_20
REMARK   18  A    between atoms: C_20  and  C_21
REMARK   19  A    between atoms: C_20  and  C_22
REMARK   20  A    between atoms: C_20  and  C_23
REMARK   21  A    between atoms: C_23  and  N_24
REMARK   22  A    between atoms: N_24  and  C_25
REMARK   23  A    between atoms: N_24  and  C_26
REMARK   24  A    between atoms: N_24  and  C_27
REMARK   25  A    between atoms: C_27  and  C_28
REMARK                            x       y       z     vdW  Elec       q    Type
REMARK                         _______ _______ _______ _____ _____    ______ ____
ROOT
ATOM      1  S   UNL     1       7.558   4.834  17.553  0.00  0.00    +0.000 S 
ATOM      2  O   UNL     1       7.280   4.970  16.137  0.00  0.00    +0.000 OA
ATOM      3  O   UNL     1       8.660   4.051  18.051  0.00  0.00    +0.000 OA
ENDROOT
BRANCH   1   4
ATOM      4  N   UNL     1       6.156   4.220  18.274  0.00  0.00    +0.000 NA
ATOM      5  H   UNL     1       6.276   3.276  18.628  0.00  0.00    +0.000 HD
BRANCH   4   6
ATOM      6  C   UNL     1       5.279   5.137  19.022  0.00  0.00    +0.000 C 
BRANCH   6   7
ATOM      7  C   UNL     1       3.893   5.335  18.303  0.00  0.00    +0.000 C 
ATOM      8  C   UNL     1       3.822   6.789  17.795  0.00  0.00    +0.000 C 
ATOM      9  C   UNL     1       3.831   4.355  17.117  0.00  0.00    +0.000 C 
BRANCH   7  10
ATOM     10  C   UNL     1       2.803   5.013  19.393  0.00  0.00    +0.000 C 
BRANCH  10  11
ATOM     11  N   UNL     1       2.159   3.595  19.513  0.00  0.00    +0.000 N 
ATOM     12  C   UNL     1       1.211   3.494  20.712  0.00  0.00    +0.000 C 
ATOM     13  C   UNL     1       1.407   3.141  18.265  0.00  0.00    +0.000 C 
BRANCH  11  14
ATOM     14  C   UNL     1       3.292   2.546  19.804  0.00  0.00    +0.000 C 
ATOM     15  C   UNL     1       3.419   1.464  18.743  0.00  0.00    +0.000 C 
ENDBRANCH  11  14
ENDBRANCH  10  11
ENDBRANCH   7  10
ENDBRANCH   6   7
ENDBRANCH   4   6
ENDBRANCH   1   4
BRANCH   1  16
ATOM     16  C   UNL     1       7.643   6.481  18.285  0.00  0.00    +0.000 C 
BRANCH  16  17
ATOM     17  C   UNL     1       7.459   7.553  17.220  0.00  0.00    +0.000 C 
BRANCH  17  18
ATOM     18  C   UNL     1       7.773   8.970  17.692  0.00  0.00    +0.000 C 
BRANCH  18  19
ATOM     19  C   UNL     1       8.819   8.958  18.818  0.00  0.00    +0.000 C 
BRANCH  19  20
ATOM     20  C   UNL     1       9.261  10.370  19.197  0.00  0.00    +0.000 C 
BRANCH  20  21
ATOM     21  C   UNL     1      10.066  11.041  18.097  0.00  0.00    +0.000 C 
BRANCH  21  22
ATOM     22  C   UNL     1       9.575  12.474  17.919  0.00  0.00    +0.000 C 
BRANCH  22  23
ATOM     23  C   UNL     1       8.895  12.969  19.183  0.00  0.00    +0.000 C 
BRANCH  23  24
ATOM     24  C   UNL     1       9.925  13.512  20.164  0.00  0.00    +0.000 C 
BRANCH  24  25
ATOM     25  C   UNL     1       9.282  14.547  21.076  0.00  0.00    +0.000 C 
BRANCH  25  26
ATOM     26  C   UNL     1       8.998  13.957  22.450  0.00  0.00    +0.000 C 
BRANCH  26  27
ATOM     27  C   UNL     1       9.174  12.444  22.426  0.00  0.00    +0.000 C 
BRANCH  27  29
ATOM     28  C   UNL     1       6.762  12.349  23.101  0.00  0.00    +0.000 C 
ATOM     29  C   UNL     1       8.144  11.758  23.313  0.00  0.00    +0.000 C 
ENDBRANCH  27  29
ENDBRANCH  26  27
ENDBRANCH  25  26
ENDBRANCH  24  25
ENDBRANCH  23  24
ENDBRANCH  22  23
ENDBRANCH  21  22
ENDBRANCH  20  21
ENDBRANCH  19  20
ENDBRANCH  18  19
ENDBRANCH  17  18
ENDBRANCH  16  17
ENDBRANCH   1  16
TORSDOF 19
ENDMDL
MODEL 2
REMARK VINA RESULT:      -5.9      1.314      1.847
REMARK  Name = 
REMARK  25 active torsions:
REMARK  status: ('A' for Active; 'I' for Inactive)
REMARK    1  A    between atoms: C_1  and  C_2
REMARK    2  A    between atoms: C_2  and  C_3
REMARK    3  A    between atoms: C_3  and  C_4
REMARK    4  A    between atoms: C_4  and  C_5
REMARK    5  A    between atoms: C_5  and  C_6
REMARK    6  A    between atoms: C_6  and  C_7
REMARK    7  A    between atoms: C_7  and  C_8
REMARK    8  A    between atoms: C_8  and  C_9
REMARK    9  A    between atoms: C_9  and  C_10
REMARK   10  A    between atoms: C_10  and  C_11
REMARK   11  A    between atoms: C_11  and  C_12
REMARK   12  A    between atoms: C_12  and  C_13
REMARK   13  A    between atoms: C_13  and  C_14
REMARK   14  A    between atoms: C_14  and  S_15
REMARK   15  A    between atoms: S_15  and  N_18
REMARK   16  A    between atoms: N_18  and  C_19
REMARK   17  A    between atoms: C_19  and  C_20
REMARK   18  A    between atoms: C_20  and  C_21
REMARK   19  A    between atoms: C_20  and  C_22
REMARK   20  A    between atoms: C_20  and  C_23
REMARK   21  A    between atoms: C_23  and  N_24
REMARK   22  A    between atoms: N_24  and  C_25
REMARK   23  A    between atoms: N_24  and  C_26
REMARK   24  A    between atoms: N_24  and  C_27
REMARK   25  A    between atoms: C_27  and  C_28
REMARK                            x       y       z     vdW  Elec       q    Type
REMARK                         _______ _______ _______ _____ _____    ______ ____
ROOT
ATOM      1  S   UNL     1       6.832   4.923  18.233  0.00  0.00    +0.000 S 
ATOM      2  O   UNL     1       8.024   4.138  17.981  0.00  0.00    +0.000 OA
ATOM      3  O   UNL     1       6.565   5.531  19.512  0.00  0.00    +0.000 OA
ENDROOT
BRANCH   1   4
ATOM      4  N   UNL     1       5.506   3.934  17.875  0.00  0.00    +0.000 NA
ATOM      5  H   UNL     1       5.325   3.242  18.596  0.00  0.00    +0.000 HD
BRANCH   4   6
ATOM      6  C   UNL     1       4.354   4.517  17.166  0.00  0.00    +0.000 C 
BRANCH   6   7
ATOM      7  C   UNL     1       3.174   4.854  18.150  0.00  0.00    +0.000 C 
ATOM      8  C   UNL     1       3.339   6.316  18.612  0.00  0.00    +0.000 C 
ATOM      9  C   UNL     1       1.852   4.689  17.378  0.00  0.00    +0.000 C 
BRANCH   7  10
ATOM     10  C   UNL     1       3.301   3.821  19.331  0.00  0.00    +0.000 C 
BRANCH  10  11
ATOM     11  N   UNL     1       2.208   3.706  20.441  0.00  0.00    +0.000 N 
ATOM     12  C   UNL     1       2.668   2.833  21.613  0.00  0.00    +0.000 C 
ATOM     13  C   UNL     1       1.735   5.047  20.995  0.00  0.00    +0.000 C 
BRANCH  11  14
ATOM     14  C   UNL     1       0.959   2.960  19.848  0.00  0.00    +0.000 C 
ATOM     15  C   UNL     1       1.308   1.723  19.034  0.00  0.00    +0.000 C 
ENDBRANCH  11  14
ENDBRANCH  10  11
ENDBRANCH   7  10
ENDBRANCH   6   7
ENDBRANCH   4   6
ENDBRANCH   1   4
BRANCH   1  16
ATOM     16  C   UNL     1       6.692   6.185  16.952  0.00  0.00    +0.000 C 
BRANCH  16  17
ATOM     17  C   UNL     1       6.754   7.579  17.561  0.00  0.00    +0.000 C 
BRANCH  17  18
ATOM     18  C   UNL     1       8.148   8.011  18.004  0.00  0.00    +0.000 C 
BRANCH  18  19
ATOM     19  C   UNL     1       8.323   9.533  17.870  0.00  0.00    +0.000 C 
BRANCH  19  20
ATOM     20  C   UNL     1       9.164  10.109  19.007  0.00  0.00    +0.000 C 
BRANCH  20  21
ATOM     21  C   UNL     1       9.982  11.313  18.572  0.00  0.00    +0.000 C 
BRANCH  21  22
ATOM     22  C   UNL     1       9.504  12.546  19.331  0.00  0.00    +0.000 C 
BRANCH  22  23
ATOM     23  C   UNL     1      10.527  12.963  20.373  0.00  0.00    +0.000 C 
BRANCH  23  24
ATOM     24  C   UNL     1       9.833  13.418  21.650  0.00  0.00    +0.000 C 
BRANCH  24  25
ATOM     25  C   UNL     1       8.390  12.938  21.660  0.00  0.00    +0.000 C 
BRANCH  25  26
ATOM     26  C   UNL     1       8.221  11.748  22.595  0.00  0.00    +0.000 C 
BRANCH  26  27
ATOM     27  C   UNL     1       7.059  11.985  23.551  0.00  0.00    +0.000 C 
BRANCH  27  29
ATOM     28  C   UNL     1       8.366  12.852  25.507  0.00  0.00    +0.000 C 
ATOM     29  C   UNL     1       7.326  13.184  24.452  0.00  0.00    +0.000 C 
ENDBRANCH  27  29
ENDBRANCH  26  27
ENDBRANCH  25  26
ENDBRANCH  24  25
ENDBRANCH  23  24
ENDBRANCH  22  23
ENDBRANCH  21  22
ENDBRANCH  20  21
ENDBRANCH  19  20
ENDBRANCH  18  19
ENDBRANCH  17  18
ENDBRANCH  16  17
ENDBRANCH   1  16
TORSDOF 19
ENDMDL
MODEL 3
REMARK VINA RESULT:      -5.9      1.711      2.614
REMARK  Name = 
REMARK  25 active torsions:
REMARK  status: ('A' for Active; 'I' for Inactive)
REMARK    1  A    between atoms: C_1  and  C_2
REMARK    2  A    between atoms: C_2  and  C_3
REMARK    3  A    between atoms: C_3  and  C_4
REMARK    4  A    between atoms: C_4  and  C_5
REMARK    5  A    between atoms: C_5  and  C_6
REMARK    6  A    between atoms: C_6  and  C_7
REMARK    7  A    between atoms: C_7  and  C_8
REMARK    8  A    between atoms: C_8  and  C_9
REMARK    9  A    between atoms: C_9  and  C_10
REMARK   10  A    between atoms: C_10  and  C_11
REMARK   11  A    between atoms: C_11  and  C_12
REMARK   12  A    between atoms: C_12  and  C_13
REMARK   13  A    between atoms: C_13  and  C_14
REMARK   14  A    between atoms: C_14  and  S_15
REMARK   15  A    between atoms: S_15  and  N_18
REMARK   16  A    between atoms: N_18  and  C_19
REMARK   17  A    between atoms: C_19  and  C_20
REMARK   18  A    between atoms: C_20  and  C_21
REMARK   19  A    between atoms: C_20  and  C_22
REMARK   20  A    between atoms: C_20  and  C_23
REMARK   21  A    between atoms: C_23  and  N_24
REMARK   22  A    between atoms: N_24  and  C_25
REMARK   23  A    between atoms: N_24  and  C_26
REMARK   24  A    between atoms: N_24  and  C_27
REMARK   25  A    between atoms: C_27  and  C_28
REMARK                            x       y       z     vdW  Elec       q    Type
REMARK                         _______ _______ _______ _____ _____    ______ ____
ROOT
ATOM      1  S   UNL     1       7.303   5.571  17.916  0.00  0.00    +0.000 S 
ATOM      2  O   UNL     1       6.935   5.812  16.535  0.00  0.00    +0.000 OA
ATOM      3  O   UNL     1       8.088   4.430  18.317  0.00  0.00    +0.000 OA
ENDROOT
BRANCH   1   4
ATOM      4  N   UNL     1       5.866   5.515  18.807  0.00  0.00    +0.000 NA
ATOM      5  H   UNL     1       6.011   5.683  19.798  0.00  0.00    +0.000 HD
BRANCH   4   6
ATOM      6  C   UNL     1       4.626   6.015  18.190  0.00  0.00    +0.000 C 
BRANCH   6   7
ATOM      7  C   UNL     1       3.538   4.885  18.069  0.00  0.00    +0.000 C 
ATOM      8  C   UNL     1       2.190   5.554  17.733  0.00  0.00    +0.000 C 
ATOM      9  C   UNL     1       3.960   3.941  16.929  0.00  0.00    +0.000 C 
BRANCH   7  10
ATOM     10  C   UNL     1       3.529   4.157  19.465  0.00  0.00    +0.000 C 
BRANCH  10  11
ATOM     11  N   UNL     1       2.381   3.179  19.873  0.00  0.00    +0.000 N 
ATOM     12  C   UNL     1       1.026   3.889  19.964  0.00  0.00    +0.000 C 
ATOM     13  C   UNL     1       2.231   1.972  18.952  0.00  0.00    +0.000 C 
BRANCH  11  14
ATOM     14  C   UNL     1       2.658   2.650  21.325  0.00  0.00    +0.000 C 
ATOM     15  C   UNL     1       1.400   2.415  22.147  0.00  0.00    +0.000 C 
ENDBRANCH  11  14
ENDBRANCH  10  11
ENDBRANCH   7  10
ENDBRANCH   6   7
ENDBRANCH   4   6
ENDBRANCH   1   4
BRANCH   1  16
ATOM     16  C   UNL     1       8.074   7.062  18.577  0.00  0.00    +0.000 C 
BRANCH  16  17
ATOM     17  C   UNL     1       8.077   8.172  17.536  0.00  0.00    +0.000 C 
BRANCH  17  18
ATOM     18  C   UNL     1       7.972   9.580  18.116  0.00  0.00    +0.000 C 
BRANCH  18  19
ATOM     19  C   UNL     1       9.285   9.994  18.801  0.00  0.00    +0.000 C 
BRANCH  19  20
ATOM     20  C   UNL     1       9.912  11.216  18.134  0.00  0.00    +0.000 C 
BRANCH  20  21
ATOM     21  C   UNL     1      11.293  11.532  18.682  0.00  0.00    +0.000 C 
BRANCH  21  22
ATOM     22  C   UNL     1      11.188  11.797  20.181  0.00  0.00    +0.000 C 
BRANCH  22  23
ATOM     23  C   UNL     1      10.521  13.135  20.444  0.00  0.00    +0.000 C 
BRANCH  23  24
ATOM     24  C   UNL     1      11.361  14.271  19.877  0.00  0.00    +0.000 C 
BRANCH  24  25
ATOM     25  C   UNL     1      10.458  15.395  19.391  0.00  0.00    +0.000 C 
BRANCH  25  26
ATOM     26  C   UNL     1       9.573  14.924  18.246  0.00  0.00    +0.000 C 
BRANCH  26  27
ATOM     27  C   UNL     1       8.106  15.171  18.573  0.00  0.00    +0.000 C 
BRANCH  27  29
ATOM     28  C   UNL     1       6.309  16.902  18.819  0.00  0.00    +0.000 C 
ATOM     29  C   UNL     1       7.786  16.661  18.567  0.00  0.00    +0.000 C 
ENDBRANCH  27  29
ENDBRANCH  26  27
ENDBRANCH  25  26
ENDBRANCH  24  25
ENDBRANCH  23  24
ENDBRANCH  22  23
ENDBRANCH  21  22
ENDBRANCH  20  21
ENDBRANCH  19  20
ENDBRANCH  18  19
ENDBRANCH  17  18
ENDBRANCH  16  17
ENDBRANCH   1  16
TORSDOF 19
ENDMDL
MODEL 4
REMARK VINA RESULT:      -5.8      4.860      6.328
REMARK  Name = 
REMARK  25 active torsions:
REMARK  status: ('A' for Active; 'I' for Inactive)
REMARK    1  A    between atoms: C_1  and  C_2
REMARK    2  A    between atoms: C_2  and  C_3
REMARK    3  A    between atoms: C_3  and  C_4
REMARK    4  A    between atoms: C_4  and  C_5
REMARK    5  A    between atoms: C_5  and  C_6
REMARK    6  A    between atoms: C_6  and  C_7
REMARK    7  A    between atoms: C_7  and  C_8
REMARK    8  A    between atoms: C_8  and  C_9
REMARK    9  A    between atoms: C_9  and  C_10
REMARK   10  A    between atoms: C_10  and  C_11
REMARK   11  A    between atoms: C_11  and  C_12
REMARK   12  A    between atoms: C_12  and  C_13
REMARK   13  A    between atoms: C_13  and  C_14
REMARK   14  A    between atoms: C_14  and  S_15
REMARK   15  A    between atoms: S_15  and  N_18
REMARK   16  A    between atoms: N_18  and  C_19
REMARK   17  A    between atoms: C_19  and  C_20
REMARK   18  A    between atoms: C_20  and  C_21
REMARK   19  A    between atoms: C_20  and  C_22
REMARK   20  A    between atoms: C_20  and  C_23
REMARK   21  A    between atoms: C_23  and  N_24
REMARK   22  A    between atoms: N_24  and  C_25
REMARK   23  A    between atoms: N_24  and  C_26
REMARK   24  A    between atoms: N_24  and  C_27
REMARK   25  A    between atoms: C_27  and  C_28
REMARK                            x       y       z     vdW  Elec       q    Type
REMARK                         _______ _______ _______ _____ _____    ______ ____
ROOT
ATOM      1  S   UNL     1       6.875   5.002  18.491  0.00  0.00    +0.000 S 
ATOM      2  O   UNL     1       8.072   4.423  17.915  0.00  0.00    +0.000 OA
ATOM      3  O   UNL     1       6.884   5.694  19.756  0.00  0.00    +0.000 OA
ENDROOT
BRANCH   1   4
ATOM      4  N   UNL     1       5.738   3.756  18.623  0.00  0.00    +0.000 NA
ATOM      5  H   UNL     1       5.424   3.609  19.578  0.00  0.00    +0.000 HD
BRANCH   4   6
ATOM      6  C   UNL     1       4.767   3.560  17.533  0.00  0.00    +0.000 C 
BRANCH   6   7
ATOM      7  C   UNL     1       3.435   2.901  18.051  0.00  0.00    +0.000 C 
ATOM      8  C   UNL     1       2.288   3.351  17.125  0.00  0.00    +0.000 C 
ATOM      9  C   UNL     1       3.605   1.373  17.981  0.00  0.00    +0.000 C 
BRANCH   7  10
ATOM     10  C   UNL     1       3.261   3.408  19.532  0.00  0.00    +0.000 C 
BRANCH  10  11
ATOM     11  N   UNL     1       1.966   3.113  20.352  0.00  0.00    +0.000 N 
ATOM     12  C   UNL     1       1.044   2.121  19.636  0.00  0.00    +0.000 C 
ATOM     13  C   UNL     1       2.224   2.597  21.765  0.00  0.00    +0.000 C 
BRANCH  11  14
ATOM     14  C   UNL     1       1.126   4.435  20.466  0.00  0.00    +0.000 C 
ATOM     15  C   UNL     1       1.958   5.672  20.769  0.00  0.00    +0.000 C 
ENDBRANCH  11  14
ENDBRANCH  10  11
ENDBRANCH   7  10
ENDBRANCH   6   7
ENDBRANCH   4   6
ENDBRANCH   1   4
BRANCH   1  16
ATOM     16  C   UNL     1       6.097   6.065  17.258  0.00  0.00    +0.000 C 
BRANCH  16  17
ATOM     17  C   UNL     1       4.960   6.865  17.878  0.00  0.00    +0.000 C 
BRANCH  17  18
ATOM     18  C   UNL     1       3.687   6.904  17.037  0.00  0.00    +0.000 C 
BRANCH  18  19
ATOM     19  C   UNL     1       2.472   7.296  17.894  0.00  0.00    +0.000 C 
BRANCH  19  20
ATOM     20  C   UNL     1       2.476   8.784  18.236  0.00  0.00    +0.000 C 
BRANCH  20  21
ATOM     21  C   UNL     1       1.094   9.407  18.134  0.00  0.00    +0.000 C 
BRANCH  21  22
ATOM     22  C   UNL     1       0.584   9.729  19.535  0.00  0.00    +0.000 C 
BRANCH  22  23
ATOM     23  C   UNL     1       1.483   9.107  20.589  0.00  0.00    +0.000 C 
BRANCH  23  24
ATOM     24  C   UNL     1       0.770   9.048  21.932  0.00  0.00    +0.000 C 
BRANCH  24  25
ATOM     25  C   UNL     1      -0.574   9.755  21.841  0.00  0.00    +0.000 C 
BRANCH  25  26
ATOM     26  C   UNL     1      -0.787  10.673  23.037  0.00  0.00    +0.000 C 
BRANCH  26  27
ATOM     27  C   UNL     1      -0.894  12.122  22.582  0.00  0.00    +0.000 C 
BRANCH  27  29
ATOM     28  C   UNL     1      -3.192  12.179  23.582  0.00  0.00    +0.000 C 
ATOM     29  C   UNL     1      -2.348  12.523  22.368  0.00  0.00    +0.000 C 
ENDBRANCH  27  29
ENDBRANCH  26  27
ENDBRANCH  25  26
ENDBRANCH  24  25
ENDBRANCH  23  24
ENDBRANCH  22  23
ENDBRANCH  21  22
ENDBRANCH  20  21
ENDBRANCH  19  20
ENDBRANCH  18  19
ENDBRANCH  17  18
ENDBRANCH  16  17
ENDBRANCH   1  16
TORSDOF 19
ENDMDL
MODEL 5
REMARK VINA RESULT:      -5.8      4.385      8.712
REMARK  Name = 
REMARK  25 active torsions:
REMARK  status: ('A' for Active; 'I' for Inactive)
REMARK    1  A    between atoms: C_1  and  C_2
REMARK    2  A    between atoms: C_2  and  C_3
REMARK    3  A    between atoms: C_3  and  C_4
REMARK    4  A    between atoms: C_4  and  C_5
REMARK    5  A    between atoms: C_5  and  C_6
REMARK    6  A    between atoms: C_6  and  C_7
REMARK    7  A    between atoms: C_7  and  C_8
REMARK    8  A    between atoms: C_8  and  C_9
REMARK    9  A    between atoms: C_9  and  C_10
REMARK   10  A    between atoms: C_10  and  C_11
REMARK   11  A    between atoms: C_11  and  C_12
REMARK   12  A    between atoms: C_12  and  C_13
REMARK   13  A    between atoms: C_13  and  C_14
REMARK   14  A    between atoms: C_14  and  S_15
REMARK   15  A    between atoms: S_15  and  N_18
REMARK   16  A    between atoms: N_18  and  C_19
REMARK   17  A    between atoms: C_19  and  C_20
REMARK   18  A    between atoms: C_20  and  C_21
REMARK   19  A    between atoms: C_20  and  C_22
REMARK   20  A    between atoms: C_20  and  C_23
REMARK   21  A    between atoms: C_23  and  N_24
REMARK   22  A    between atoms: N_24  and  C_25
REMARK   23  A    between atoms: N_24  and  C_26
REMARK   24  A    between atoms: N_24  and  C_27
REMARK   25  A    between atoms: C_27  and  C_28
REMARK                            x       y       z     vdW  Elec       q    Type
REMARK                         _______ _______ _______ _____ _____    ______ ____
ROOT
ATOM      1  S   UNL     1       2.578   6.116  19.641  0.00  0.00    +0.000 S 
ATOM      2  O   UNL     1       3.918   5.642  19.927  0.00  0.00    +0.000 OA
ATOM      3  O   UNL     1       2.069   6.226  18.298  0.00  0.00    +0.000 OA
ENDROOT
BRANCH   1   4
ATOM      4  N   UNL     1       2.436   7.647  20.347  0.00  0.00    +0.000 NA
ATOM      5  H   UNL     1       3.336   8.077  20.539  0.00  0.00    +0.000 HD
BRANCH   4   6
ATOM      6  C   UNL     1       1.322   8.519  19.936  0.00  0.00    +0.000 C 
BRANCH   6   7
ATOM      7  C   UNL     1       0.726   9.315  21.156  0.00  0.00    +0.000 C 
ATOM      8  C   UNL     1      -0.687   8.766  21.439  0.00  0.00    +0.000 C 
ATOM      9  C   UNL     1       1.641   9.074  22.371  0.00  0.00    +0.000 C 
BRANCH   7  10
ATOM     10  C   UNL     1       0.719  10.825  20.712  0.00  0.00    +0.000 C 
BRANCH  10  11
ATOM     11  N   UNL     1      -0.331  11.376  19.696  0.00  0.00    +0.000 N 
ATOM     12  C   UNL     1      -0.826  10.291  18.734  0.00  0.00    +0.000 C 
ATOM     13  C   UNL     1      -1.546  12.033  20.346  0.00  0.00    +0.000 C 
BRANCH  11  14
ATOM     14  C   UNL     1       0.363  12.444  18.778  0.00  0.00    +0.000 C 
ATOM     15  C   UNL     1      -0.320  13.803  18.785  0.00  0.00    +0.000 C 
ENDBRANCH  11  14
ENDBRANCH  10  11
ENDBRANCH   7  10
ENDBRANCH   6   7
ENDBRANCH   4   6
ENDBRANCH   1   4
BRANCH   1  16
ATOM     16  C   UNL     1       1.407   5.160  20.626  0.00  0.00    +0.000 C 
BRANCH  16  17
ATOM     17  C   UNL     1       2.096   3.969  21.276  0.00  0.00    +0.000 C 
BRANCH  17  18
ATOM     18  C   UNL     1       1.570   2.611  20.822  0.00  0.00    +0.000 C 
BRANCH  18  19
ATOM     19  C   UNL     1       0.750   2.741  19.528  0.00  0.00    +0.000 C 
BRANCH  19  20
ATOM     20  C   UNL     1       1.626   2.606  18.285  0.00  0.00    +0.000 C 
BRANCH  20  21
ATOM     21  C   UNL     1       2.923   1.867  18.566  0.00  0.00    +0.000 C 
BRANCH  21  22
ATOM     22  C   UNL     1       4.100   2.747  18.157  0.00  0.00    +0.000 C 
BRANCH  22  23
ATOM     23  C   UNL     1       3.722   3.638  16.987  0.00  0.00    +0.000 C 
BRANCH  23  24
ATOM     24  C   UNL     1       4.969   4.164  16.291  0.00  0.00    +0.000 C 
BRANCH  24  25
ATOM     25  C   UNL     1       6.058   4.449  17.315  0.00  0.00    +0.000 C 
BRANCH  25  26
ATOM     26  C   UNL     1       7.088   5.421  16.756  0.00  0.00    +0.000 C 
BRANCH  26  27
ATOM     27  C   UNL     1       6.786   6.839  17.221  0.00  0.00    +0.000 C 
BRANCH  27  29
ATOM     28  C   UNL     1       8.088   8.869  17.907  0.00  0.00    +0.000 C 
ATOM     29  C   UNL     1       7.903   7.376  18.107  0.00  0.00    +0.000 C 
ENDBRANCH  27  29
ENDBRANCH  26  27
ENDBRANCH  25  26
ENDBRANCH  24  25
ENDBRANCH  23  24
ENDBRANCH  22  23
ENDBRANCH  21  22
ENDBRANCH  20  21
ENDBRANCH  19  20
ENDBRANCH  18  19
ENDBRANCH  17  18
ENDBRANCH  16  17
ENDBRANCH   1  16
TORSDOF 19
ENDMDL
MODEL 6
REMARK VINA RESULT:      -5.7      1.452      2.423
REMARK  Name = 
REMARK  25 active torsions:
REMARK  status: ('A' for Active; 'I' for Inactive)
REMARK    1  A    between atoms: C_1  and  C_2
REMARK    2  A    between atoms: C_2  and  C_3
REMARK    3  A    between atoms: C_3  and  C_4
REMARK    4  A    between atoms: C_4  and  C_5
REMARK    5  A    between atoms: C_5  and  C_6
REMARK    6  A    between atoms: C_6  and  C_7
REMARK    7  A    between atoms: C_7  and  C_8
REMARK    8  A    between atoms: C_8  and  C_9
REMARK    9  A    between atoms: C_9  and  C_10
REMARK   10  A    between atoms: C_10  and  C_11
REMARK   11  A    between atoms: C_11  and  C_12
REMARK   12  A    between atoms: C_12  and  C_13
REMARK   13  A    between atoms: C_13  and  C_14
REMARK   14  A    between atoms: C_14  and  S_15
REMARK   15  A    between atoms: S_15  and  N_18
REMARK   16  A    between atoms: N_18  and  C_19
REMARK   17  A    between atoms: C_19  and  C_20
REMARK   18  A    between atoms: C_20  and  C_21
REMARK   19  A    between atoms: C_20  and  C_22
REMARK   20  A    between atoms: C_20  and  C_23
REMARK   21  A    between atoms: C_23  and  N_24
REMARK   22  A    between atoms: N_24  and  C_25
REMARK   23  A    between atoms: N_24  and  C_26
REMARK   24  A    between atoms: N_24  and  C_27
REMARK   25  A    between atoms: C_27  and  C_28
REMARK                            x       y       z     vdW  Elec       q    Type
REMARK                         _______ _______ _______ _____ _____    ______ ____
ROOT
ATOM      1  S   UNL     1       6.931   6.301  17.187  0.00  0.00    +0.000 S 
ATOM      2  O   UNL     1       5.982   7.128  16.468  0.00  0.00    +0.000 OA
ATOM      3  O   UNL     1       7.755   5.321  16.526  0.00  0.00    +0.000 OA
ENDROOT
BRANCH   1   4
ATOM      4  N   UNL     1       6.062   5.483  18.386  0.00  0.00    +0.000 NA
ATOM      5  H   UNL     1       5.414   6.086  18.884  0.00  0.00    +0.000 HD
BRANCH   4   6
ATOM      6  C   UNL     1       5.667   4.084  18.149  0.00  0.00    +0.000 C 
BRANCH   6   7
ATOM      7  C   UNL     1       4.108   3.894  18.246  0.00  0.00    +0.000 C 
ATOM      8  C   UNL     1       3.444   4.900  17.284  0.00  0.00    +0.000 C 
ATOM      9  C   UNL     1       3.779   2.453  17.815  0.00  0.00    +0.000 C 
BRANCH   7  10
ATOM     10  C   UNL     1       3.744   4.156  19.755  0.00  0.00    +0.000 C 
BRANCH  10  11
ATOM     11  N   UNL     1       2.272   4.412  20.210  0.00  0.00    +0.000 N 
ATOM     12  C   UNL     1       1.908   3.602  21.459  0.00  0.00    +0.000 C 
ATOM     13  C   UNL     1       1.944   5.879  20.475  0.00  0.00    +0.000 C 
BRANCH  11  14
ATOM     14  C   UNL     1       1.298   3.892  19.094  0.00  0.00    +0.000 C 
ATOM     15  C   UNL     1       0.695   2.526  19.387  0.00  0.00    +0.000 C 
ENDBRANCH  11  14
ENDBRANCH  10  11
ENDBRANCH   7  10
ENDBRANCH   6   7
ENDBRANCH   4   6
ENDBRANCH   1   4
BRANCH   1  16
ATOM     16  C   UNL     1       7.990   7.371  18.181  0.00  0.00    +0.000 C 
BRANCH  16  17
ATOM     17  C   UNL     1       7.977   8.794  17.641  0.00  0.00    +0.000 C 
BRANCH  17  18
ATOM     18  C   UNL     1       8.861   9.769  18.412  0.00  0.00    +0.000 C 
BRANCH  18  19
ATOM     19  C   UNL     1       8.724  11.196  17.858  0.00  0.00    +0.000 C 
BRANCH  19  20
ATOM     20  C   UNL     1      10.066  11.922  17.821  0.00  0.00    +0.000 C 
BRANCH  20  21
ATOM     21  C   UNL     1      11.132  11.215  18.641  0.00  0.00    +0.000 C 
BRANCH  21  22
ATOM     22  C   UNL     1      11.931  12.251  19.426  0.00  0.00    +0.000 C 
BRANCH  22  23
ATOM     23  C   UNL     1      11.032  13.001  20.393  0.00  0.00    +0.000 C 
BRANCH  23  24
ATOM     24  C   UNL     1      10.177  12.027  21.192  0.00  0.00    +0.000 C 
BRANCH  24  25
ATOM     25  C   UNL     1       8.853  12.677  21.564  0.00  0.00    +0.000 C 
BRANCH  25  26
ATOM     26  C   UNL     1       8.773  14.096  21.017  0.00  0.00    +0.000 C 
BRANCH  26  27
ATOM     27  C   UNL     1       8.754  15.105  22.157  0.00  0.00    +0.000 C 
BRANCH  27  29
ATOM     28  C   UNL     1      10.786  16.311  22.993  0.00  0.00    +0.000 C 
ATOM     29  C   UNL     1       9.735  16.241  21.900  0.00  0.00    +0.000 C 
ENDBRANCH  27  29
ENDBRANCH  26  27
ENDBRANCH  25  26
ENDBRANCH  24  25
ENDBRANCH  23  24
ENDBRANCH  22  23
ENDBRANCH  21  22
ENDBRANCH  20  21
ENDBRANCH  19  20
ENDBRANCH  18  19
ENDBRANCH  17  18
ENDBRANCH  16  17
ENDBRANCH   1  16
TORSDOF 19
ENDMDL
MODEL 7
REMARK VINA RESULT:      -5.7      4.771      7.090
REMARK  Name = 
REMARK  25 active torsions:
REMARK  status: ('A' for Active; 'I' for Inactive)
REMARK    1  A    between atoms: C_1  and  C_2
REMARK    2  A    between atoms: C_2  and  C_3
REMARK    3  A    between atoms: C_3  and  C_4
REMARK    4  A    between atoms: C_4  and  C_5
REMARK    5  A    between atoms: C_5  and  C_6
REMARK    6  A    between atoms: C_6  and  C_7
REMARK    7  A    between atoms: C_7  and  C_8
REMARK    8  A    between atoms: C_8  and  C_9
REMARK    9  A    between atoms: C_9  and  C_10
REMARK   10  A    between atoms: C_10  and  C_11
REMARK   11  A    between atoms: C_11  and  C_12
REMARK   12  A    between atoms: C_12  and  C_13
REMARK   13  A    between atoms: C_13  and  C_14
REMARK   14  A    between atoms: C_14  and  S_15
REMARK   15  A    between atoms: S_15  and  N_18
REMARK   16  A    between atoms: N_18  and  C_19
REMARK   17  A    between atoms: C_19  and  C_20
REMARK   18  A    between atoms: C_20  and  C_21
REMARK   19  A    between atoms: C_20  and  C_22
REMARK   20  A    between atoms: C_20  and  C_23
REMARK   21  A    between atoms: C_23  and  N_24
REMARK   22  A    between atoms: N_24  and  C_25
REMARK   23  A    between atoms: N_24  and  C_26
REMARK   24  A    between atoms: N_24  and  C_27
REMARK   25  A    between atoms: C_27  and  C_28
REMARK                            x       y       z     vdW  Elec       q    Type
REMARK                         _______ _______ _______ _____ _____    ______ ____
ROOT
ATOM      1  S   UNL     1       6.947   4.726  17.279  0.00  0.00    +0.000 S 
ATOM      2  O   UNL     1       7.431   4.597  15.918  0.00  0.00    +0.000 OA
ATOM      3  O   UNL     1       7.772   4.426  18.422  0.00  0.00    +0.000 OA
ENDROOT
BRANCH   1   4
ATOM      4  N   UNL     1       5.565   3.758  17.404  0.00  0.00    +0.000 NA
ATOM      5  H   UNL     1       5.511   3.052  16.676  0.00  0.00    +0.000 HD
BRANCH   4   6
ATOM      6  C   UNL     1       5.055   3.416  18.743  0.00  0.00    +0.000 C 
BRANCH   6   7
ATOM      7  C   UNL     1       3.680   2.654  18.665  0.00  0.00    +0.000 C 
ATOM      8  C   UNL     1       2.695   3.527  17.862  0.00  0.00    +0.000 C 
ATOM      9  C   UNL     1       3.920   1.319  17.938  0.00  0.00    +0.000 C 
BRANCH   7  10
ATOM     10  C   UNL     1       3.231   2.440  20.159  0.00  0.00    +0.000 C 
BRANCH  10  11
ATOM     11  N   UNL     1       1.989   3.175  20.755  0.00  0.00    +0.000 N 
ATOM     12  C   UNL     1       0.874   3.355  19.718  0.00  0.00    +0.000 C 
ATOM     13  C   UNL     1       1.394   2.501  21.988  0.00  0.00    +0.000 C 
BRANCH  11  14
ATOM     14  C   UNL     1       2.407   4.635  21.155  0.00  0.00    +0.000 C 
ATOM     15  C   UNL     1       1.746   5.719  20.316  0.00  0.00    +0.000 C 
ENDBRANCH  11  14
ENDBRANCH  10  11
ENDBRANCH   7  10
ENDBRANCH   6   7
ENDBRANCH   4   6
ENDBRANCH   1   4
BRANCH   1  16
ATOM     16  C   UNL     1       6.248   6.375  17.488  0.00  0.00    +0.000 C 
BRANCH  16  17
ATOM     17  C   UNL     1       4.984   6.533  16.655  0.00  0.00    +0.000 C 
BRANCH  17  18
ATOM     18  C   UNL     1       3.706   6.693  17.473  0.00  0.00    +0.000 C 
BRANCH  18  19
ATOM     19  C   UNL     1       3.402   8.176  17.739  0.00  0.00    +0.000 C 
BRANCH  19  20
ATOM     20  C   UNL     1       1.981   8.380  18.258  0.00  0.00    +0.000 C 
BRANCH  20  21
ATOM     21  C   UNL     1       1.346   9.654  17.728  0.00  0.00    +0.000 C 
BRANCH  21  22
ATOM     22  C   UNL     1       1.382  10.723  18.817  0.00  0.00    +0.000 C 
BRANCH  22  23
ATOM     23  C   UNL     1       0.196  10.572  19.753  0.00  0.00    +0.000 C 
BRANCH  23  24
ATOM     24  C   UNL     1      -0.768  11.738  19.585  0.00  0.00    +0.000 C 
BRANCH  24  25
ATOM     25  C   UNL     1      -2.108  11.236  19.069  0.00  0.00    +0.000 C 
BRANCH  25  26
ATOM     26  C   UNL     1      -2.075  11.055  17.557  0.00  0.00    +0.000 C 
BRANCH  26  27
ATOM     27  C   UNL     1      -3.074   9.990  17.127  0.00  0.00    +0.000 C 
BRANCH  27  29
ATOM     28  C   UNL     1      -3.574  10.564  14.738  0.00  0.00    +0.000 C 
ATOM     29  C   UNL     1      -2.864   9.598  15.670  0.00  0.00    +0.000 C 
ENDBRANCH  27  29
ENDBRANCH  26  27
ENDBRANCH  25  26
ENDBRANCH  24  25
ENDBRANCH  23  24
ENDBRANCH  22  23
ENDBRANCH  21  22
ENDBRANCH  20  21
ENDBRANCH  19  20
ENDBRANCH  18  19
ENDBRANCH  17  18
ENDBRANCH  16  17
ENDBRANCH   1  16
TORSDOF 19
ENDMDL
MODEL 8
REMARK VINA RESULT:      -5.6      1.975      2.968
REMARK  Name = 
REMARK  25 active torsions:
REMARK  status: ('A' for Active; 'I' for Inactive)
REMARK    1  A    between atoms: C_1  and  C_2
REMARK    2  A    between atoms: C_2  and  C_3
REMARK    3  A    between atoms: C_3  and  C_4
REMARK    4  A    between atoms: C_4  and  C_5
REMARK    5  A    between atoms: C_5  and  C_6
REMARK    6  A    between atoms: C_6  and  C_7
REMARK    7  A    between atoms: C_7  and  C_8
REMARK    8  A    between atoms: C_8  and  C_9
REMARK    9  A    between atoms: C_9  and  C_10
REMARK   10  A    between atoms: C_10  and  C_11
REMARK   11  A    between atoms: C_11  and  C_12
REMARK   12  A    between atoms: C_12  and  C_13
REMARK   13  A    between atoms: C_13  and  C_14
REMARK   14  A    between atoms: C_14  and  S_15
REMARK   15  A    between atoms: S_15  and  N_18
REMARK   16  A    between atoms: N_18  and  C_19
REMARK   17  A    between atoms: C_19  and  C_20
REMARK   18  A    between atoms: C_20  and  C_21
REMARK   19  A    between atoms: C_20  and  C_22
REMARK   20  A    between atoms: C_20  and  C_23
REMARK   21  A    between atoms: C_23  and  N_24
REMARK   22  A    between atoms: N_24  and  C_25
REMARK   23  A    between atoms: N_24  and  C_26
REMARK   24  A    between atoms: N_24  and  C_27
REMARK   25  A    between atoms: C_27  and  C_28
REMARK                            x       y       z     vdW  Elec       q    Type
REMARK                         _______ _______ _______ _____ _____    ______ ____
ROOT
ATOM      1  S   UNL     1       6.280   5.864  16.140  0.00  0.00    +0.000 S 
ATOM      2  O   UNL     1       5.194   6.396  15.339  0.00  0.00    +0.000 OA
ATOM      3  O   UNL     1       7.614   5.703  15.620  0.00  0.00    +0.000 OA
ENDROOT
BRANCH   1   4
ATOM      4  N   UNL     1       5.784   4.345  16.695  0.00  0.00    +0.000 NA
ATOM      5  H   UNL     1       6.390   3.973  17.421  0.00  0.00    +0.000 HD
BRANCH   4   6
ATOM      6  C   UNL     1       4.343   4.052  16.776  0.00  0.00    +0.000 C 
BRANCH   6   7
ATOM      7  C   UNL     1       3.946   3.463  18.181  0.00  0.00    +0.000 C 
ATOM      8  C   UNL     1       3.714   1.948  18.015  0.00  0.00    +0.000 C 
ATOM      9  C   UNL     1       5.117   3.717  19.148  0.00  0.00    +0.000 C 
BRANCH   7  10
ATOM     10  C   UNL     1       2.646   4.239  18.611  0.00  0.00    +0.000 C 
BRANCH  10  11
ATOM     11  N   UNL     1       1.979   4.012  20.005  0.00  0.00    +0.000 N 
ATOM     12  C   UNL     1       0.552   3.468  19.879  0.00  0.00    +0.000 C 
ATOM     13  C   UNL     1       2.765   3.088  20.932  0.00  0.00    +0.000 C 
BRANCH  11  14
ATOM     14  C   UNL     1       1.822   5.399  20.724  0.00  0.00    +0.000 C 
ATOM     15  C   UNL     1       2.211   6.589  19.860  0.00  0.00    +0.000 C 
ENDBRANCH  11  14
ENDBRANCH  10  11
ENDBRANCH   7  10
ENDBRANCH   6   7
ENDBRANCH   4   6
ENDBRANCH   1   4
BRANCH   1  16
ATOM     16  C   UNL     1       6.369   6.795  17.682  0.00  0.00    +0.000 C 
BRANCH  16  17
ATOM     17  C   UNL     1       6.971   8.173  17.444  0.00  0.00    +0.000 C 
BRANCH  17  18
ATOM     18  C   UNL     1       8.445   8.290  17.824  0.00  0.00    +0.000 C 
BRANCH  18  19
ATOM     19  C   UNL     1       8.672   9.452  18.804  0.00  0.00    +0.000 C 
BRANCH  19  20
ATOM     20  C   UNL     1       8.773  10.793  18.081  0.00  0.00    +0.000 C 
BRANCH  20  21
ATOM     21  C   UNL     1      10.169  11.387  18.150  0.00  0.00    +0.000 C 
BRANCH  21  22
ATOM     22  C   UNL     1      10.793  11.044  19.499  0.00  0.00    +0.000 C 
BRANCH  22  23
ATOM     23  C   UNL     1      11.173  12.308  20.250  0.00  0.00    +0.000 C 
BRANCH  23  24
ATOM     24  C   UNL     1      10.934  13.537  19.384  0.00  0.00    +0.000 C 
BRANCH  24  25
ATOM     25  C   UNL     1       9.994  14.500  20.092  0.00  0.00    +0.000 C 
BRANCH  25  26
ATOM     26  C   UNL     1       9.087  15.207  19.093  0.00  0.00    +0.000 C 
BRANCH  26  27
ATOM     27  C   UNL     1       7.873  14.345  18.776  0.00  0.00    +0.000 C 
BRANCH  27  29
ATOM     28  C   UNL     1       5.550  14.617  17.874  0.00  0.00    +0.000 C 
ATOM     29  C   UNL     1       7.012  14.987  17.696  0.00  0.00    +0.000 C 
ENDBRANCH  27  29
ENDBRANCH  26  27
ENDBRANCH  25  26
ENDBRANCH  24  25
ENDBRANCH  23  24
ENDBRANCH  22  23
ENDBRANCH  21  22
ENDBRANCH  20  21
ENDBRANCH  19  20
ENDBRANCH  18  19
ENDBRANCH  17  18
ENDBRANCH  16  17
ENDBRANCH   1  16
TORSDOF 19
ENDMDL
MODEL 9
REMARK VINA RESULT:      -5.6      7.464      9.948
REMARK  Name = 
REMARK  25 active torsions:
REMARK  status: ('A' for Active; 'I' for Inactive)
REMARK    1  A    between atoms: C_1  and  C_2
REMARK    2  A    between atoms: C_2  and  C_3
REMARK    3  A    between atoms: C_3  and  C_4
REMARK    4  A    between atoms: C_4  and  C_5
REMARK    5  A    between atoms: C_5  and  C_6
REMARK    6  A    between atoms: C_6  and  C_7
REMARK    7  A    between atoms: C_7  and  C_8
REMARK    8  A    between atoms: C_8  and  C_9
REMARK    9  A    between atoms: C_9  and  C_10
REMARK   10  A    between atoms: C_10  and  C_11
REMARK   11  A    between atoms: C_11  and  C_12
REMARK   12  A    between atoms: C_12  and  C_13
REMARK   13  A    between atoms: C_13  and  C_14
REMARK   14  A    between atoms: C_14  and  S_15
REMARK   15  A    between atoms: S_15  and  N_18
REMARK   16  A    between atoms: N_18  and  C_19
REMARK   17  A    between atoms: C_19  and  C_20
REMARK   18  A    between atoms: C_20  and  C_21
REMARK   19  A    between atoms: C_20  and  C_22
REMARK   20  A    between atoms: C_20  and  C_23
REMARK   21  A    between atoms: C_23  and  N_24
REMARK   22  A    between atoms: N_24  and  C_25
REMARK   23  A    between atoms: N_24  and  C_26
REMARK   24  A    between atoms: N_24  and  C_27
REMARK   25  A    between atoms: C_27  and  C_28
REMARK                            x       y       z     vdW  Elec       q    Type
REMARK                         _______ _______ _______ _____ _____    ______ ____
ROOT
ATOM      1  S   UNL     1       0.893   8.814  21.405  0.00  0.00    +0.000 S 
ATOM      2  O   UNL     1       1.545   9.544  22.476  0.00  0.00    +0.000 OA
ATOM      3  O   UNL     1      -0.426   8.251  21.548  0.00  0.00    +0.000 OA
ENDROOT
BRANCH   1   4
ATOM      4  N   UNL     1       1.924   7.543  20.976  0.00  0.00    +0.000 NA
ATOM      5  H   UNL     1       1.873   6.760  21.621  0.00  0.00    +0.000 HD
BRANCH   4   6
ATOM      6  C   UNL     1       2.143   7.256  19.548  0.00  0.00    +0.000 C 
BRANCH   6   7
ATOM      7  C   UNL     1       2.578   5.761  19.315  0.00  0.00    +0.000 C 
ATOM      8  C   UNL     1       2.206   4.954  20.574  0.00  0.00    +0.000 C 
ATOM      9  C   UNL     1       1.804   5.228  18.095  0.00  0.00    +0.000 C 
BRANCH   7  10
ATOM     10  C   UNL     1       4.130   5.810  19.053  0.00  0.00    +0.000 C 
BRANCH  10  11
ATOM     11  N   UNL     1       4.859   4.694  18.240  0.00  0.00    +0.000 N 
ATOM     12  C   UNL     1       6.362   4.655  18.535  0.00  0.00    +0.000 C 
ATOM     13  C   UNL     1       4.291   3.293  18.451  0.00  0.00    +0.000 C 
BRANCH  11  14
ATOM     14  C   UNL     1       4.756   5.032  16.710  0.00  0.00    +0.000 C 
ATOM     15  C   UNL     1       4.925   6.510  16.392  0.00  0.00    +0.000 C 
ENDBRANCH  11  14
ENDBRANCH  10  11
ENDBRANCH   7  10
ENDBRANCH   6   7
ENDBRANCH   4   6
ENDBRANCH   1   4
BRANCH   1  16
ATOM     16  C   UNL     1       0.931   9.825  19.912  0.00  0.00    +0.000 C 
BRANCH  16  17
ATOM     17  C   UNL     1       0.185  11.134  20.129  0.00  0.00    +0.000 C 
BRANCH  17  18
ATOM     18  C   UNL     1      -1.206  11.176  19.505  0.00  0.00    +0.000 C 
BRANCH  18  19
ATOM     19  C   UNL     1      -1.253  10.361  18.202  0.00  0.00    +0.000 C 
BRANCH  19  20
ATOM     20  C   UNL     1      -2.287  10.913  17.224  0.00  0.00    +0.000 C 
BRANCH  20  21
ATOM     21  C   UNL     1      -3.524  11.447  17.926  0.00  0.00    +0.000 C 
BRANCH  21  22
ATOM     22  C   UNL     1      -4.765  11.020  17.148  0.00  0.00    +0.000 C 
BRANCH  22  23
ATOM     23  C   UNL     1      -5.999  11.083  18.031  0.00  0.00    +0.000 C 
BRANCH  23  24
ATOM     24  C   UNL     1      -6.348  12.528  18.357  0.00  0.00    +0.000 C 
BRANCH  24  25
ATOM     25  C   UNL     1      -6.998  12.611  19.730  0.00  0.00    +0.000 C 
BRANCH  25  26
ATOM     26  C   UNL     1      -5.993  12.284  20.827  0.00  0.00    +0.000 C 
BRANCH  26  27
ATOM     27  C   UNL     1      -5.245  13.541  21.254  0.00  0.00    +0.000 C 
BRANCH  27  29
ATOM     28  C   UNL     1      -3.165  12.572  22.264  0.00  0.00    +0.000 C 
ATOM     29  C   UNL     1      -3.740  13.361  21.101  0.00  0.00    +0.000 C 
ENDBRANCH  27  29
ENDBRANCH  26  27
ENDBRANCH  25  26
ENDBRANCH  24  25
ENDBRANCH  23  24
ENDBRANCH  22  23
ENDBRANCH  21  22
ENDBRANCH  20  21
ENDBRANCH  19  20
ENDBRANCH  18  19
ENDBRANCH  17  18
ENDBRANCH  16  17
ENDBRANCH   1  16
TORSDOF 19
ENDMDL
