MODEL 1
REMARK VINA RESULT:      -6.9      0.000      0.000
REMARK  Name = 
REMARK  4 active torsions:
REMARK  status: ('A' for Active; 'I' for Inactive)
REMARK    1  A    between atoms: C_1  and  N_2
REMARK    2  A    between atoms: C_6  and  C_7
REMARK    3  A    between atoms: N_9  and  C_10
REMARK    4  A    between atoms: C_10  and  C_11
REMARK                            x       y       z     vdW  Elec       q    Type
REMARK                         _______ _______ _______ _____ _____    ______ ____
ROOT
ATOM      1  C   UNL     1       5.505   5.215  18.442  0.00  0.00    +0.000 C 
ATOM      2  O   UNL     1       6.370   5.931  18.943  0.00  0.00    +0.000 OA
ATOM      3  N   UNL     1       5.808   4.391  17.381  0.00  0.00    +0.000 N 
ATOM      4  H   UNL     1       5.146   3.703  17.069  0.00  0.00    +0.000 HD
ENDROOT
BRANCH   1  10
ATOM      5  C   UNL     1       3.427   7.417  17.881  0.00  0.00    +0.000 C 
ATOM      6  N   UNL     1       3.217   6.208  18.644  0.00  0.00    +0.000 N 
ATOM      7  N   UNL     1       1.991   6.008  19.172  0.00  0.00    +0.000 NA
ATOM      8  C   UNL     1       2.099   4.839  19.795  0.00  0.00    +0.000 A 
ATOM      9  C   UNL     1       3.390   4.272  19.660  0.00  0.00    +0.000 A 
ATOM     10  C   UNL     1       4.127   5.193  18.913  0.00  0.00    +0.000 A 
ATOM     11  C   UNL     1       3.731   2.959  20.283  0.00  0.00    +0.000 C 
ATOM     12  C   UNL     1       2.481   2.195  20.760  0.00  0.00    +0.000 C 
ATOM     13  C   UNL     1       1.468   3.111  21.462  0.00  0.00    +0.000 C 
ATOM     14  C   UNL     1       0.962   4.210  20.517  0.00  0.00    +0.000 C 
ENDBRANCH   1  10
BRANCH   3  15
ATOM     15  C   UNL     1       7.124   4.342  16.778  0.00  0.00    +0.000 C 
BRANCH  15  16
ATOM     16  C   UNL     1       7.018   4.425  15.289  0.00  0.00    +0.000 A 
ATOM     17  C   UNL     1       6.187   3.654  14.494  0.00  0.00    +0.000 A 
ATOM     18  S   UNL     1       6.421   4.039  12.847  0.00  0.00    +0.000 S 
ATOM     19  C   UNL     1       7.582   5.222  13.295  0.00  0.00    +0.000 A 
ATOM     20  N   UNL     1       8.192   5.970  12.360  0.00  0.00    +0.000 N 
ATOM     21  N   UNL     1       7.818   5.322  14.582  0.00  0.00    +0.000 NA
ATOM     22  H   UNL     1       8.167   5.660  11.397  0.00  0.00    +0.000 HD
ATOM     23  H   UNL     1       9.038   6.454  12.635  0.00  0.00    +0.000 HD
ENDBRANCH  15  16
ENDBRANCH   3  15
TORSDOF 3
ENDMDL
MODEL 2
REMARK VINA RESULT:      -6.8      2.945      6.899
REMARK  Name = 
REMARK  4 active torsions:
REMARK  status: ('A' for Active; 'I' for Inactive)
REMARK    1  A    between atoms: C_1  and  N_2
REMARK    2  A    between atoms: C_6  and  C_7
REMARK    3  A    between atoms: N_9  and  C_10
REMARK    4  A    between atoms: C_10  and  C_11
REMARK                            x       y       z     vdW  Elec       q    Type
REMARK                         _______ _______ _______ _____ _____    ______ ____
ROOT
ATOM      1  C   UNL     1       4.218   4.911  16.700  0.00  0.00    +0.000 C 
ATOM      2  O   UNL     1       3.718   5.831  17.345  0.00  0.00    +0.000 OA
ATOM      3  N   UNL     1       3.634   3.664  16.696  0.00  0.00    +0.000 N 
ATOM      4  H   UNL     1       3.955   2.957  16.058  0.00  0.00    +0.000 HD
ENDROOT
BRANCH   1  10
ATOM      5  C   UNL     1       6.747   6.373  17.675  0.00  0.00    +0.000 C 
ATOM      6  N   UNL     1       6.560   5.735  16.391  0.00  0.00    +0.000 N 
ATOM      7  N   UNL     1       7.589   5.775  15.518  0.00  0.00    +0.000 NA
ATOM      8  C   UNL     1       7.134   5.115  14.459  0.00  0.00    +0.000 A 
ATOM      9  C   UNL     1       5.815   4.634  14.647  0.00  0.00    +0.000 A 
ATOM     10  C   UNL     1       5.438   5.064  15.920  0.00  0.00    +0.000 A 
ATOM     11  C   UNL     1       5.109   3.865  13.580  0.00  0.00    +0.000 C 
ATOM     12  C   UNL     1       6.065   3.397  12.466  0.00  0.00    +0.000 C 
ATOM     13  C   UNL     1       7.066   4.488  12.058  0.00  0.00    +0.000 C 
ATOM     14  C   UNL     1       7.956   4.898  13.239  0.00  0.00    +0.000 C 
ENDBRANCH   1  10
BRANCH   3  15
ATOM     15  C   UNL     1       2.445   3.352  17.461  0.00  0.00    +0.000 C 
BRANCH  15  16
ATOM     16  C   UNL     1       2.811   2.959  18.857  0.00  0.00    +0.000 A 
ATOM     17  C   UNL     1       2.024   3.145  19.980  0.00  0.00    +0.000 A 
ATOM     18  S   UNL     1       2.847   2.600  21.374  0.00  0.00    +0.000 S 
ATOM     19  C   UNL     1       4.177   2.126  20.397  0.00  0.00    +0.000 A 
ATOM     20  N   UNL     1       5.260   1.551  20.946  0.00  0.00    +0.000 N 
ATOM     21  N   UNL     1       4.050   2.375  19.114  0.00  0.00    +0.000 NA
ATOM     22  H   UNL     1       5.402   1.638  21.944  0.00  0.00    +0.000 HD
ATOM     23  H   UNL     1       6.105   1.532  20.390  0.00  0.00    +0.000 HD
ENDBRANCH  15  16
ENDBRANCH   3  15
TORSDOF 3
ENDMDL
MODEL 3
REMARK VINA RESULT:      -6.8      3.872      6.954
REMARK  Name = 
REMARK  4 active torsions:
REMARK  status: ('A' for Active; 'I' for Inactive)
REMARK    1  A    between atoms: C_1  and  N_2
REMARK    2  A    between atoms: C_6  and  C_7
REMARK    3  A    between atoms: N_9  and  C_10
REMARK    4  A    between atoms: C_10  and  C_11
REMARK                            x       y       z     vdW  Elec       q    Type
REMARK                         _______ _______ _______ _____ _____    ______ ____
ROOT
ATOM      1  C   UNL     1       2.874   5.415  19.993  0.00  0.00    +0.000 C 
ATOM      2  O   UNL     1       2.586   4.673  20.931  0.00  0.00    +0.000 OA
ATOM      3  N   UNL     1       2.432   6.719  19.973  0.00  0.00    +0.000 N 
ATOM      4  H   UNL     1       2.785   7.362  19.287  0.00  0.00    +0.000 HD
ENDROOT
BRANCH   1  10
ATOM      5  C   UNL     1       1.749   3.996  17.502  0.00  0.00    +0.000 C 
ATOM      6  N   UNL     1       3.131   4.336  17.750  0.00  0.00    +0.000 N 
ATOM      7  N   UNL     1       4.035   4.004  16.805  0.00  0.00    +0.000 NA
ATOM      8  C   UNL     1       5.189   4.441  17.298  0.00  0.00    +0.000 A 
ATOM      9  C   UNL     1       5.034   5.069  18.559  0.00  0.00    +0.000 A 
ATOM     10  C   UNL     1       3.674   4.978  18.857  0.00  0.00    +0.000 A 
ATOM     11  C   UNL     1       6.204   5.633  19.295  0.00  0.00    +0.000 C 
ATOM     12  C   UNL     1       7.457   5.744  18.406  0.00  0.00    +0.000 C 
ATOM     13  C   UNL     1       7.661   4.504  17.523  0.00  0.00    +0.000 C 
ATOM     14  C   UNL     1       6.476   4.298  16.569  0.00  0.00    +0.000 C 
ENDBRANCH   1  10
BRANCH   3  15
ATOM     15  C   UNL     1       1.590   7.278  21.011  0.00  0.00    +0.000 C 
BRANCH  15  16
ATOM     16  C   UNL     1       1.231   8.692  20.684  0.00  0.00    +0.000 A 
ATOM     17  C   UNL     1       0.779   9.639  21.587  0.00  0.00    +0.000 A 
ATOM     18  S   UNL     1       0.437  11.107  20.783  0.00  0.00    +0.000 S 
ATOM     19  C   UNL     1       0.937  10.402  19.299  0.00  0.00    +0.000 A 
ATOM     20  N   UNL     1       0.924  11.119  18.162  0.00  0.00    +0.000 N 
ATOM     21  N   UNL     1       1.313   9.147  19.369  0.00  0.00    +0.000 NA
ATOM     22  H   UNL     1       0.378  11.970  18.132  0.00  0.00    +0.000 HD
ATOM     23  H   UNL     1       0.969  10.604  17.291  0.00  0.00    +0.000 HD
ENDBRANCH  15  16
ENDBRANCH   3  15
TORSDOF 3
ENDMDL
MODEL 4
REMARK VINA RESULT:      -6.7      2.605      3.432
REMARK  Name = 
REMARK  4 active torsions:
REMARK  status: ('A' for Active; 'I' for Inactive)
REMARK    1  A    between atoms: C_1  and  N_2
REMARK    2  A    between atoms: C_6  and  C_7
REMARK    3  A    between atoms: N_9  and  C_10
REMARK    4  A    between atoms: C_10  and  C_11
REMARK                            x       y       z     vdW  Elec       q    Type
REMARK                         _______ _______ _______ _____ _____    ______ ____
ROOT
ATOM      1  C   UNL     1       5.718   5.021  15.821  0.00  0.00    +0.000 C 
ATOM      2  O   UNL     1       5.382   6.133  15.416  0.00  0.00    +0.000 OA
ATOM      3  N   UNL     1       6.452   4.179  15.016  0.00  0.00    +0.000 N 
ATOM      4  H   UNL     1       6.849   3.337  15.395  0.00  0.00    +0.000 HD
ENDROOT
BRANCH   1  10
ATOM      5  C   UNL     1       7.550   5.154  18.293  0.00  0.00    +0.000 C 
ATOM      6  N   UNL     1       6.219   4.594  18.235  0.00  0.00    +0.000 N 
ATOM      7  N   UNL     1       5.712   4.071  19.371  0.00  0.00    +0.000 NA
ATOM      8  C   UNL     1       4.502   3.652  19.016  0.00  0.00    +0.000 A 
ATOM      9  C   UNL     1       4.216   3.914  17.654  0.00  0.00    +0.000 A 
ATOM     10  C   UNL     1       5.364   4.520  17.142  0.00  0.00    +0.000 A 
ATOM     11  C   UNL     1       2.910   3.524  17.045  0.00  0.00    +0.000 C 
ATOM     12  C   UNL     1       1.860   3.144  18.105  0.00  0.00    +0.000 C 
ATOM     13  C   UNL     1       2.448   2.273  19.226  0.00  0.00    +0.000 C 
ATOM     14  C   UNL     1       3.565   3.009  19.976  0.00  0.00    +0.000 C 
ENDBRANCH   1  10
BRANCH   3  15
ATOM     15  C   UNL     1       6.837   4.523  13.663  0.00  0.00    +0.000 C 
BRANCH  15  16
ATOM     16  C   UNL     1       6.171   3.610  12.684  0.00  0.00    +0.000 A 
ATOM     17  C   UNL     1       6.741   2.486  12.112  0.00  0.00    +0.000 A 
ATOM     18  S   UNL     1       5.652   1.765  11.012  0.00  0.00    +0.000 S 
ATOM     19  C   UNL     1       4.486   2.970  11.387  0.00  0.00    +0.000 A 
ATOM     20  N   UNL     1       3.275   2.954  10.806  0.00  0.00    +0.000 N 
ATOM     21  N   UNL     1       4.873   3.877  12.253  0.00  0.00    +0.000 NA
ATOM     22  H   UNL     1       3.146   2.403   9.967  0.00  0.00    +0.000 HD
ATOM     23  H   UNL     1       2.730   3.806  10.850  0.00  0.00    +0.000 HD
ENDBRANCH  15  16
ENDBRANCH   3  15
TORSDOF 3
ENDMDL
MODEL 5
REMARK VINA RESULT:      -6.7      1.893      3.516
REMARK  Name = 
REMARK  4 active torsions:
REMARK  status: ('A' for Active; 'I' for Inactive)
REMARK    1  A    between atoms: C_1  and  N_2
REMARK    2  A    between atoms: C_6  and  C_7
REMARK    3  A    between atoms: N_9  and  C_10
REMARK    4  A    between atoms: C_10  and  C_11
REMARK                            x       y       z     vdW  Elec       q    Type
REMARK                         _______ _______ _______ _____ _____    ______ ____
ROOT
ATOM      1  C   UNL     1       3.892   4.850  18.733  0.00  0.00    +0.000 C 
ATOM      2  O   UNL     1       3.537   3.704  18.462  0.00  0.00    +0.000 OA
ATOM      3  N   UNL     1       5.194   5.245  18.524  0.00  0.00    +0.000 N 
ATOM      4  H   UNL     1       5.448   6.214  18.606  0.00  0.00    +0.000 HD
ENDROOT
BRANCH   1  10
ATOM      5  C   UNL     1       2.310   4.506  21.353  0.00  0.00    +0.000 C 
ATOM      6  N   UNL     1       2.286   5.654  20.476  0.00  0.00    +0.000 N 
ATOM      7  N   UNL     1       1.495   6.690  20.825  0.00  0.00    +0.000 NA
ATOM      8  C   UNL     1       1.685   7.578  19.855  0.00  0.00    +0.000 A 
ATOM      9  C   UNL     1       2.610   7.126  18.882  0.00  0.00    +0.000 A 
ATOM     10  C   UNL     1       2.988   5.846  19.291  0.00  0.00    +0.000 A 
ATOM     11  C   UNL     1       2.970   7.967  17.702  0.00  0.00    +0.000 C 
ATOM     12  C   UNL     1       2.503   9.426  17.859  0.00  0.00    +0.000 C 
ATOM     13  C   UNL     1       1.085   9.528  18.440  0.00  0.00    +0.000 C 
ATOM     14  C   UNL     1       1.009   8.902  19.839  0.00  0.00    +0.000 C 
ENDBRANCH   1  10
BRANCH   3  15
ATOM     15  C   UNL     1       6.214   4.350  18.018  0.00  0.00    +0.000 C 
BRANCH  15  16
ATOM     16  C   UNL     1       6.280   4.426  16.526  0.00  0.00    +0.000 A 
ATOM     17  C   UNL     1       5.371   3.860  15.649  0.00  0.00    +0.000 A 
ATOM     18  S   UNL     1       5.853   4.143  14.035  0.00  0.00    +0.000 S 
ATOM     19  C   UNL     1       7.216   5.021  14.603  0.00  0.00    +0.000 A 
ATOM     20  N   UNL     1       8.079   5.580  13.737  0.00  0.00    +0.000 N 
ATOM     21  N   UNL     1       7.339   5.088  15.907  0.00  0.00    +0.000 NA
ATOM     22  H   UNL     1       8.075   5.265  12.776  0.00  0.00    +0.000 HD
ATOM     23  H   UNL     1       8.985   5.851  14.099  0.00  0.00    +0.000 HD
ENDBRANCH  15  16
ENDBRANCH   3  15
TORSDOF 3
ENDMDL
MODEL 6
REMARK VINA RESULT:      -6.7      2.653      6.741
REMARK  Name = 
REMARK  4 active torsions:
REMARK  status: ('A' for Active; 'I' for Inactive)
REMARK    1  A    between atoms: C_1  and  N_2
REMARK    2  A    between atoms: C_6  and  C_7
REMARK    3  A    between atoms: N_9  and  C_10
REMARK    4  A    between atoms: C_10  and  C_11
REMARK                            x       y       z     vdW  Elec       q    Type
REMARK                         _______ _______ _______ _____ _____    ______ ____
ROOT
ATOM      1  C   UNL     1       5.101   5.746  18.612  0.00  0.00    +0.000 C 
ATOM      2  O   UNL     1       5.509   5.391  19.716  0.00  0.00    +0.000 OA
ATOM      3  N   UNL     1       3.817   6.219  18.460  0.00  0.00    +0.000 N 
ATOM      4  H   UNL     1       3.533   6.643  17.595  0.00  0.00    +0.000 HD
ENDROOT
BRANCH   1  10
ATOM      5  C   UNL     1       7.672   7.380  18.157  0.00  0.00    +0.000 C 
ATOM      6  N   UNL     1       7.074   6.439  17.237  0.00  0.00    +0.000 N 
ATOM      7  N   UNL     1       7.692   6.245  16.053  0.00  0.00    +0.000 NA
ATOM      8  C   UNL     1       6.933   5.343  15.442  0.00  0.00    +0.000 A 
ATOM      9  C   UNL     1       5.829   4.939  16.232  0.00  0.00    +0.000 A 
ATOM     10  C   UNL     1       5.921   5.683  17.409  0.00  0.00    +0.000 A 
ATOM     11  C   UNL     1       4.845   3.932  15.737  0.00  0.00    +0.000 C 
ATOM     12  C   UNL     1       5.350   3.186  14.486  0.00  0.00    +0.000 C 
ATOM     13  C   UNL     1       6.025   4.126  13.477  0.00  0.00    +0.000 C 
ATOM     14  C   UNL     1       7.253   4.813  14.089  0.00  0.00    +0.000 C 
ENDBRANCH   1  10
BRANCH   3  15
ATOM     15  C   UNL     1       2.874   6.295  19.557  0.00  0.00    +0.000 C 
BRANCH  15  16
ATOM     16  C   UNL     1       2.249   4.959  19.800  0.00  0.00    +0.000 A 
ATOM     17  C   UNL     1       1.613   4.180  18.849  0.00  0.00    +0.000 A 
ATOM     18  S   UNL     1       1.000   2.756  19.565  0.00  0.00    +0.000 S 
ATOM     19  C   UNL     1       1.642   3.248  21.080  0.00  0.00    +0.000 A 
ATOM     20  N   UNL     1       1.500   2.473  22.168  0.00  0.00    +0.000 N 
ATOM     21  N   UNL     1       2.254   4.409  21.081  0.00  0.00    +0.000 NA
ATOM     22  H   UNL     1       0.799   1.743  22.156  0.00  0.00    +0.000 HD
ATOM     23  H   UNL     1       1.653   2.909  23.069  0.00  0.00    +0.000 HD
ENDBRANCH  15  16
ENDBRANCH   3  15
TORSDOF 3
ENDMDL
MODEL 7
REMARK VINA RESULT:      -6.7      4.150      6.583
REMARK  Name = 
REMARK  4 active torsions:
REMARK  status: ('A' for Active; 'I' for Inactive)
REMARK    1  A    between atoms: C_1  and  N_2
REMARK    2  A    between atoms: C_6  and  C_7
REMARK    3  A    between atoms: N_9  and  C_10
REMARK    4  A    between atoms: C_10  and  C_11
REMARK                            x       y       z     vdW  Elec       q    Type
REMARK                         _______ _______ _______ _____ _____    ______ ____
ROOT
ATOM      1  C   UNL     1       3.687   6.748  17.768  0.00  0.00    +0.000 C 
ATOM      2  O   UNL     1       4.384   7.257  16.891  0.00  0.00    +0.000 OA
ATOM      3  N   UNL     1       2.650   7.455  18.333  0.00  0.00    +0.000 N 
ATOM      4  H   UNL     1       1.994   6.994  18.939  0.00  0.00    +0.000 HD
ENDROOT
BRANCH   1  10
ATOM      5  C   UNL     1       6.349   5.731  18.937  0.00  0.00    +0.000 C 
ATOM      6  N   UNL     1       5.127   4.974  18.788  0.00  0.00    +0.000 N 
ATOM      7  N   UNL     1       5.135   3.687  19.197  0.00  0.00    +0.000 NA
ATOM      8  C   UNL     1       3.901   3.265  18.948  0.00  0.00    +0.000 A 
ATOM      9  C   UNL     1       3.084   4.280  18.389  0.00  0.00    +0.000 A 
ATOM     10  C   UNL     1       3.909   5.400  18.271  0.00  0.00    +0.000 A 
ATOM     11  C   UNL     1       1.659   4.021  18.030  0.00  0.00    +0.000 C 
ATOM     12  C   UNL     1       1.135   2.702  18.630  0.00  0.00    +0.000 C 
ATOM     13  C   UNL     1       2.152   1.558  18.508  0.00  0.00    +0.000 C 
ATOM     14  C   UNL     1       3.450   1.883  19.261  0.00  0.00    +0.000 C 
ENDBRANCH   1  10
BRANCH   3  15
ATOM     15  C   UNL     1       2.340   8.822  17.966  0.00  0.00    +0.000 C 
BRANCH  15  16
ATOM     16  C   UNL     1       1.312   9.389  18.891  0.00  0.00    +0.000 A 
ATOM     17  C   UNL     1       0.485  10.465  18.616  0.00  0.00    +0.000 A 
ATOM     18  S   UNL     1      -0.501  10.812  19.967  0.00  0.00    +0.000 S 
ATOM     19  C   UNL     1       0.208   9.498  20.815  0.00  0.00    +0.000 A 
ATOM     20  N   UNL     1      -0.188   9.195  22.062  0.00  0.00    +0.000 N 
ATOM     21  N   UNL     1       1.142   8.846  20.163  0.00  0.00    +0.000 NA
ATOM     22  H   UNL     1      -0.702   9.888  22.591  0.00  0.00    +0.000 HD
ATOM     23  H   UNL     1       0.423   8.601  22.610  0.00  0.00    +0.000 HD
ENDBRANCH  15  16
ENDBRANCH   3  15
TORSDOF 3
ENDMDL
MODEL 8
REMARK VINA RESULT:      -6.6      2.565      3.359
REMARK  Name = 
REMARK  4 active torsions:
REMARK  status: ('A' for Active; 'I' for Inactive)
REMARK    1  A    between atoms: C_1  and  N_2
REMARK    2  A    between atoms: C_6  and  C_7
REMARK    3  A    between atoms: N_9  and  C_10
REMARK    4  A    between atoms: C_10  and  C_11
REMARK                            x       y       z     vdW  Elec       q    Type
REMARK                         _______ _______ _______ _____ _____    ______ ____
ROOT
ATOM      1  C   UNL     1       5.706   5.069  15.896  0.00  0.00    +0.000 C 
ATOM      2  O   UNL     1       5.397   6.194  15.505  0.00  0.00    +0.000 OA
ATOM      3  N   UNL     1       6.411   4.216  15.078  0.00  0.00    +0.000 N 
ATOM      4  H   UNL     1       6.789   3.360  15.445  0.00  0.00    +0.000 HD
ENDROOT
BRANCH   1  10
ATOM      5  C   UNL     1       7.504   5.256  18.390  0.00  0.00    +0.000 C 
ATOM      6  N   UNL     1       6.188   4.663  18.318  0.00  0.00    +0.000 N 
ATOM      7  N   UNL     1       5.679   4.131  19.449  0.00  0.00    +0.000 NA
ATOM      8  C   UNL     1       4.485   3.681  19.082  0.00  0.00    +0.000 A 
ATOM      9  C   UNL     1       4.209   3.932  17.715  0.00  0.00    +0.000 A 
ATOM     10  C   UNL     1       5.348   4.565  17.214  0.00  0.00    +0.000 A 
ATOM     11  C   UNL     1       2.921   3.508  17.091  0.00  0.00    +0.000 C 
ATOM     12  C   UNL     1       1.867   3.106  18.141  0.00  0.00    +0.000 C 
ATOM     13  C   UNL     1       2.462   2.253  19.271  0.00  0.00    +0.000 C 
ATOM     14  C   UNL     1       3.552   3.020  20.033  0.00  0.00    +0.000 C 
ENDBRANCH   1  10
BRANCH   3  15
ATOM     15  C   UNL     1       6.795   4.564  13.725  0.00  0.00    +0.000 C 
BRANCH  15  16
ATOM     16  C   UNL     1       6.079   3.696  12.741  0.00  0.00    +0.000 A 
ATOM     17  C   UNL     1       4.841   3.961  12.182  0.00  0.00    +0.000 A 
ATOM     18  S   UNL     1       4.373   2.684  11.149  0.00  0.00    +0.000 S 
ATOM     19  C   UNL     1       5.852   1.878  11.486  0.00  0.00    +0.000 A 
ATOM     20  N   UNL     1       6.136   0.699  10.908  0.00  0.00    +0.000 N 
ATOM     21  N   UNL     1       6.647   2.489  12.333  0.00  0.00    +0.000 NA
ATOM     22  H   UNL     1       5.381   0.168  10.492  0.00  0.00    +0.000 HD
ATOM     23  H   UNL     1       6.874   0.145  11.325  0.00  0.00    +0.000 HD
ENDBRANCH  15  16
ENDBRANCH   3  15
TORSDOF 3
ENDMDL
MODEL 9
REMARK VINA RESULT:      -6.6      4.125      6.522
REMARK  Name = 
REMARK  4 active torsions:
REMARK  status: ('A' for Active; 'I' for Inactive)
REMARK    1  A    between atoms: C_1  and  N_2
REMARK    2  A    between atoms: C_6  and  C_7
REMARK    3  A    between atoms: N_9  and  C_10
REMARK    4  A    between atoms: C_10  and  C_11
REMARK                            x       y       z     vdW  Elec       q    Type
REMARK                         _______ _______ _______ _____ _____    ______ ____
ROOT
ATOM      1  C   UNL     1       3.689   6.765  17.731  0.00  0.00    +0.000 C 
ATOM      2  O   UNL     1       4.411   7.256  16.865  0.00  0.00    +0.000 OA
ATOM      3  N   UNL     1       2.643   7.486  18.260  0.00  0.00    +0.000 N 
ATOM      4  H   UNL     1       1.969   7.038  18.856  0.00  0.00    +0.000 HD
ENDROOT
BRANCH   1  10
ATOM      5  C   UNL     1       6.336   5.723  18.912  0.00  0.00    +0.000 C 
ATOM      6  N   UNL     1       5.101   4.985  18.780  0.00  0.00    +0.000 N 
ATOM      7  N   UNL     1       5.089   3.706  19.212  0.00  0.00    +0.000 NA
ATOM      8  C   UNL     1       3.847   3.301  18.974  0.00  0.00    +0.000 A 
ATOM      9  C   UNL     1       3.046   4.318  18.399  0.00  0.00    +0.000 A 
ATOM     10  C   UNL     1       3.890   5.422  18.258  0.00  0.00    +0.000 A 
ATOM     11  C   UNL     1       1.616   4.077  18.048  0.00  0.00    +0.000 C 
ATOM     12  C   UNL     1       1.071   2.779  18.673  0.00  0.00    +0.000 C 
ATOM     13  C   UNL     1       2.068   1.616  18.570  0.00  0.00    +0.000 C 
ATOM     14  C   UNL     1       3.373   1.933  19.313  0.00  0.00    +0.000 C 
ENDBRANCH   1  10
BRANCH   3  15
ATOM     15  C   UNL     1       2.352   8.850  17.867  0.00  0.00    +0.000 C 
BRANCH  15  16
ATOM     16  C   UNL     1       1.232   9.401  18.689  0.00  0.00    +0.000 A 
ATOM     17  C   UNL     1       1.150   9.364  20.071  0.00  0.00    +0.000 A 
ATOM     18  S   UNL     1      -0.319  10.059  20.595  0.00  0.00    +0.000 S 
ATOM     19  C   UNL     1      -0.737  10.391  18.963  0.00  0.00    +0.000 A 
ATOM     20  N   UNL     1      -1.891  11.012  18.665  0.00  0.00    +0.000 N 
ATOM     21  N   UNL     1       0.134   9.993  18.066  0.00  0.00    +0.000 NA
ATOM     22  H   UNL     1      -2.621  11.042  19.365  0.00  0.00    +0.000 HD
ATOM     23  H   UNL     1      -2.214  10.951  17.707  0.00  0.00    +0.000 HD
ENDBRANCH  15  16
ENDBRANCH   3  15
TORSDOF 3
ENDMDL
