MODEL 1
REMARK VINA RESULT:      -7.8      0.000      0.000
REMARK  Name = 
REMARK  7 active torsions:
REMARK  status: ('A' for Active; 'I' for Inactive)
REMARK    1  A    between atoms: C_1  and  C_2
REMARK    2  A    between atoms: C_4  and  C_5
REMARK    3  A    between atoms: N_7  and  C_8
REMARK    4  A    between atoms: C_9  and  C_10
REMARK    5  A    between atoms: N_12  and  C_13
REMARK    6  A    between atoms: C_13  and  C_14
REMARK    7  A    between atoms: C_21  and  C_22
REMARK                            x       y       z     vdW  Elec       q    Type
REMARK                         _______ _______ _______ _____ _____    ______ ____
ROOT
ATOM      1  C   UNL     1       5.759   6.132  16.826  0.00  0.00    +0.000 A 
ATOM      2  C   UNL     1       6.087   5.058  15.959  0.00  0.00    +0.000 A 
ATOM      3  C   UNL     1       7.325   4.804  15.181  0.00  0.00    +0.000 C 
ATOM      4  N   UNL     1       5.129   4.121  15.969  0.00  0.00    +0.000 NA
ATOM      5  N   UNL     1       4.168   4.625  16.767  0.00  0.00    +0.000 N 
ATOM      6  C   UNL     1       4.534   5.807  17.375  0.00  0.00    +0.000 A 
ATOM      7  C   UNL     1       3.651   6.584  18.280  0.00  0.00    +0.000 C 
ENDROOT
BRANCH   1  10
ATOM      8  C   UNL     1       7.529   7.300  18.009  0.00  0.00    +0.000 C 
ATOM      9  O   UNL     1       8.006   6.295  18.536  0.00  0.00    +0.000 OA
ATOM     10  N   UNL     1       6.456   7.285  17.136  0.00  0.00    +0.000 N 
ATOM     11  H   UNL     1       6.386   8.061  16.490  0.00  0.00    +0.000 HD
BRANCH   8  15
ATOM     12  C   UNL     1       9.182  12.070  17.732  0.00  0.00    +0.000 C 
ATOM     13  C   UNL     1       8.865  10.677  18.116  0.00  0.00    +0.000 A 
ATOM     14  C   UNL     1       7.945   9.790  17.517  0.00  0.00    +0.000 A 
ATOM     15  C   UNL     1       8.105   8.608  18.203  0.00  0.00    +0.000 A 
ATOM     16  O   UNL     1       9.020   8.800  19.196  0.00  0.00    +0.000 OA
ATOM     17  N   UNL     1       9.500  10.096  19.142  0.00  0.00    +0.000 NA
ENDBRANCH   8  15
ENDBRANCH   1  10
BRANCH   5  18
ATOM     18  C   UNL     1       2.895   3.908  16.867  0.00  0.00    +0.000 C 
BRANCH  18  19
ATOM     19  C   UNL     1       2.588   3.546  18.304  0.00  0.00    +0.000 A 
ATOM     20  C   UNL     1       3.547   2.886  19.094  0.00  0.00    +0.000 A 
ATOM     21  C   UNL     1       3.244   2.483  20.394  0.00  0.00    +0.000 A 
ATOM     22  C   UNL     1       1.987   2.753  20.916  0.00  0.00    +0.000 A 
ATOM     23  F   UNL     1       1.682   2.338  22.152  0.00  0.00    +0.000 F 
ATOM     24  C   UNL     1       1.036   3.441  20.170  0.00  0.00    +0.000 A 
ATOM     25  C   UNL     1       1.335   3.842  18.867  0.00  0.00    +0.000 A 
ENDBRANCH  18  19
ENDBRANCH   5  18
TORSDOF 4
ENDMDL
MODEL 2
REMARK VINA RESULT:      -7.7      0.841      1.324
REMARK  Name = 
REMARK  7 active torsions:
REMARK  status: ('A' for Active; 'I' for Inactive)
REMARK    1  A    between atoms: C_1  and  C_2
REMARK    2  A    between atoms: C_4  and  C_5
REMARK    3  A    between atoms: N_7  and  C_8
REMARK    4  A    between atoms: C_9  and  C_10
REMARK    5  A    between atoms: N_12  and  C_13
REMARK    6  A    between atoms: C_13  and  C_14
REMARK    7  A    between atoms: C_21  and  C_22
REMARK                            x       y       z     vdW  Elec       q    Type
REMARK                         _______ _______ _______ _____ _____    ______ ____
ROOT
ATOM      1  C   UNL     1       5.646   6.011  16.777  0.00  0.00    +0.000 A 
ATOM      2  C   UNL     1       5.965   4.893  15.965  0.00  0.00    +0.000 A 
ATOM      3  C   UNL     1       7.202   4.588  15.204  0.00  0.00    +0.000 C 
ATOM      4  N   UNL     1       4.998   3.967  16.017  0.00  0.00    +0.000 NA
ATOM      5  N   UNL     1       4.039   4.519  16.787  0.00  0.00    +0.000 N 
ATOM      6  C   UNL     1       4.416   5.726  17.337  0.00  0.00    +0.000 A 
ATOM      7  C   UNL     1       3.539   6.555  18.200  0.00  0.00    +0.000 C 
ENDROOT
BRANCH   1  10
ATOM      8  C   UNL     1       7.435   7.214  17.895  0.00  0.00    +0.000 C 
ATOM      9  O   UNL     1       7.910   6.228  18.459  0.00  0.00    +0.000 OA
ATOM     10  N   UNL     1       6.354   7.170  17.034  0.00  0.00    +0.000 N 
ATOM     11  H   UNL     1       6.283   7.919  16.356  0.00  0.00    +0.000 HD
BRANCH   8  15
ATOM     12  C   UNL     1       9.841  11.440  19.279  0.00  0.00    +0.000 C 
ATOM     13  C   UNL     1       9.038  10.396  18.605  0.00  0.00    +0.000 A 
ATOM     14  C   UNL     1       8.979   9.015  18.890  0.00  0.00    +0.000 A 
ATOM     15  C   UNL     1       8.022   8.524  18.030  0.00  0.00    +0.000 A 
ATOM     16  O   UNL     1       7.585   9.543  17.236  0.00  0.00    +0.000 OA
ATOM     17  N   UNL     1       8.218  10.718  17.596  0.00  0.00    +0.000 NA
ENDBRANCH   8  15
ENDBRANCH   1  10
BRANCH   5  18
ATOM     18  C   UNL     1       2.759   3.820  16.917  0.00  0.00    +0.000 C 
BRANCH  18  19
ATOM     19  C   UNL     1       2.493   3.441  18.358  0.00  0.00    +0.000 A 
ATOM     20  C   UNL     1       1.244   3.710  18.947  0.00  0.00    +0.000 A 
ATOM     21  C   UNL     1       1.016   3.433  20.294  0.00  0.00    +0.000 A 
ATOM     22  C   UNL     1       2.031   2.866  21.054  0.00  0.00    +0.000 A 
ATOM     23  F   UNL     1       1.826   2.629  22.356  0.00  0.00    +0.000 F 
ATOM     24  C   UNL     1       3.260   2.552  20.484  0.00  0.00    +0.000 A 
ATOM     25  C   UNL     1       3.492   2.833  19.137  0.00  0.00    +0.000 A 
ENDBRANCH  18  19
ENDBRANCH   5  18
TORSDOF 4
ENDMDL
MODEL 3
REMARK VINA RESULT:      -7.5      3.726      6.024
REMARK  Name = 
REMARK  7 active torsions:
REMARK  status: ('A' for Active; 'I' for Inactive)
REMARK    1  A    between atoms: C_1  and  C_2
REMARK    2  A    between atoms: C_4  and  C_5
REMARK    3  A    between atoms: N_7  and  C_8
REMARK    4  A    between atoms: C_9  and  C_10
REMARK    5  A    between atoms: N_12  and  C_13
REMARK    6  A    between atoms: C_13  and  C_14
REMARK    7  A    between atoms: C_21  and  C_22
REMARK                            x       y       z     vdW  Elec       q    Type
REMARK                         _______ _______ _______ _____ _____    ______ ____
ROOT
ATOM      1  C   UNL     1       5.186   4.655  17.321  0.00  0.00    +0.000 A 
ATOM      2  C   UNL     1       5.991   5.187  18.361  0.00  0.00    +0.000 A 
ATOM      3  C   UNL     1       7.447   5.473  18.388  0.00  0.00    +0.000 C 
ATOM      4  N   UNL     1       5.243   5.558  19.408  0.00  0.00    +0.000 NA
ATOM      5  N   UNL     1       3.988   5.193  19.077  0.00  0.00    +0.000 N 
ATOM      6  C   UNL     1       3.888   4.712  17.789  0.00  0.00    +0.000 A 
ATOM      7  C   UNL     1       2.626   4.218  17.184  0.00  0.00    +0.000 C 
ENDROOT
BRANCH   1  10
ATOM      8  C   UNL     1       5.694   4.998  14.972  0.00  0.00    +0.000 C 
ATOM      9  O   UNL     1       5.621   6.226  15.010  0.00  0.00    +0.000 OA
ATOM     10  N   UNL     1       5.529   4.175  16.071  0.00  0.00    +0.000 N 
ATOM     11  H   UNL     1       5.966   3.263  16.025  0.00  0.00    +0.000 HD
BRANCH   8  15
ATOM     12  C   UNL     1       6.259   1.798  11.099  0.00  0.00    +0.000 C 
ATOM     13  C   UNL     1       6.333   2.917  12.062  0.00  0.00    +0.000 A 
ATOM     14  C   UNL     1       5.473   3.200  13.145  0.00  0.00    +0.000 A 
ATOM     15  C   UNL     1       6.039   4.294  13.761  0.00  0.00    +0.000 A 
ATOM     16  O   UNL     1       7.135   4.678  13.047  0.00  0.00    +0.000 OA
ATOM     17  N   UNL     1       7.323   3.815  11.983  0.00  0.00    +0.000 NA
ENDBRANCH   8  15
ENDBRANCH   1  10
BRANCH   5  18
ATOM     18  C   UNL     1       2.936   5.316  20.087  0.00  0.00    +0.000 C 
BRANCH  18  19
ATOM     19  C   UNL     1       2.248   6.662  19.992  0.00  0.00    +0.000 A 
ATOM     20  C   UNL     1       2.365   7.442  18.827  0.00  0.00    +0.000 A 
ATOM     21  C   UNL     1       1.798   8.714  18.761  0.00  0.00    +0.000 A 
ATOM     22  C   UNL     1       1.096   9.204  19.854  0.00  0.00    +0.000 A 
ATOM     23  F   UNL     1       0.579  10.439  19.806  0.00  0.00    +0.000 F 
ATOM     24  C   UNL     1       0.931   8.436  21.001  0.00  0.00    +0.000 A 
ATOM     25  C   UNL     1       1.502   7.164  21.071  0.00  0.00    +0.000 A 
ENDBRANCH  18  19
ENDBRANCH   5  18
TORSDOF 4
ENDMDL
MODEL 4
REMARK VINA RESULT:      -7.5      3.756      6.050
REMARK  Name = 
REMARK  7 active torsions:
REMARK  status: ('A' for Active; 'I' for Inactive)
REMARK    1  A    between atoms: C_1  and  C_2
REMARK    2  A    between atoms: C_4  and  C_5
REMARK    3  A    between atoms: N_7  and  C_8
REMARK    4  A    between atoms: C_9  and  C_10
REMARK    5  A    between atoms: N_12  and  C_13
REMARK    6  A    between atoms: C_13  and  C_14
REMARK    7  A    between atoms: C_21  and  C_22
REMARK                            x       y       z     vdW  Elec       q    Type
REMARK                         _______ _______ _______ _____ _____    ______ ____
ROOT
ATOM      1  C   UNL     1       5.041   4.705  17.402  0.00  0.00    +0.000 A 
ATOM      2  C   UNL     1       5.851   5.192  18.459  0.00  0.00    +0.000 A 
ATOM      3  C   UNL     1       7.317   5.416  18.512  0.00  0.00    +0.000 C 
ATOM      4  N   UNL     1       5.103   5.580  19.501  0.00  0.00    +0.000 NA
ATOM      5  N   UNL     1       3.840   5.272  19.146  0.00  0.00    +0.000 N 
ATOM      6  C   UNL     1       3.739   4.811  17.851  0.00  0.00    +0.000 A 
ATOM      7  C   UNL     1       2.468   4.376  17.221  0.00  0.00    +0.000 C 
ENDROOT
BRANCH   1  10
ATOM      8  C   UNL     1       5.650   5.058  15.078  0.00  0.00    +0.000 C 
ATOM      9  O   UNL     1       5.677   6.286  15.145  0.00  0.00    +0.000 OA
ATOM     10  N   UNL     1       5.382   4.226  16.151  0.00  0.00    +0.000 N 
ATOM     11  H   UNL     1       5.744   3.283  16.095  0.00  0.00    +0.000 HD
BRANCH   8  15
ATOM     12  C   UNL     1       6.133   1.868  11.185  0.00  0.00    +0.000 C 
ATOM     13  C   UNL     1       6.232   2.982  12.153  0.00  0.00    +0.000 A 
ATOM     14  C   UNL     1       5.386   3.272  13.245  0.00  0.00    +0.000 A 
ATOM     15  C   UNL     1       5.974   4.354  13.861  0.00  0.00    +0.000 A 
ATOM     16  O   UNL     1       7.069   4.725  13.139  0.00  0.00    +0.000 OA
ATOM     17  N   UNL     1       7.236   3.865  12.070  0.00  0.00    +0.000 NA
ENDBRANCH   8  15
ENDBRANCH   1  10
BRANCH   5  18
ATOM     18  C   UNL     1       2.778   5.427  20.142  0.00  0.00    +0.000 C 
BRANCH  18  19
ATOM     19  C   UNL     1       2.168   6.811  20.074  0.00  0.00    +0.000 A 
ATOM     20  C   UNL     1       1.419   7.315  21.153  0.00  0.00    +0.000 A 
ATOM     21  C   UNL     1       0.792   8.556  21.067  0.00  0.00    +0.000 A 
ATOM     22  C   UNL     1       0.925   9.308  19.908  0.00  0.00    +0.000 A 
ATOM     23  F   UNL     1       0.296  10.487  19.810  0.00  0.00    +0.000 F 
ATOM     24  C   UNL     1       1.694   8.851  18.844  0.00  0.00    +0.000 A 
ATOM     25  C   UNL     1       2.320   7.606  18.925  0.00  0.00    +0.000 A 
ENDBRANCH  18  19
ENDBRANCH   5  18
TORSDOF 4
ENDMDL
MODEL 5
REMARK VINA RESULT:      -7.4      4.330      6.840
REMARK  Name = 
REMARK  7 active torsions:
REMARK  status: ('A' for Active; 'I' for Inactive)
REMARK    1  A    between atoms: C_1  and  C_2
REMARK    2  A    between atoms: C_4  and  C_5
REMARK    3  A    between atoms: N_7  and  C_8
REMARK    4  A    between atoms: C_9  and  C_10
REMARK    5  A    between atoms: N_12  and  C_13
REMARK    6  A    between atoms: C_13  and  C_14
REMARK    7  A    between atoms: C_21  and  C_22
REMARK                            x       y       z     vdW  Elec       q    Type
REMARK                         _______ _______ _______ _____ _____    ______ ____
ROOT
ATOM      1  C   UNL     1       3.377   5.842  17.820  0.00  0.00    +0.000 A 
ATOM      2  C   UNL     1       2.882   4.539  17.555  0.00  0.00    +0.000 A 
ATOM      3  C   UNL     1       1.511   3.991  17.705  0.00  0.00    +0.000 C 
ATOM      4  N   UNL     1       3.825   3.770  16.993  0.00  0.00    +0.000 NA
ATOM      5  N   UNL     1       4.928   4.544  16.975  0.00  0.00    +0.000 N 
ATOM      6  C   UNL     1       4.690   5.836  17.393  0.00  0.00    +0.000 A 
ATOM      7  C   UNL     1       5.738   6.882  17.494  0.00  0.00    +0.000 C 
ENDROOT
BRANCH   1  10
ATOM      8  C   UNL     1       2.269   6.972  19.662  0.00  0.00    +0.000 C 
ATOM      9  O   UNL     1       2.399   6.050  20.466  0.00  0.00    +0.000 OA
ATOM     10  N   UNL     1       2.755   6.949  18.367  0.00  0.00    +0.000 N 
ATOM     11  H   UNL     1       2.933   7.846  17.932  0.00  0.00    +0.000 HD
BRANCH   8  15
ATOM     12  C   UNL     1      -0.223  10.820  21.795  0.00  0.00    +0.000 C 
ATOM     13  C   UNL     1       0.549   9.919  20.911  0.00  0.00    +0.000 A 
ATOM     14  C   UNL     1       1.119   8.666  21.220  0.00  0.00    +0.000 A 
ATOM     15  C   UNL     1       1.645   8.220  20.028  0.00  0.00    +0.000 A 
ATOM     16  O   UNL     1       1.456   9.182  19.082  0.00  0.00    +0.000 OA
ATOM     17  N   UNL     1       0.766  10.248  19.631  0.00  0.00    +0.000 NA
ENDBRANCH   8  15
ENDBRANCH   1  10
BRANCH   5  18
ATOM     18  C   UNL     1       6.197   3.941  16.561  0.00  0.00    +0.000 C 
BRANCH  18  19
ATOM     19  C   UNL     1       6.465   4.197  15.093  0.00  0.00    +0.000 A 
ATOM     20  C   UNL     1       5.750   3.497  14.104  0.00  0.00    +0.000 A 
ATOM     21  C   UNL     1       6.044   3.672  12.753  0.00  0.00    +0.000 A 
ATOM     22  C   UNL     1       7.044   4.562  12.384  0.00  0.00    +0.000 A 
ATOM     23  F   UNL     1       7.352   4.708  11.088  0.00  0.00    +0.000 F 
ATOM     24  C   UNL     1       7.736   5.297  13.339  0.00  0.00    +0.000 A 
ATOM     25  C   UNL     1       7.447   5.120  14.694  0.00  0.00    +0.000 A 
ENDBRANCH  18  19
ENDBRANCH   5  18
TORSDOF 4
ENDMDL
MODEL 6
REMARK VINA RESULT:      -7.3      6.342      7.381
REMARK  Name = 
REMARK  7 active torsions:
REMARK  status: ('A' for Active; 'I' for Inactive)
REMARK    1  A    between atoms: C_1  and  C_2
REMARK    2  A    between atoms: C_4  and  C_5
REMARK    3  A    between atoms: N_7  and  C_8
REMARK    4  A    between atoms: C_9  and  C_10
REMARK    5  A    between atoms: N_12  and  C_13
REMARK    6  A    between atoms: C_13  and  C_14
REMARK    7  A    between atoms: C_21  and  C_22
REMARK                            x       y       z     vdW  Elec       q    Type
REMARK                         _______ _______ _______ _____ _____    ______ ____
ROOT
ATOM      1  C   UNL     1       0.794   9.747  20.116  0.00  0.00    +0.000 A 
ATOM      2  C   UNL     1       0.626   8.923  21.258  0.00  0.00    +0.000 A 
ATOM      3  C   UNL     1      -0.210   9.127  22.467  0.00  0.00    +0.000 C 
ATOM      4  N   UNL     1       1.271   7.758  21.112  0.00  0.00    +0.000 NA
ATOM      5  N   UNL     1       1.908   7.868  19.929  0.00  0.00    +0.000 N 
ATOM      6  C   UNL     1       1.589   9.024  19.249  0.00  0.00    +0.000 A 
ATOM      7  C   UNL     1       2.171   9.403  17.937  0.00  0.00    +0.000 C 
ENDROOT
BRANCH   1  10
ATOM      8  C   UNL     1       0.819  12.161  20.386  0.00  0.00    +0.000 C 
ATOM      9  O   UNL     1       1.804  12.190  21.123  0.00  0.00    +0.000 OA
ATOM     10  N   UNL     1       0.298  11.005  19.831  0.00  0.00    +0.000 N 
ATOM     11  H   UNL     1      -0.239  11.113  18.979  0.00  0.00    +0.000 HD
BRANCH   8  15
ATOM     12  C   UNL     1      -0.603  16.645  18.533  0.00  0.00    +0.000 C 
ATOM     13  C   UNL     1      -0.512  15.324  19.193  0.00  0.00    +0.000 A 
ATOM     14  C   UNL     1       0.514  14.360  19.087  0.00  0.00    +0.000 A 
ATOM     15  C   UNL     1       0.147  13.365  19.965  0.00  0.00    +0.000 A 
ATOM     16  O   UNL     1      -1.059  13.689  20.512  0.00  0.00    +0.000 OA
ATOM     17  N   UNL     1      -1.473  14.918  20.032  0.00  0.00    +0.000 NA
ENDBRANCH   8  15
ENDBRANCH   1  10
BRANCH   5  18
ATOM     18  C   UNL     1       2.843   6.811  19.538  0.00  0.00    +0.000 C 
BRANCH  18  19
ATOM     19  C   UNL     1       2.115   5.506  19.294  0.00  0.00    +0.000 A 
ATOM     20  C   UNL     1       1.566   4.783  20.369  0.00  0.00    +0.000 A 
ATOM     21  C   UNL     1       0.961   3.545  20.161  0.00  0.00    +0.000 A 
ATOM     22  C   UNL     1       0.885   3.032  18.872  0.00  0.00    +0.000 A 
ATOM     23  F   UNL     1       0.334   1.828  18.673  0.00  0.00    +0.000 F 
ATOM     24  C   UNL     1       1.382   3.747  17.788  0.00  0.00    +0.000 A 
ATOM     25  C   UNL     1       1.993   4.985  17.995  0.00  0.00    +0.000 A 
ENDBRANCH  18  19
ENDBRANCH   5  18
TORSDOF 4
ENDMDL
MODEL 7
REMARK VINA RESULT:      -7.2      4.345      6.718
REMARK  Name = 
REMARK  7 active torsions:
REMARK  status: ('A' for Active; 'I' for Inactive)
REMARK    1  A    between atoms: C_1  and  C_2
REMARK    2  A    between atoms: C_4  and  C_5
REMARK    3  A    between atoms: N_7  and  C_8
REMARK    4  A    between atoms: C_9  and  C_10
REMARK    5  A    between atoms: N_12  and  C_13
REMARK    6  A    between atoms: C_13  and  C_14
REMARK    7  A    between atoms: C_21  and  C_22
REMARK                            x       y       z     vdW  Elec       q    Type
REMARK                         _______ _______ _______ _____ _____    ______ ____
ROOT
ATOM      1  C   UNL     1       3.224   5.970  17.669  0.00  0.00    +0.000 A 
ATOM      2  C   UNL     1       2.777   4.624  17.619  0.00  0.00    +0.000 A 
ATOM      3  C   UNL     1       1.434   4.055  17.894  0.00  0.00    +0.000 C 
ATOM      4  N   UNL     1       3.736   3.814  17.152  0.00  0.00    +0.000 NA
ATOM      5  N   UNL     1       4.805   4.616  16.982  0.00  0.00    +0.000 N 
ATOM      6  C   UNL     1       4.525   5.947  17.207  0.00  0.00    +0.000 A 
ATOM      7  C   UNL     1       5.531   7.034  17.115  0.00  0.00    +0.000 C 
ENDROOT
BRANCH   1  10
ATOM      8  C   UNL     1       2.204   7.369  19.371  0.00  0.00    +0.000 C 
ATOM      9  O   UNL     1       2.477   6.629  20.315  0.00  0.00    +0.000 OA
ATOM     10  N   UNL     1       2.571   7.123  18.060  0.00  0.00    +0.000 N 
ATOM     11  H   UNL     1       2.639   7.928  17.450  0.00  0.00    +0.000 HD
BRANCH   8  15
ATOM     12  C   UNL     1       0.270  12.035  19.137  0.00  0.00    +0.000 C 
ATOM     13  C   UNL     1       0.674  10.662  19.511  0.00  0.00    +0.000 A 
ATOM     14  C   UNL     1       1.284   9.677  18.705  0.00  0.00    +0.000 A 
ATOM     15  C   UNL     1       1.522   8.625  19.561  0.00  0.00    +0.000 A 
ATOM     16  O   UNL     1       1.023   8.942  20.790  0.00  0.00    +0.000 OA
ATOM     17  N   UNL     1       0.494  10.219  20.762  0.00  0.00    +0.000 NA
ENDBRANCH   8  15
ENDBRANCH   1  10
BRANCH   5  18
ATOM     18  C   UNL     1       6.087   4.004  16.625  0.00  0.00    +0.000 C 
BRANCH  18  19
ATOM     19  C   UNL     1       6.396   4.209  15.157  0.00  0.00    +0.000 A 
ATOM     20  C   UNL     1       5.663   3.524  14.171  0.00  0.00    +0.000 A 
ATOM     21  C   UNL     1       5.991   3.650  12.822  0.00  0.00    +0.000 A 
ATOM     22  C   UNL     1       7.042   4.477  12.452  0.00  0.00    +0.000 A 
ATOM     23  F   UNL     1       7.381   4.575  11.159  0.00  0.00    +0.000 F 
ATOM     24  C   UNL     1       7.755   5.198  13.403  0.00  0.00    +0.000 A 
ATOM     25  C   UNL     1       7.431   5.069  14.755  0.00  0.00    +0.000 A 
ENDBRANCH  18  19
ENDBRANCH   5  18
TORSDOF 4
ENDMDL
MODEL 8
REMARK VINA RESULT:      -7.2      6.249      7.284
REMARK  Name = 
REMARK  7 active torsions:
REMARK  status: ('A' for Active; 'I' for Inactive)
REMARK    1  A    between atoms: C_1  and  C_2
REMARK    2  A    between atoms: C_4  and  C_5
REMARK    3  A    between atoms: N_7  and  C_8
REMARK    4  A    between atoms: C_9  and  C_10
REMARK    5  A    between atoms: N_12  and  C_13
REMARK    6  A    between atoms: C_13  and  C_14
REMARK    7  A    between atoms: C_21  and  C_22
REMARK                            x       y       z     vdW  Elec       q    Type
REMARK                         _______ _______ _______ _____ _____    ______ ____
ROOT
ATOM      1  C   UNL     1       0.898   9.657  20.030  0.00  0.00    +0.000 A 
ATOM      2  C   UNL     1       0.675   8.816  21.150  0.00  0.00    +0.000 A 
ATOM      3  C   UNL     1      -0.218   9.004  22.321  0.00  0.00    +0.000 C 
ATOM      4  N   UNL     1       1.323   7.651  21.016  0.00  0.00    +0.000 NA
ATOM      5  N   UNL     1       2.015   7.778  19.867  0.00  0.00    +0.000 N 
ATOM      6  C   UNL     1       1.731   8.945  19.190  0.00  0.00    +0.000 A 
ATOM      7  C   UNL     1       2.375   9.342  17.913  0.00  0.00    +0.000 C 
ENDROOT
BRANCH   1  10
ATOM      8  C   UNL     1       0.834  12.053  20.416  0.00  0.00    +0.000 C 
ATOM      9  O   UNL     1       1.709  12.060  21.281  0.00  0.00    +0.000 OA
ATOM     10  N   UNL     1       0.417  10.920  19.741  0.00  0.00    +0.000 N 
ATOM     11  H   UNL     1      -0.001  11.064  18.830  0.00  0.00    +0.000 HD
BRANCH   8  15
ATOM     12  C   UNL     1      -0.481  16.483  18.365  0.00  0.00    +0.000 C 
ATOM     13  C   UNL     1      -0.409  15.208  19.111  0.00  0.00    +0.000 A 
ATOM     14  C   UNL     1       0.544  14.174  18.989  0.00  0.00    +0.000 A 
ATOM     15  C   UNL     1       0.199  13.268  19.967  0.00  0.00    +0.000 A 
ATOM     16  O   UNL     1      -0.931  13.707  20.589  0.00  0.00    +0.000 OA
ATOM     17  N   UNL     1      -1.313  14.925  20.057  0.00  0.00    +0.000 NA
ENDBRANCH   8  15
ENDBRANCH   1  10
BRANCH   5  18
ATOM     18  C   UNL     1       2.966   6.724  19.504  0.00  0.00    +0.000 C 
BRANCH  18  19
ATOM     19  C   UNL     1       2.254   5.409  19.271  0.00  0.00    +0.000 A 
ATOM     20  C   UNL     1       2.042   4.934  17.964  0.00  0.00    +0.000 A 
ATOM     21  C   UNL     1       1.322   3.762  17.738  0.00  0.00    +0.000 A 
ATOM     22  C   UNL     1       0.825   3.049  18.821  0.00  0.00    +0.000 A 
ATOM     23  F   UNL     1       0.105   1.941  18.607  0.00  0.00    +0.000 F 
ATOM     24  C   UNL     1       1.057   3.475  20.124  0.00  0.00    +0.000 A 
ATOM     25  C   UNL     1       1.774   4.651  20.352  0.00  0.00    +0.000 A 
ENDBRANCH  18  19
ENDBRANCH   5  18
TORSDOF 4
ENDMDL
MODEL 9
REMARK VINA RESULT:      -7.0      4.332      6.665
REMARK  Name = 
REMARK  7 active torsions:
REMARK  status: ('A' for Active; 'I' for Inactive)
REMARK    1  A    between atoms: C_1  and  C_2
REMARK    2  A    between atoms: C_4  and  C_5
REMARK    3  A    between atoms: N_7  and  C_8
REMARK    4  A    between atoms: C_9  and  C_10
REMARK    5  A    between atoms: N_12  and  C_13
REMARK    6  A    between atoms: C_13  and  C_14
REMARK    7  A    between atoms: C_21  and  C_22
REMARK                            x       y       z     vdW  Elec       q    Type
REMARK                         _______ _______ _______ _____ _____    ______ ____
ROOT
ATOM      1  C   UNL     1       3.407   6.123  17.624  0.00  0.00    +0.000 A 
ATOM      2  C   UNL     1       2.945   4.783  17.559  0.00  0.00    +0.000 A 
ATOM      3  C   UNL     1       1.587   4.230  17.789  0.00  0.00    +0.000 C 
ATOM      4  N   UNL     1       3.908   3.961  17.122  0.00  0.00    +0.000 NA
ATOM      5  N   UNL     1       4.993   4.749  16.987  0.00  0.00    +0.000 N 
ATOM      6  C   UNL     1       4.722   6.084  17.204  0.00  0.00    +0.000 A 
ATOM      7  C   UNL     1       5.744   7.158  17.146  0.00  0.00    +0.000 C 
ENDROOT
BRANCH   1  10
ATOM      8  C   UNL     1       2.208   7.467  19.252  0.00  0.00    +0.000 C 
ATOM      9  O   UNL     1       2.303   6.656  20.172  0.00  0.00    +0.000 OA
ATOM     10  N   UNL     1       2.756   7.284  17.995  0.00  0.00    +0.000 N 
ATOM     11  H   UNL     1       2.951   8.120  17.459  0.00  0.00    +0.000 HD
BRANCH   8  15
ATOM     12  C   UNL     1       0.277  12.126  18.893  0.00  0.00    +0.000 C 
ATOM     13  C   UNL     1       0.724  10.783  19.323  0.00  0.00    +0.000 A 
ATOM     14  C   UNL     1       1.213   9.726  18.526  0.00  0.00    +0.000 A 
ATOM     15  C   UNL     1       1.563   8.746  19.427  0.00  0.00    +0.000 A 
ATOM     16  O   UNL     1       1.241   9.171  20.682  0.00  0.00    +0.000 OA
ATOM     17  N   UNL     1       0.717  10.449  20.619  0.00  0.00    +0.000 NA
ENDBRANCH   8  15
ENDBRANCH   1  10
BRANCH   5  18
ATOM     18  C   UNL     1       6.278   4.122  16.671  0.00  0.00    +0.000 C 
BRANCH  18  19
ATOM     19  C   UNL     1       6.592   4.244  15.196  0.00  0.00    +0.000 A 
ATOM     20  C   UNL     1       7.580   5.140  14.749  0.00  0.00    +0.000 A 
ATOM     21  C   UNL     1       7.823   5.313  13.387  0.00  0.00    +0.000 A 
ATOM     22  C   UNL     1       7.091   4.576  12.466  0.00  0.00    +0.000 A 
ATOM     23  F   UNL     1       7.299   4.764  11.156  0.00  0.00    +0.000 F 
ATOM     24  C   UNL     1       6.139   3.653  12.883  0.00  0.00    +0.000 A 
ATOM     25  C   UNL     1       5.891   3.482  14.246  0.00  0.00    +0.000 A 
ENDBRANCH  18  19
ENDBRANCH   5  18
TORSDOF 4
ENDMDL
