MODEL 1
REMARK VINA RESULT:      -7.5      0.000      0.000
REMARK  Name = 
REMARK  2 active torsions:
REMARK  status: ('A' for Active; 'I' for Inactive)
REMARK    1  A    between atoms: C_2  and  C_4
REMARK    2  A    between atoms: C_8  and  C_9
REMARK                            x       y       z     vdW  Elec       q    Type
REMARK                         _______ _______ _______ _____ _____    ______ ____
ROOT
ATOM      1  C   UNL     1       5.563   5.100  17.163  0.00  0.00    +0.000 A 
ATOM      2  C   UNL     1       5.024   3.867  16.815  0.00  0.00    +0.000 A 
ATOM      3  C   UNL     1       3.678   3.640  17.071  0.00  0.00    +0.000 A 
ATOM      4  C   UNL     1       2.923   4.649  17.660  0.00  0.00    +0.000 A 
ATOM      5  C   UNL     1       3.544   5.854  17.985  0.00  0.00    +0.000 A 
ATOM      6  N   UNL     1       4.858   6.109  17.753  0.00  0.00    +0.000 NA
ENDROOT
BRANCH   5   7
ATOM      7  C   UNL     1       2.792   6.935  18.619  0.00  0.00    +0.000 A 
ATOM      8  N   UNL     1       2.326   8.032  18.046  0.00  0.00    +0.000 NA
ATOM      9  C   UNL     1       1.668   8.721  19.036  0.00  0.00    +0.000 A 
ATOM     10  C   UNL     1       0.986   9.944  18.975  0.00  0.00    +0.000 A 
ATOM     11  C   UNL     1       0.381  10.434  20.139  0.00  0.00    +0.000 A 
ATOM     12  C   UNL     1       0.454   9.721  21.339  0.00  0.00    +0.000 A 
ATOM     13  C   UNL     1       1.135   8.500  21.419  0.00  0.00    +0.000 A 
ATOM     14  C   UNL     1       1.731   8.037  20.244  0.00  0.00    +0.000 A 
ATOM     15  N   UNL     1       2.463   6.918  19.954  0.00  0.00    +0.000 N 
ATOM     16  H   UNL     1       2.724   6.180  20.591  0.00  0.00    +0.000 HD
ENDBRANCH   5   7
BRANCH   1  18
ATOM     17  N   UNL     1       7.873   4.340  17.156  0.00  0.00    +0.000 N 
ATOM     18  C   UNL     1       7.010   5.364  16.878  0.00  0.00    +0.000 C 
ATOM     19  O   UNL     1       7.409   6.426  16.415  0.00  0.00    +0.000 OA
ATOM     20  H   UNL     1       8.851   4.455  16.932  0.00  0.00    +0.000 HD
ATOM     21  H   UNL     1       7.517   3.444  17.460  0.00  0.00    +0.000 HD
ENDBRANCH   1  18
TORSDOF 2
ENDMDL
MODEL 2
REMARK VINA RESULT:      -7.4      4.050      4.979
REMARK  Name = 
REMARK  2 active torsions:
REMARK  status: ('A' for Active; 'I' for Inactive)
REMARK    1  A    between atoms: C_2  and  C_4
REMARK    2  A    between atoms: C_8  and  C_9
REMARK                            x       y       z     vdW  Elec       q    Type
REMARK                         _______ _______ _______ _____ _____    ______ ____
ROOT
ATOM      1  C   UNL     1       5.978   4.012  14.099  0.00  0.00    +0.000 A 
ATOM      2  C   UNL     1       7.154   4.730  14.280  0.00  0.00    +0.000 A 
ATOM      3  C   UNL     1       7.439   5.218  15.549  0.00  0.00    +0.000 A 
ATOM      4  C   UNL     1       6.544   4.971  16.585  0.00  0.00    +0.000 A 
ATOM      5  C   UNL     1       5.383   4.249  16.316  0.00  0.00    +0.000 A 
ATOM      6  N   UNL     1       5.070   3.760  15.087  0.00  0.00    +0.000 NA
ENDROOT
BRANCH   5   7
ATOM      7  C   UNL     1       4.409   3.980  17.370  0.00  0.00    +0.000 A 
ATOM      8  N   UNL     1       3.120   4.273  17.366  0.00  0.00    +0.000 NA
ATOM      9  C   UNL     1       2.622   3.799  18.555  0.00  0.00    +0.000 A 
ATOM     10  C   UNL     1       1.315   3.839  19.060  0.00  0.00    +0.000 A 
ATOM     11  C   UNL     1       1.062   3.266  20.313  0.00  0.00    +0.000 A 
ATOM     12  C   UNL     1       2.089   2.667  21.047  0.00  0.00    +0.000 A 
ATOM     13  C   UNL     1       3.401   2.622  20.561  0.00  0.00    +0.000 A 
ATOM     14  C   UNL     1       3.625   3.203  19.310  0.00  0.00    +0.000 A 
ATOM     15  N   UNL     1       4.749   3.347  18.543  0.00  0.00    +0.000 N 
ATOM     16  H   UNL     1       5.683   3.040  18.769  0.00  0.00    +0.000 HD
ENDBRANCH   5   7
BRANCH   1  18
ATOM     17  N   UNL     1       6.680   2.792  12.116  0.00  0.00    +0.000 N 
ATOM     18  C   UNL     1       5.665   3.465  12.740  0.00  0.00    +0.000 C 
ATOM     19  O   UNL     1       4.570   3.599  12.209  0.00  0.00    +0.000 OA
ATOM     20  H   UNL     1       6.499   2.363  11.220  0.00  0.00    +0.000 HD
ATOM     21  H   UNL     1       7.551   2.621  12.602  0.00  0.00    +0.000 HD
ENDBRANCH   1  18
TORSDOF 2
ENDMDL
MODEL 3
REMARK VINA RESULT:      -7.3      1.422      1.477
REMARK  Name = 
REMARK  2 active torsions:
REMARK  status: ('A' for Active; 'I' for Inactive)
REMARK    1  A    between atoms: C_2  and  C_4
REMARK    2  A    between atoms: C_8  and  C_9
REMARK                            x       y       z     vdW  Elec       q    Type
REMARK                         _______ _______ _______ _____ _____    ______ ____
ROOT
ATOM      1  C   UNL     1       4.883   4.944  18.617  0.00  0.00    +0.000 A 
ATOM      2  C   UNL     1       4.265   3.957  17.857  0.00  0.00    +0.000 A 
ATOM      3  C   UNL     1       2.899   4.061  17.629  0.00  0.00    +0.000 A 
ATOM      4  C   UNL     1       2.204   5.142  18.162  0.00  0.00    +0.000 A 
ATOM      5  C   UNL     1       2.899   6.083  18.919  0.00  0.00    +0.000 A 
ATOM      6  N   UNL     1       4.234   6.012  19.167  0.00  0.00    +0.000 NA
ENDROOT
BRANCH   5   7
ATOM      7  C   UNL     1       2.207   7.225  19.511  0.00  0.00    +0.000 A 
ATOM      8  N   UNL     1       1.869   8.356  18.914  0.00  0.00    +0.000 NA
ATOM      9  C   UNL     1       1.216   9.102  19.865  0.00  0.00    +0.000 A 
ATOM     10  C   UNL     1       0.644  10.377  19.767  0.00  0.00    +0.000 A 
ATOM     11  C   UNL     1       0.017  10.920  20.896  0.00  0.00    +0.000 A 
ATOM     12  C   UNL     1      -0.040  10.207  22.096  0.00  0.00    +0.000 A 
ATOM     13  C   UNL     1       0.530   8.933  22.214  0.00  0.00    +0.000 A 
ATOM     14  C   UNL     1       1.150   8.419  21.074  0.00  0.00    +0.000 A 
ATOM     15  N   UNL     1       1.801   7.240  20.825  0.00  0.00    +0.000 N 
ATOM     16  H   UNL     1       1.962   6.485  21.474  0.00  0.00    +0.000 HD
ENDBRANCH   5   7
BRANCH   1  18
ATOM     17  N   UNL     1       7.094   4.264  17.867  0.00  0.00    +0.000 N 
ATOM     18  C   UNL     1       6.358   4.854  18.859  0.00  0.00    +0.000 C 
ATOM     19  O   UNL     1       6.890   5.285  19.874  0.00  0.00    +0.000 OA
ATOM     20  H   UNL     1       8.098   4.226  17.964  0.00  0.00    +0.000 HD
ATOM     21  H   UNL     1       6.650   3.987  17.001  0.00  0.00    +0.000 HD
ENDBRANCH   1  18
TORSDOF 2
ENDMDL
MODEL 4
REMARK VINA RESULT:      -7.2      0.301      1.399
REMARK  Name = 
REMARK  2 active torsions:
REMARK  status: ('A' for Active; 'I' for Inactive)
REMARK    1  A    between atoms: C_2  and  C_4
REMARK    2  A    between atoms: C_8  and  C_9
REMARK                            x       y       z     vdW  Elec       q    Type
REMARK                         _______ _______ _______ _____ _____    ______ ____
ROOT
ATOM      1  C   UNL     1       5.581   5.118  17.144  0.00  0.00    +0.000 A 
ATOM      2  C   UNL     1       5.058   3.879  16.792  0.00  0.00    +0.000 A 
ATOM      3  C   UNL     1       3.710   3.643  17.027  0.00  0.00    +0.000 A 
ATOM      4  C   UNL     1       2.937   4.648  17.599  0.00  0.00    +0.000 A 
ATOM      5  C   UNL     1       3.542   5.859  17.930  0.00  0.00    +0.000 A 
ATOM      6  N   UNL     1       4.858   6.124  17.719  0.00  0.00    +0.000 NA
ENDROOT
BRANCH   5   7
ATOM      7  C   UNL     1       2.772   6.936  18.547  0.00  0.00    +0.000 A 
ATOM      8  N   UNL     1       2.331   6.995  19.792  0.00  0.00    +0.000 NA
ATOM      9  C   UNL     1       1.691   8.206  19.907  0.00  0.00    +0.000 A 
ATOM     10  C   UNL     1       1.048   8.779  21.012  0.00  0.00    +0.000 A 
ATOM     11  C   UNL     1       0.476  10.050  20.871  0.00  0.00    +0.000 A 
ATOM     12  C   UNL     1       0.544  10.735  19.655  0.00  0.00    +0.000 A 
ATOM     13  C   UNL     1       1.178  10.176  18.539  0.00  0.00    +0.000 A 
ATOM     14  C   UNL     1       1.737   8.907  18.708  0.00  0.00    +0.000 A 
ATOM     15  N   UNL     1       2.413   8.072  17.860  0.00  0.00    +0.000 N 
ATOM     16  H   UNL     1       2.635   8.239  16.890  0.00  0.00    +0.000 HD
ENDBRANCH   5   7
BRANCH   1  18
ATOM     17  N   UNL     1       7.884   4.341  17.073  0.00  0.00    +0.000 N 
ATOM     18  C   UNL     1       7.030   5.393  16.883  0.00  0.00    +0.000 C 
ATOM     19  O   UNL     1       7.440   6.486  16.511  0.00  0.00    +0.000 OA
ATOM     20  H   UNL     1       8.863   4.465  16.860  0.00  0.00    +0.000 HD
ATOM     21  H   UNL     1       7.520   3.425  17.301  0.00  0.00    +0.000 HD
ENDBRANCH   1  18
TORSDOF 2
ENDMDL
MODEL 5
REMARK VINA RESULT:      -7.2      3.419      4.756
REMARK  Name = 
REMARK  2 active torsions:
REMARK  status: ('A' for Active; 'I' for Inactive)
REMARK    1  A    between atoms: C_2  and  C_4
REMARK    2  A    between atoms: C_8  and  C_9
REMARK                            x       y       z     vdW  Elec       q    Type
REMARK                         _______ _______ _______ _____ _____    ______ ____
ROOT
ATOM      1  C   UNL     1       5.959   4.078  14.054  0.00  0.00    +0.000 A 
ATOM      2  C   UNL     1       7.163   4.742  14.261  0.00  0.00    +0.000 A 
ATOM      3  C   UNL     1       7.412   5.276  15.518  0.00  0.00    +0.000 A 
ATOM      4  C   UNL     1       6.457   5.127  16.518  0.00  0.00    +0.000 A 
ATOM      5  C   UNL     1       5.273   4.454  16.224  0.00  0.00    +0.000 A 
ATOM      6  N   UNL     1       4.992   3.922  15.006  0.00  0.00    +0.000 NA
ENDROOT
BRANCH   5   7
ATOM      7  C   UNL     1       4.236   4.288  17.240  0.00  0.00    +0.000 A 
ATOM      8  N   UNL     1       3.964   5.098  18.250  0.00  0.00    +0.000 NA
ATOM      9  C   UNL     1       2.895   4.537  18.904  0.00  0.00    +0.000 A 
ATOM     10  C   UNL     1       2.201   4.985  20.037  0.00  0.00    +0.000 A 
ATOM     11  C   UNL     1       1.122   4.225  20.507  0.00  0.00    +0.000 A 
ATOM     12  C   UNL     1       0.742   3.045  19.861  0.00  0.00    +0.000 A 
ATOM     13  C   UNL     1       1.426   2.581  18.731  0.00  0.00    +0.000 A 
ATOM     14  C   UNL     1       2.498   3.356  18.287  0.00  0.00    +0.000 A 
ATOM     15  N   UNL     1       3.376   3.215  17.246  0.00  0.00    +0.000 N 
ATOM     16  H   UNL     1       3.405   2.464  16.573  0.00  0.00    +0.000 HD
ENDBRANCH   5   7
BRANCH   1  18
ATOM     17  N   UNL     1       6.722   2.808  12.126  0.00  0.00    +0.000 N 
ATOM     18  C   UNL     1       5.683   3.482  12.708  0.00  0.00    +0.000 C 
ATOM     19  O   UNL     1       4.595   3.578  12.153  0.00  0.00    +0.000 OA
ATOM     20  H   UNL     1       6.566   2.347  11.241  0.00  0.00    +0.000 HD
ATOM     21  H   UNL     1       7.586   2.670  12.633  0.00  0.00    +0.000 HD
ENDBRANCH   1  18
TORSDOF 2
ENDMDL
MODEL 6
REMARK VINA RESULT:      -7.1      3.825      4.429
REMARK  Name = 
REMARK  2 active torsions:
REMARK  status: ('A' for Active; 'I' for Inactive)
REMARK    1  A    between atoms: C_2  and  C_4
REMARK    2  A    between atoms: C_8  and  C_9
REMARK                            x       y       z     vdW  Elec       q    Type
REMARK                         _______ _______ _______ _____ _____    ______ ____
ROOT
ATOM      1  C   UNL     1       6.667   5.235  15.660  0.00  0.00    +0.000 A 
ATOM      2  C   UNL     1       7.537   6.155  16.233  0.00  0.00    +0.000 A 
ATOM      3  C   UNL     1       7.303   6.556  17.543  0.00  0.00    +0.000 A 
ATOM      4  C   UNL     1       6.217   6.023  18.229  0.00  0.00    +0.000 A 
ATOM      5  C   UNL     1       5.389   5.110  17.577  0.00  0.00    +0.000 A 
ATOM      6  N   UNL     1       5.584   4.699  16.297  0.00  0.00    +0.000 NA
ENDROOT
BRANCH   5   7
ATOM      7  C   UNL     1       4.228   4.538  18.255  0.00  0.00    +0.000 A 
ATOM      8  N   UNL     1       3.189   3.938  17.699  0.00  0.00    +0.000 NA
ATOM      9  C   UNL     1       2.381   3.547  18.738  0.00  0.00    +0.000 A 
ATOM     10  C   UNL     1       1.156   2.866  18.714  0.00  0.00    +0.000 A 
ATOM     11  C   UNL     1       0.528   2.571  19.931  0.00  0.00    +0.000 A 
ATOM     12  C   UNL     1       1.108   2.947  21.145  0.00  0.00    +0.000 A 
ATOM     13  C   UNL     1       2.329   3.631  21.188  0.00  0.00    +0.000 A 
ATOM     14  C   UNL     1       2.930   3.914  19.960  0.00  0.00    +0.000 A 
ATOM     15  N   UNL     1       4.092   4.555  19.623  0.00  0.00    +0.000 N 
ATOM     16  H   UNL     1       4.762   4.971  20.252  0.00  0.00    +0.000 HD
ENDBRANCH   5   7
BRANCH   1  18
ATOM     17  N   UNL     1       6.307   3.614  13.883  0.00  0.00    +0.000 N 
ATOM     18  C   UNL     1       6.916   4.782  14.254  0.00  0.00    +0.000 C 
ATOM     19  O   UNL     1       7.613   5.413  13.470  0.00  0.00    +0.000 OA
ATOM     20  H   UNL     1       6.405   3.297  12.930  0.00  0.00    +0.000 HD
ATOM     21  H   UNL     1       5.670   3.149  14.517  0.00  0.00    +0.000 HD
ENDBRANCH   1  18
TORSDOF 2
ENDMDL
MODEL 7
REMARK VINA RESULT:      -7.1      3.869      4.350
REMARK  Name = 
REMARK  2 active torsions:
REMARK  status: ('A' for Active; 'I' for Inactive)
REMARK    1  A    between atoms: C_2  and  C_4
REMARK    2  A    between atoms: C_8  and  C_9
REMARK                            x       y       z     vdW  Elec       q    Type
REMARK                         _______ _______ _______ _____ _____    ______ ____
ROOT
ATOM      1  C   UNL     1       6.971   6.225  17.107  0.00  0.00    +0.000 A 
ATOM      2  C   UNL     1       7.362   5.714  15.875  0.00  0.00    +0.000 A 
ATOM      3  C   UNL     1       6.630   4.663  15.336  0.00  0.00    +0.000 A 
ATOM      4  C   UNL     1       5.539   4.167  16.042  0.00  0.00    +0.000 A 
ATOM      5  C   UNL     1       5.220   4.732  17.275  0.00  0.00    +0.000 A 
ATOM      6  N   UNL     1       5.915   5.757  17.835  0.00  0.00    +0.000 NA
ENDROOT
BRANCH   5   7
ATOM      7  C   UNL     1       4.093   4.231  18.057  0.00  0.00    +0.000 A 
ATOM      8  N   UNL     1       2.985   3.670  17.601  0.00  0.00    +0.000 NA
ATOM      9  C   UNL     1       2.246   3.341  18.711  0.00  0.00    +0.000 A 
ATOM     10  C   UNL     1       0.993   2.720  18.802  0.00  0.00    +0.000 A 
ATOM     11  C   UNL     1       0.452   2.482  20.072  0.00  0.00    +0.000 A 
ATOM     12  C   UNL     1       1.146   2.855  21.227  0.00  0.00    +0.000 A 
ATOM     13  C   UNL     1       2.396   3.481  21.155  0.00  0.00    +0.000 A 
ATOM     14  C   UNL     1       2.909   3.708  19.876  0.00  0.00    +0.000 A 
ATOM     15  N   UNL     1       4.068   4.285  19.431  0.00  0.00    +0.000 N 
ATOM     16  H   UNL     1       4.805   4.681  19.994  0.00  0.00    +0.000 HD
ENDBRANCH   5   7
BRANCH   1  18
ATOM     17  N   UNL     1       8.381   7.117  18.876  0.00  0.00    +0.000 N 
ATOM     18  C   UNL     1       7.741   7.368  17.693  0.00  0.00    +0.000 C 
ATOM     19  O   UNL     1       7.810   8.465  17.153  0.00  0.00    +0.000 OA
ATOM     20  H   UNL     1       8.953   7.843  19.282  0.00  0.00    +0.000 HD
ATOM     21  H   UNL     1       8.380   6.183  19.266  0.00  0.00    +0.000 HD
ENDBRANCH   1  18
TORSDOF 2
ENDMDL
MODEL 8
REMARK VINA RESULT:      -7.1      2.168      2.573
REMARK  Name = 
REMARK  2 active torsions:
REMARK  status: ('A' for Active; 'I' for Inactive)
REMARK    1  A    between atoms: C_2  and  C_4
REMARK    2  A    between atoms: C_8  and  C_9
REMARK                            x       y       z     vdW  Elec       q    Type
REMARK                         _______ _______ _______ _____ _____    ______ ____
ROOT
ATOM      1  C   UNL     1       3.568   4.005  17.530  0.00  0.00    +0.000 A 
ATOM      2  C   UNL     1       4.634   4.267  16.676  0.00  0.00    +0.000 A 
ATOM      3  C   UNL     1       5.032   5.586  16.506  0.00  0.00    +0.000 A 
ATOM      4  C   UNL     1       4.358   6.590  17.192  0.00  0.00    +0.000 A 
ATOM      5  C   UNL     1       3.294   6.242  18.022  0.00  0.00    +0.000 A 
ATOM      6  N   UNL     1       2.873   4.964  18.210  0.00  0.00    +0.000 NA
ENDROOT
BRANCH   5   7
ATOM      7  C   UNL     1       2.547   7.266  18.749  0.00  0.00    +0.000 A 
ATOM      8  N   UNL     1       2.018   8.374  18.258  0.00  0.00    +0.000 NA
ATOM      9  C   UNL     1       1.396   8.994  19.314  0.00  0.00    +0.000 A 
ATOM     10  C   UNL     1       0.676  10.195  19.351  0.00  0.00    +0.000 A 
ATOM     11  C   UNL     1       0.122  10.609  20.570  0.00  0.00    +0.000 A 
ATOM     12  C   UNL     1       0.282   9.841  21.726  0.00  0.00    +0.000 A 
ATOM     13  C   UNL     1       1.003   8.641  21.709  0.00  0.00    +0.000 A 
ATOM     14  C   UNL     1       1.545   8.255  20.481  0.00  0.00    +0.000 A 
ATOM     15  N   UNL     1       2.293   7.175  20.097  0.00  0.00    +0.000 N 
ATOM     16  H   UNL     1       2.611   6.416  20.681  0.00  0.00    +0.000 HD
ENDBRANCH   5   7
BRANCH   1  18
ATOM     17  N   UNL     1       4.084   1.739  18.243  0.00  0.00    +0.000 N 
ATOM     18  C   UNL     1       3.137   2.585  17.736  0.00  0.00    +0.000 C 
ATOM     19  O   UNL     1       2.005   2.194  17.477  0.00  0.00    +0.000 OA
ATOM     20  H   UNL     1       3.823   0.784  18.446  0.00  0.00    +0.000 HD
ATOM     21  H   UNL     1       4.987   2.096  18.527  0.00  0.00    +0.000 HD
ENDBRANCH   1  18
TORSDOF 2
ENDMDL
MODEL 9
REMARK VINA RESULT:      -7.1      3.777      4.563
REMARK  Name = 
REMARK  2 active torsions:
REMARK  status: ('A' for Active; 'I' for Inactive)
REMARK    1  A    between atoms: C_2  and  C_4
REMARK    2  A    between atoms: C_8  and  C_9
REMARK                            x       y       z     vdW  Elec       q    Type
REMARK                         _______ _______ _______ _____ _____    ______ ____
ROOT
ATOM      1  C   UNL     1       7.063   6.294  17.262  0.00  0.00    +0.000 A 
ATOM      2  C   UNL     1       7.373   5.762  16.016  0.00  0.00    +0.000 A 
ATOM      3  C   UNL     1       6.668   4.647  15.581  0.00  0.00    +0.000 A 
ATOM      4  C   UNL     1       5.682   4.109  16.402  0.00  0.00    +0.000 A 
ATOM      5  C   UNL     1       5.440   4.699  17.641  0.00  0.00    +0.000 A 
ATOM      6  N   UNL     1       6.113   5.787  18.101  0.00  0.00    +0.000 NA
ENDROOT
BRANCH   5   7
ATOM      7  C   UNL     1       4.425   4.157  18.541  0.00  0.00    +0.000 A 
ATOM      8  N   UNL     1       4.623   3.449  19.640  0.00  0.00    +0.000 NA
ATOM      9  C   UNL     1       3.374   3.197  20.155  0.00  0.00    +0.000 A 
ATOM     10  C   UNL     1       3.006   2.493  21.309  0.00  0.00    +0.000 A 
ATOM     11  C   UNL     1       1.645   2.387  21.625  0.00  0.00    +0.000 A 
ATOM     12  C   UNL     1       0.673   2.970  20.807  0.00  0.00    +0.000 A 
ATOM     13  C   UNL     1       1.023   3.672  19.648  0.00  0.00    +0.000 A 
ATOM     14  C   UNL     1       2.385   3.760  19.357  0.00  0.00    +0.000 A 
ATOM     15  N   UNL     1       3.079   4.347  18.333  0.00  0.00    +0.000 N 
ATOM     16  H   UNL     1       2.695   4.851  17.549  0.00  0.00    +0.000 HD
ENDBRANCH   5   7
BRANCH   1  18
ATOM     17  N   UNL     1       8.489   7.367  18.915  0.00  0.00    +0.000 N 
ATOM     18  C   UNL     1       7.806   7.505  17.737  0.00  0.00    +0.000 C 
ATOM     19  O   UNL     1       7.817   8.560  17.115  0.00  0.00    +0.000 OA
ATOM     20  H   UNL     1       9.044   8.142  19.247  0.00  0.00    +0.000 HD
ATOM     21  H   UNL     1       8.535   6.467  19.373  0.00  0.00    +0.000 HD
ENDBRANCH   1  18
TORSDOF 2
ENDMDL
