MODEL 1
REMARK VINA RESULT:      -8.2      0.000      0.000
REMARK  Name = 
REMARK  6 active torsions:
REMARK  status: ('A' for Active; 'I' for Inactive)
REMARK    1  A    between atoms: C_1  and  C_2
REMARK    2  A    between atoms: C_2  and  C_4
REMARK    3  A    between atoms: C_7  and  O_8
REMARK    4  A    between atoms: O_8  and  C_9
REMARK    5  A    between atoms: C_9  and  C_10
REMARK    6  A    between atoms: C_10  and  N_11
REMARK                            x       y       z     vdW  Elec       q    Type
REMARK                         _______ _______ _______ _____ _____    ______ ____
ROOT
ATOM      1  N   UNL     1       3.388   6.159  17.990  0.00  0.00    +0.000 N 
ATOM      2  C   UNL     1       4.537   6.168  17.158  0.00  0.00    +0.000 C 
ATOM      3  O   UNL     1       4.680   6.797  16.118  0.00  0.00    +0.000 OA
ATOM      4  C   UNL     1       5.587   5.215  17.848  0.00  0.00    +0.000 C 
ATOM      5  O   UNL     1       6.535   4.476  17.106  0.00  0.00    +0.000 OA
ATOM      6  C   UNL     1       7.729   4.480  17.892  0.00  0.00    +0.000 C 
ATOM      7  C   UNL     1       7.652   5.732  18.723  0.00  0.00    +0.000 C 
ATOM      8  O   UNL     1       6.266   6.001  18.861  0.00  0.00    +0.000 OA
ATOM      9  C   UNL     1       4.639   4.346  18.641  0.00  0.00    +0.000 A 
ATOM     10  C   UNL     1       4.872   3.080  19.160  0.00  0.00    +0.000 A 
ATOM     11  C   UNL     1       3.955   2.577  20.072  0.00  0.00    +0.000 A 
ATOM     12  C   UNL     1       2.863   3.365  20.490  0.00  0.00    +0.000 A 
ATOM     13 CL   UNL     1       1.894   2.704  21.761  0.00  0.00    +0.000 Cl
ATOM     14  C   UNL     1       2.605   4.625  19.911  0.00  0.00    +0.000 A 
ATOM     15 CL   UNL     1       1.335   5.619  20.528  0.00  0.00    +0.000 Cl
ATOM     16  C   UNL     1       3.456   5.070  18.904  0.00  0.00    +0.000 A 
ENDROOT
BRANCH   1  17
ATOM     17  C   UNL     1       2.300   7.108  17.791  0.00  0.00    +0.000 C 
BRANCH  17  18
ATOM     18  C   UNL     1       2.630   8.615  17.909  0.00  0.00    +0.000 C 
BRANCH  18  19
ATOM     19  O   UNL     1       1.412   9.354  17.696  0.00  0.00    +0.000 OA
BRANCH  19  23
ATOM     20  C   UNL     1      -0.434  10.801  21.181  0.00  0.00    +0.000 A 
ATOM     21  C   UNL     1       0.530   9.793  21.211  0.00  0.00    +0.000 A 
ATOM     22  C   UNL     1       1.113   9.345  20.017  0.00  0.00    +0.000 A 
ATOM     23  C   UNL     1       0.748   9.881  18.771  0.00  0.00    +0.000 A 
ATOM     24  C   UNL     1      -0.200  10.899  18.742  0.00  0.00    +0.000 A 
ATOM     25  C   UNL     1      -0.786  11.357  19.940  0.00  0.00    +0.000 A 
BRANCH  20  27
ATOM     26  C   UNL     1      -2.306  12.215  22.300  0.00  0.00    +0.000 C 
ATOM     27  C   UNL     1      -1.097  11.316  22.425  0.00  0.00    +0.000 C 
ATOM     28  O   UNL     1      -0.660  10.989  23.528  0.00  0.00    +0.000 OA
ENDBRANCH  20  27
ENDBRANCH  19  23
ENDBRANCH  18  19
ENDBRANCH  17  18
ENDBRANCH   1  17
TORSDOF 5
ENDMDL
MODEL 2
REMARK VINA RESULT:      -8.1      0.689      1.156
REMARK  Name = 
REMARK  6 active torsions:
REMARK  status: ('A' for Active; 'I' for Inactive)
REMARK    1  A    between atoms: C_1  and  C_2
REMARK    2  A    between atoms: C_2  and  C_4
REMARK    3  A    between atoms: C_7  and  O_8
REMARK    4  A    between atoms: O_8  and  C_9
REMARK    5  A    between atoms: C_9  and  C_10
REMARK    6  A    between atoms: C_10  and  N_11
REMARK                            x       y       z     vdW  Elec       q    Type
REMARK                         _______ _______ _______ _____ _____    ______ ____
ROOT
ATOM      1  N   UNL     1       3.347   6.226  18.073  0.00  0.00    +0.000 N 
ATOM      2  C   UNL     1       4.471   6.260  17.209  0.00  0.00    +0.000 C 
ATOM      3  O   UNL     1       4.591   6.935  16.196  0.00  0.00    +0.000 OA
ATOM      4  C   UNL     1       5.527   5.263  17.822  0.00  0.00    +0.000 C 
ATOM      5  O   UNL     1       6.443   4.548  17.019  0.00  0.00    +0.000 OA
ATOM      6  C   UNL     1       7.660   4.502  17.768  0.00  0.00    +0.000 C 
ATOM      7  C   UNL     1       7.623   5.713  18.658  0.00  0.00    +0.000 C 
ATOM      8  O   UNL     1       6.246   5.992  18.850  0.00  0.00    +0.000 OA
ATOM      9  C   UNL     1       4.591   4.370  18.602  0.00  0.00    +0.000 A 
ATOM     10  C   UNL     1       4.823   3.078  19.054  0.00  0.00    +0.000 A 
ATOM     11  C   UNL     1       3.927   2.544  19.969  0.00  0.00    +0.000 A 
ATOM     12  C   UNL     1       2.858   3.323  20.455  0.00  0.00    +0.000 A 
ATOM     13 CL   UNL     1       1.918   2.615  21.723  0.00  0.00    +0.000 Cl
ATOM     14  C   UNL     1       2.600   4.612  19.944  0.00  0.00    +0.000 A 
ATOM     15 CL   UNL     1       1.362   5.591  20.644  0.00  0.00    +0.000 Cl
ATOM     16  C   UNL     1       3.427   5.094  18.934  0.00  0.00    +0.000 A 
ENDROOT
BRANCH   1  17
ATOM     17  C   UNL     1       2.266   7.195  17.952  0.00  0.00    +0.000 C 
BRANCH  17  18
ATOM     18  C   UNL     1       2.330   8.458  18.844  0.00  0.00    +0.000 C 
BRANCH  18  19
ATOM     19  O   UNL     1       1.110   9.200  18.651  0.00  0.00    +0.000 OA
BRANCH  19  23
ATOM     20  C   UNL     1      -0.833  11.303  21.725  0.00  0.00    +0.000 A 
ATOM     21  C   UNL     1      -0.960  11.659  20.382  0.00  0.00    +0.000 A 
ATOM     22  C   UNL     1      -0.288  10.923  19.396  0.00  0.00    +0.000 A 
ATOM     23  C   UNL     1       0.529   9.828  19.720  0.00  0.00    +0.000 A 
ATOM     24  C   UNL     1       0.641   9.461  21.057  0.00  0.00    +0.000 A 
ATOM     25  C   UNL     1      -0.037  10.194  22.053  0.00  0.00    +0.000 A 
BRANCH  20  27
ATOM     26  C   UNL     1      -1.147  13.496  23.084  0.00  0.00    +0.000 C 
ATOM     27  C   UNL     1      -1.524  12.055  22.824  0.00  0.00    +0.000 C 
ATOM     28  O   UNL     1      -2.397  11.498  23.489  0.00  0.00    +0.000 OA
ENDBRANCH  20  27
ENDBRANCH  19  23
ENDBRANCH  18  19
ENDBRANCH  17  18
ENDBRANCH   1  17
TORSDOF 5
ENDMDL
MODEL 3
REMARK VINA RESULT:      -8.1      3.138      4.403
REMARK  Name = 
REMARK  6 active torsions:
REMARK  status: ('A' for Active; 'I' for Inactive)
REMARK    1  A    between atoms: C_1  and  C_2
REMARK    2  A    between atoms: C_2  and  C_4
REMARK    3  A    between atoms: C_7  and  O_8
REMARK    4  A    between atoms: O_8  and  C_9
REMARK    5  A    between atoms: C_9  and  C_10
REMARK    6  A    between atoms: C_10  and  N_11
REMARK                            x       y       z     vdW  Elec       q    Type
REMARK                         _______ _______ _______ _____ _____    ______ ____
ROOT
ATOM      1  N   UNL     1       2.880   7.139  18.719  0.00  0.00    +0.000 N 
ATOM      2  C   UNL     1       2.169   6.779  19.892  0.00  0.00    +0.000 C 
ATOM      3  O   UNL     1       1.505   7.523  20.600  0.00  0.00    +0.000 OA
ATOM      4  C   UNL     1       2.403   5.232  20.090  0.00  0.00    +0.000 C 
ATOM      5  O   UNL     1       2.426   4.631  21.367  0.00  0.00    +0.000 OA
ATOM      6  C   UNL     1       1.797   3.357  21.207  0.00  0.00    +0.000 C 
ATOM      7  C   UNL     1       0.866   3.520  20.037  0.00  0.00    +0.000 C 
ATOM      8  O   UNL     1       1.437   4.550  19.248  0.00  0.00    +0.000 OA
ATOM      9  C   UNL     1       3.704   5.087  19.336  0.00  0.00    +0.000 A 
ATOM     10  C   UNL     1       4.646   4.073  19.446  0.00  0.00    +0.000 A 
ATOM     11  C   UNL     1       5.637   4.004  18.477  0.00  0.00    +0.000 A 
ATOM     12  C   UNL     1       5.635   4.906  17.393  0.00  0.00    +0.000 A 
ATOM     13 CL   UNL     1       6.808   4.608  16.157  0.00  0.00    +0.000 Cl
ATOM     14  C   UNL     1       4.707   5.967  17.324  0.00  0.00    +0.000 A 
ATOM     15 CL   UNL     1       4.649   6.979  15.927  0.00  0.00    +0.000 Cl
ATOM     16  C   UNL     1       3.796   6.107  18.366  0.00  0.00    +0.000 A 
ENDROOT
BRANCH   1  17
ATOM     17  C   UNL     1       2.703   8.444  18.095  0.00  0.00    +0.000 C 
BRANCH  17  18
ATOM     18  C   UNL     1       1.271   8.854  17.679  0.00  0.00    +0.000 C 
BRANCH  18  19
ATOM     19  O   UNL     1       0.899  10.014  18.448  0.00  0.00    +0.000 OA
BRANCH  19  23
ATOM     20  C   UNL     1      -3.107  11.211  18.045  0.00  0.00    +0.000 A 
ATOM     21  C   UNL     1      -2.554  10.186  17.277  0.00  0.00    +0.000 A 
ATOM     22  C   UNL     1      -1.210   9.828  17.451  0.00  0.00    +0.000 A 
ATOM     23  C   UNL     1      -0.386  10.481  18.381  0.00  0.00    +0.000 A 
ATOM     24  C   UNL     1      -0.942  11.492  19.160  0.00  0.00    +0.000 A 
ATOM     25  C   UNL     1      -2.295  11.853  18.994  0.00  0.00    +0.000 A 
BRANCH  20  27
ATOM     26  C   UNL     1      -5.389  11.806  19.137  0.00  0.00    +0.000 C 
ATOM     27  C   UNL     1      -4.537  11.642  17.899  0.00  0.00    +0.000 C 
ATOM     28  O   UNL     1      -4.993  11.873  16.779  0.00  0.00    +0.000 OA
ENDBRANCH  20  27
ENDBRANCH  19  23
ENDBRANCH  18  19
ENDBRANCH  17  18
ENDBRANCH   1  17
TORSDOF 5
ENDMDL
MODEL 4
REMARK VINA RESULT:      -8.1      3.093      4.292
REMARK  Name = 
REMARK  6 active torsions:
REMARK  status: ('A' for Active; 'I' for Inactive)
REMARK    1  A    between atoms: C_1  and  C_2
REMARK    2  A    between atoms: C_2  and  C_4
REMARK    3  A    between atoms: C_7  and  O_8
REMARK    4  A    between atoms: O_8  and  C_9
REMARK    5  A    between atoms: C_9  and  C_10
REMARK    6  A    between atoms: C_10  and  N_11
REMARK                            x       y       z     vdW  Elec       q    Type
REMARK                         _______ _______ _______ _____ _____    ______ ____
ROOT
ATOM      1  N   UNL     1       2.965   7.068  18.729  0.00  0.00    +0.000 N 
ATOM      2  C   UNL     1       2.242   6.699  19.892  0.00  0.00    +0.000 C 
ATOM      3  O   UNL     1       1.586   7.441  20.609  0.00  0.00    +0.000 OA
ATOM      4  C   UNL     1       2.449   5.145  20.064  0.00  0.00    +0.000 C 
ATOM      5  O   UNL     1       2.455   4.521  21.330  0.00  0.00    +0.000 OA
ATOM      6  C   UNL     1       1.807   3.261  21.144  0.00  0.00    +0.000 C 
ATOM      7  C   UNL     1       0.885   3.459  19.972  0.00  0.00    +0.000 C 
ATOM      8  O   UNL     1       1.478   4.494  19.205  0.00  0.00    +0.000 OA
ATOM      9  C   UNL     1       3.752   4.991  19.315  0.00  0.00    +0.000 A 
ATOM     10  C   UNL     1       4.677   3.960  19.412  0.00  0.00    +0.000 A 
ATOM     11  C   UNL     1       5.672   3.892  18.447  0.00  0.00    +0.000 A 
ATOM     12  C   UNL     1       5.691   4.812  17.379  0.00  0.00    +0.000 A 
ATOM     13 CL   UNL     1       6.866   4.517  16.145  0.00  0.00    +0.000 Cl
ATOM     14  C   UNL     1       4.781   5.889  17.324  0.00  0.00    +0.000 A 
ATOM     15 CL   UNL     1       4.748   6.926  15.945  0.00  0.00    +0.000 Cl
ATOM     16  C   UNL     1       3.866   6.027  18.363  0.00  0.00    +0.000 A 
ENDROOT
BRANCH   1  17
ATOM     17  C   UNL     1       2.814   8.386  18.127  0.00  0.00    +0.000 C 
BRANCH  17  18
ATOM     18  C   UNL     1       1.407   8.790  17.625  0.00  0.00    +0.000 C 
BRANCH  18  19
ATOM     19  O   UNL     1       0.944   9.887  18.436  0.00  0.00    +0.000 OA
BRANCH  19  23
ATOM     20  C   UNL     1      -3.000  11.331  18.370  0.00  0.00    +0.000 A 
ATOM     21  C   UNL     1      -2.046  11.808  19.270  0.00  0.00    +0.000 A 
ATOM     22  C   UNL     1      -0.744  11.289  19.250  0.00  0.00    +0.000 A 
ATOM     23  C   UNL     1      -0.363  10.285  18.346  0.00  0.00    +0.000 A 
ATOM     24  C   UNL     1      -1.308   9.821  17.436  0.00  0.00    +0.000 A 
ATOM     25  C   UNL     1      -2.618  10.344  17.447  0.00  0.00    +0.000 A 
BRANCH  20  27
ATOM     26  C   UNL     1      -5.176  11.843  17.045  0.00  0.00    +0.000 C 
ATOM     27  C   UNL     1      -4.410  11.843  18.347  0.00  0.00    +0.000 C 
ATOM     28  O   UNL     1      -4.931  12.241  19.390  0.00  0.00    +0.000 OA
ENDBRANCH  20  27
ENDBRANCH  19  23
ENDBRANCH  18  19
ENDBRANCH  17  18
ENDBRANCH   1  17
TORSDOF 5
ENDMDL
MODEL 5
REMARK VINA RESULT:      -8.0      2.183      2.609
REMARK  Name = 
REMARK  6 active torsions:
REMARK  status: ('A' for Active; 'I' for Inactive)
REMARK    1  A    between atoms: C_1  and  C_2
REMARK    2  A    between atoms: C_2  and  C_4
REMARK    3  A    between atoms: C_7  and  O_8
REMARK    4  A    between atoms: O_8  and  C_9
REMARK    5  A    between atoms: C_9  and  C_10
REMARK    6  A    between atoms: C_10  and  N_11
REMARK                            x       y       z     vdW  Elec       q    Type
REMARK                         _______ _______ _______ _____ _____    ______ ____
ROOT
ATOM      1  N   UNL     1       3.286   6.729  17.975  0.00  0.00    +0.000 N 
ATOM      2  C   UNL     1       4.158   6.726  16.856  0.00  0.00    +0.000 C 
ATOM      3  O   UNL     1       4.399   7.670  16.117  0.00  0.00    +0.000 OA
ATOM      4  C   UNL     1       4.754   5.268  16.768  0.00  0.00    +0.000 C 
ATOM      5  O   UNL     1       5.123   4.679  15.539  0.00  0.00    +0.000 OA
ATOM      6  C   UNL     1       6.298   3.913  15.815  0.00  0.00    +0.000 C 
ATOM      7  C   UNL     1       6.939   4.584  16.999  0.00  0.00    +0.000 C 
ATOM      8  O   UNL     1       5.873   5.215  17.689  0.00  0.00    +0.000 OA
ATOM      9  C   UNL     1       3.658   4.516  17.487  0.00  0.00    +0.000 A 
ATOM     10  C   UNL     1       3.370   3.159  17.423  0.00  0.00    +0.000 A 
ATOM     11  C   UNL     1       2.488   2.642  18.361  0.00  0.00    +0.000 A 
ATOM     12  C   UNL     1       1.961   3.469  19.373  0.00  0.00    +0.000 A 
ATOM     13 CL   UNL     1       1.022   2.674  20.589  0.00  0.00    +0.000 Cl
ATOM     14  C   UNL     1       2.217   4.856  19.393  0.00  0.00    +0.000 A 
ATOM     15 CL   UNL     1       1.661   5.822  20.711  0.00  0.00    +0.000 Cl
ATOM     16  C   UNL     1       2.998   5.392  18.374  0.00  0.00    +0.000 A 
ENDROOT
BRANCH   1  17
ATOM     17  C   UNL     1       2.735   7.969  18.504  0.00  0.00    +0.000 C 
BRANCH  17  18
ATOM     18  C   UNL     1       1.605   8.655  17.700  0.00  0.00    +0.000 C 
BRANCH  18  19
ATOM     19  O   UNL     1       1.141   9.786  18.462  0.00  0.00    +0.000 OA
BRANCH  19  23
ATOM     20  C   UNL     1      -2.807  11.214  18.344  0.00  0.00    +0.000 A 
ATOM     21  C   UNL     1      -1.853  11.731  19.221  0.00  0.00    +0.000 A 
ATOM     22  C   UNL     1      -0.550  11.217  19.220  0.00  0.00    +0.000 A 
ATOM     23  C   UNL     1      -0.167  10.176  18.358  0.00  0.00    +0.000 A 
ATOM     24  C   UNL     1      -1.114   9.671  17.471  0.00  0.00    +0.000 A 
ATOM     25  C   UNL     1      -2.425  10.189  17.464  0.00  0.00    +0.000 A 
BRANCH  20  27
ATOM     26  C   UNL     1      -4.948  11.773  16.981  0.00  0.00    +0.000 C 
ATOM     27  C   UNL     1      -4.220  11.721  18.304  0.00  0.00    +0.000 C 
ATOM     28  O   UNL     1      -4.772  12.071  19.347  0.00  0.00    +0.000 OA
ENDBRANCH  20  27
ENDBRANCH  19  23
ENDBRANCH  18  19
ENDBRANCH  17  18
ENDBRANCH   1  17
TORSDOF 5
ENDMDL
MODEL 6
REMARK VINA RESULT:      -7.9      3.644      8.683
REMARK  Name = 
REMARK  6 active torsions:
REMARK  status: ('A' for Active; 'I' for Inactive)
REMARK    1  A    between atoms: C_1  and  C_2
REMARK    2  A    between atoms: C_2  and  C_4
REMARK    3  A    between atoms: C_7  and  O_8
REMARK    4  A    between atoms: O_8  and  C_9
REMARK    5  A    between atoms: C_9  and  C_10
REMARK    6  A    between atoms: C_10  and  N_11
REMARK                            x       y       z     vdW  Elec       q    Type
REMARK                         _______ _______ _______ _____ _____    ______ ____
ROOT
ATOM      1  N   UNL     1       0.070  10.554  20.250  0.00  0.00    +0.000 N 
ATOM      2  C   UNL     1       0.077  10.624  18.833  0.00  0.00    +0.000 C 
ATOM      3  O   UNL     1       1.027  10.396  18.097  0.00  0.00    +0.000 OA
ATOM      4  C   UNL     1      -1.382  11.044  18.407  0.00  0.00    +0.000 C 
ATOM      5  O   UNL     1      -1.637  11.804  17.244  0.00  0.00    +0.000 OA
ATOM      6  C   UNL     1      -2.857  11.288  16.706  0.00  0.00    +0.000 C 
ATOM      7  C   UNL     1      -2.926   9.861  17.178  0.00  0.00    +0.000 C 
ATOM      8  O   UNL     1      -2.178   9.832  18.383  0.00  0.00    +0.000 OA
ATOM      9  C   UNL     1      -1.814  11.735  19.679  0.00  0.00    +0.000 A 
ATOM     10  C   UNL     1      -2.837  12.659  19.844  0.00  0.00    +0.000 A 
ATOM     11  C   UNL     1      -3.227  12.967  21.140  0.00  0.00    +0.000 A 
ATOM     12  C   UNL     1      -2.634  12.308  22.236  0.00  0.00    +0.000 A 
ATOM     13 CL   UNL     1      -3.327  12.640  23.786  0.00  0.00    +0.000 Cl
ATOM     14  C   UNL     1      -1.557  11.414  22.058  0.00  0.00    +0.000 A 
ATOM     15 CL   UNL     1      -0.933  10.530  23.403  0.00  0.00    +0.000 Cl
ATOM     16  C   UNL     1      -1.085  11.207  20.766  0.00  0.00    +0.000 A 
ENDROOT
BRANCH   1  17
ATOM     17  C   UNL     1       1.183   9.968  20.986  0.00  0.00    +0.000 C 
BRANCH  17  18
ATOM     18  C   UNL     1       1.256   8.425  21.071  0.00  0.00    +0.000 C 
BRANCH  18  19
ATOM     19  O   UNL     1       2.209   7.971  20.090  0.00  0.00    +0.000 OA
BRANCH  19  23
ATOM     20  C   UNL     1       1.849   3.949  18.934  0.00  0.00    +0.000 A 
ATOM     21  C   UNL     1       1.579   4.378  20.234  0.00  0.00    +0.000 A 
ATOM     22  C   UNL     1       1.717   5.733  20.566  0.00  0.00    +0.000 A 
ATOM     23  C   UNL     1       2.133   6.686  19.623  0.00  0.00    +0.000 A 
ATOM     24  C   UNL     1       2.384   6.262  18.321  0.00  0.00    +0.000 A 
ATOM     25  C   UNL     1       2.241   4.901  17.980  0.00  0.00    +0.000 A 
BRANCH  20  27
ATOM     26  C   UNL     1       2.976   1.689  18.320  0.00  0.00    +0.000 C 
ATOM     27  C   UNL     1       1.724   2.512  18.520  0.00  0.00    +0.000 C 
ATOM     28  O   UNL     1       0.608   2.017  18.365  0.00  0.00    +0.000 OA
ENDBRANCH  20  27
ENDBRANCH  19  23
ENDBRANCH  18  19
ENDBRANCH  17  18
ENDBRANCH   1  17
TORSDOF 5
ENDMDL
MODEL 7
REMARK VINA RESULT:      -7.8      1.471      1.751
REMARK  Name = 
REMARK  6 active torsions:
REMARK  status: ('A' for Active; 'I' for Inactive)
REMARK    1  A    between atoms: C_1  and  C_2
REMARK    2  A    between atoms: C_2  and  C_4
REMARK    3  A    between atoms: C_7  and  O_8
REMARK    4  A    between atoms: O_8  and  C_9
REMARK    5  A    between atoms: C_9  and  C_10
REMARK    6  A    between atoms: C_10  and  N_11
REMARK                            x       y       z     vdW  Elec       q    Type
REMARK                         _______ _______ _______ _____ _____    ______ ____
ROOT
ATOM      1  N   UNL     1       3.408   6.186  18.026  0.00  0.00    +0.000 N 
ATOM      2  C   UNL     1       4.537   6.220  17.168  0.00  0.00    +0.000 C 
ATOM      3  O   UNL     1       4.656   6.883  16.147  0.00  0.00    +0.000 OA
ATOM      4  C   UNL     1       5.599   5.241  17.800  0.00  0.00    +0.000 C 
ATOM      5  O   UNL     1       6.526   4.525  17.012  0.00  0.00    +0.000 OA
ATOM      6  C   UNL     1       7.739   4.500  17.769  0.00  0.00    +0.000 C 
ATOM      7  C   UNL     1       7.685   5.723  18.643  0.00  0.00    +0.000 C 
ATOM      8  O   UNL     1       6.305   5.991  18.823  0.00  0.00    +0.000 OA
ATOM      9  C   UNL     1       4.666   4.349  18.586  0.00  0.00    +0.000 A 
ATOM     10  C   UNL     1       4.908   3.066  19.057  0.00  0.00    +0.000 A 
ATOM     11  C   UNL     1       4.011   2.535  19.973  0.00  0.00    +0.000 A 
ATOM     12  C   UNL     1       2.932   3.310  20.442  0.00  0.00    +0.000 A 
ATOM     13 CL   UNL     1       1.991   2.610  21.714  0.00  0.00    +0.000 Cl
ATOM     14  C   UNL     1       2.665   4.590  19.913  0.00  0.00    +0.000 A 
ATOM     15 CL   UNL     1       1.413   5.566  20.593  0.00  0.00    +0.000 Cl
ATOM     16  C   UNL     1       3.493   5.066  18.902  0.00  0.00    +0.000 A 
ENDROOT
BRANCH   1  17
ATOM     17  C   UNL     1       2.318   7.144  17.886  0.00  0.00    +0.000 C 
BRANCH  17  18
ATOM     18  C   UNL     1       2.192   8.251  18.960  0.00  0.00    +0.000 C 
BRANCH  18  19
ATOM     19  O   UNL     1       1.891   9.489  18.287  0.00  0.00    +0.000 OA
BRANCH  19  23
ATOM     20  C   UNL     1      -1.756  11.405  19.104  0.00  0.00    +0.000 A 
ATOM     21  C   UNL     1      -1.629  10.439  18.106  0.00  0.00    +0.000 A 
ATOM     22  C   UNL     1      -0.387   9.832  17.874  0.00  0.00    +0.000 A 
ATOM     23  C   UNL     1       0.753  10.175  18.618  0.00  0.00    +0.000 A 
ATOM     24  C   UNL     1       0.623  11.126  19.626  0.00  0.00    +0.000 A 
ATOM     25  C   UNL     1      -0.625  11.736  19.868  0.00  0.00    +0.000 A 
BRANCH  20  27
ATOM     26  C   UNL     1      -3.116  13.134  20.489  0.00  0.00    +0.000 C 
ATOM     27  C   UNL     1      -3.058  12.094  19.394  0.00  0.00    +0.000 C 
ATOM     28  O   UNL     1      -4.056  11.816  18.729  0.00  0.00    +0.000 OA
ENDBRANCH  20  27
ENDBRANCH  19  23
ENDBRANCH  18  19
ENDBRANCH  17  18
ENDBRANCH   1  17
TORSDOF 5
ENDMDL
MODEL 8
REMARK VINA RESULT:      -7.8      1.595      2.035
REMARK  Name = 
REMARK  6 active torsions:
REMARK  status: ('A' for Active; 'I' for Inactive)
REMARK    1  A    between atoms: C_1  and  C_2
REMARK    2  A    between atoms: C_2  and  C_4
REMARK    3  A    between atoms: C_7  and  O_8
REMARK    4  A    between atoms: O_8  and  C_9
REMARK    5  A    between atoms: C_9  and  C_10
REMARK    6  A    between atoms: C_10  and  N_11
REMARK                            x       y       z     vdW  Elec       q    Type
REMARK                         _______ _______ _______ _____ _____    ______ ____
ROOT
ATOM      1  N   UNL     1       3.254   6.223  18.230  0.00  0.00    +0.000 N 
ATOM      2  C   UNL     1       4.366   6.309  17.353  0.00  0.00    +0.000 C 
ATOM      3  O   UNL     1       4.460   7.021  16.363  0.00  0.00    +0.000 OA
ATOM      4  C   UNL     1       5.449   5.311  17.917  0.00  0.00    +0.000 C 
ATOM      5  O   UNL     1       6.366   4.642  17.078  0.00  0.00    +0.000 OA
ATOM      6  C   UNL     1       7.593   4.592  17.809  0.00  0.00    +0.000 C 
ATOM      7  C   UNL     1       7.547   5.771  18.742  0.00  0.00    +0.000 C 
ATOM      8  O   UNL     1       6.167   6.017  18.960  0.00  0.00    +0.000 OA
ATOM      9  C   UNL     1       4.539   4.374  18.676  0.00  0.00    +0.000 A 
ATOM     10  C   UNL     1       4.801   3.071  19.081  0.00  0.00    +0.000 A 
ATOM     11  C   UNL     1       3.927   2.489  19.987  0.00  0.00    +0.000 A 
ATOM     12  C   UNL     1       2.850   3.231  20.514  0.00  0.00    +0.000 A 
ATOM     13 CL   UNL     1       1.940   2.461  21.768  0.00  0.00    +0.000 Cl
ATOM     14  C   UNL     1       2.562   4.532  20.052  0.00  0.00    +0.000 A 
ATOM     15 CL   UNL     1       1.315   5.462  20.801  0.00  0.00    +0.000 Cl
ATOM     16  C   UNL     1       3.366   5.063  19.049  0.00  0.00    +0.000 A 
ENDROOT
BRANCH   1  17
ATOM     17  C   UNL     1       2.154   7.176  18.156  0.00  0.00    +0.000 C 
BRANCH  17  18
ATOM     18  C   UNL     1       2.510   8.674  18.007  0.00  0.00    +0.000 C 
BRANCH  18  19
ATOM     19  O   UNL     1       1.814   9.400  19.039  0.00  0.00    +0.000 OA
BRANCH  19  23
ATOM     20  C   UNL     1      -2.047  10.987  18.568  0.00  0.00    +0.000 A 
ATOM     21  C   UNL     1      -1.293  11.190  19.724  0.00  0.00    +0.000 A 
ATOM     22  C   UNL     1      -0.010  10.636  19.830  0.00  0.00    +0.000 A 
ATOM     23  C   UNL     1       0.549   9.864  18.798  0.00  0.00    +0.000 A 
ATOM     24  C   UNL     1      -0.195   9.676  17.637  0.00  0.00    +0.000 A 
ATOM     25  C   UNL     1      -1.484  10.236  17.523  0.00  0.00    +0.000 A 
BRANCH  20  27
ATOM     26  C   UNL     1      -4.126  11.408  17.067  0.00  0.00    +0.000 C 
ATOM     27  C   UNL     1      -3.428  11.550  18.399  0.00  0.00    +0.000 C 
ATOM     28  O   UNL     1      -3.980  12.105  19.349  0.00  0.00    +0.000 OA
ENDBRANCH  20  27
ENDBRANCH  19  23
ENDBRANCH  18  19
ENDBRANCH  17  18
ENDBRANCH   1  17
TORSDOF 5
ENDMDL
MODEL 9
REMARK VINA RESULT:      -7.7      1.418      1.544
REMARK  Name = 
REMARK  6 active torsions:
REMARK  status: ('A' for Active; 'I' for Inactive)
REMARK    1  A    between atoms: C_1  and  C_2
REMARK    2  A    between atoms: C_2  and  C_4
REMARK    3  A    between atoms: C_7  and  O_8
REMARK    4  A    between atoms: O_8  and  C_9
REMARK    5  A    between atoms: C_9  and  C_10
REMARK    6  A    between atoms: C_10  and  N_11
REMARK                            x       y       z     vdW  Elec       q    Type
REMARK                         _______ _______ _______ _____ _____    ______ ____
ROOT
ATOM      1  N   UNL     1       3.534   6.777  17.739  0.00  0.00    +0.000 N 
ATOM      2  C   UNL     1       4.408   6.703  16.624  0.00  0.00    +0.000 C 
ATOM      3  O   UNL     1       4.706   7.618  15.869  0.00  0.00    +0.000 OA
ATOM      4  C   UNL     1       4.916   5.211  16.563  0.00  0.00    +0.000 C 
ATOM      5  O   UNL     1       5.253   4.580  15.346  0.00  0.00    +0.000 OA
ATOM      6  C   UNL     1       6.380   3.751  15.640  0.00  0.00    +0.000 C 
ATOM      7  C   UNL     1       7.056   4.403  16.815  0.00  0.00    +0.000 C 
ATOM      8  O   UNL     1       6.027   5.108  17.490  0.00  0.00    +0.000 OA
ATOM      9  C   UNL     1       3.776   4.538  17.290  0.00  0.00    +0.000 A 
ATOM     10  C   UNL     1       3.407   3.200  17.249  0.00  0.00    +0.000 A 
ATOM     11  C   UNL     1       2.494   2.753  18.192  0.00  0.00    +0.000 A 
ATOM     12  C   UNL     1       2.014   3.627  19.188  0.00  0.00    +0.000 A 
ATOM     13 CL   UNL     1       1.025   2.911  20.413  0.00  0.00    +0.000 Cl
ATOM     14  C   UNL     1       2.351   4.997  19.184  0.00  0.00    +0.000 A 
ATOM     15 CL   UNL     1       1.850   6.017  20.484  0.00  0.00    +0.000 Cl
ATOM     16  C   UNL     1       3.166   5.468  18.160  0.00  0.00    +0.000 A 
ENDROOT
BRANCH   1  17
ATOM     17  C   UNL     1       3.057   8.058  18.245  0.00  0.00    +0.000 C 
BRANCH  17  18
ATOM     18  C   UNL     1       1.627   8.499  17.848  0.00  0.00    +0.000 C 
BRANCH  18  19
ATOM     19  O   UNL     1       1.595   9.940  17.837  0.00  0.00    +0.000 OA
BRANCH  19  23
ATOM     20  C   UNL     1      -0.156  11.713  21.218  0.00  0.00    +0.000 A 
ATOM     21  C   UNL     1      -0.345  10.368  20.899  0.00  0.00    +0.000 A 
ATOM     22  C   UNL     1       0.261   9.828  19.757  0.00  0.00    +0.000 A 
ATOM     23  C   UNL     1       1.059  10.608  18.905  0.00  0.00    +0.000 A 
ATOM     24  C   UNL     1       1.263  11.945  19.232  0.00  0.00    +0.000 A 
ATOM     25  C   UNL     1       0.660  12.493  20.383  0.00  0.00    +0.000 A 
BRANCH  20  27
ATOM     26  C   UNL     1      -2.156  11.897  22.868  0.00  0.00    +0.000 C 
ATOM     27  C   UNL     1      -0.784  12.350  22.424  0.00  0.00    +0.000 C 
ATOM     28  O   UNL     1      -0.170  13.218  23.044  0.00  0.00    +0.000 OA
ENDBRANCH  20  27
ENDBRANCH  19  23
ENDBRANCH  18  19
ENDBRANCH  17  18
ENDBRANCH   1  17
TORSDOF 5
ENDMDL
