MODEL 1
REMARK VINA RESULT:      -9.4      0.000      0.000
REMARK  Name = 
REMARK  3 active torsions:
REMARK  status: ('A' for Active; 'I' for Inactive)
REMARK    1  A    between atoms: C_4  and  C_6
REMARK    2  A    between atoms: C_18  and  O_19
REMARK    3  A    between atoms: O_19  and  C_20
REMARK                            x       y       z     vdW  Elec       q    Type
REMARK                         _______ _______ _______ _____ _____    ______ ____
ROOT
ATOM      1  O   UNL     1       2.545   3.728  21.437  0.00  0.00    +0.000 OA
ATOM      2  C   UNL     1       2.618   4.771  20.790  0.00  0.00    +0.000 C 
ATOM      3  N   UNL     1       3.398   4.974  19.678  0.00  0.00    +0.000 N 
ATOM      4  C   UNL     1       4.267   4.048  19.123  0.00  0.00    +0.000 C 
ATOM      5  O   UNL     1       4.459   2.921  19.569  0.00  0.00    +0.000 OA
ATOM      6  N   UNL     1       1.840   5.816  21.219  0.00  0.00    +0.000 N 
ATOM      7  C   UNL     1       1.646   7.061  20.623  0.00  0.00    +0.000 A 
ATOM      8  C   UNL     1       0.754   7.965  21.184  0.00  0.00    +0.000 A 
ATOM      9  C   UNL     1       0.488   9.157  20.507  0.00  0.00    +0.000 A 
ATOM     10  C   UNL     1       1.152   9.390  19.313  0.00  0.00    +0.000 A 
ATOM     11  N   UNL     1       2.087   8.535  18.852  0.00  0.00    +0.000 NA
ATOM     12  N   UNL     1       2.302   7.356  19.486  0.00  0.00    +0.000 NA
ATOM     13  H   UNL     1       3.354   5.899  19.267  0.00  0.00    +0.000 HD
ATOM     14  H   UNL     1       1.313   5.585  22.049  0.00  0.00    +0.000 HD
ENDROOT
BRANCH   4  15
ATOM     15  C   UNL     1       5.024   4.466  17.913  0.00  0.00    +0.000 A 
ATOM     16  C   UNL     1       6.260   5.111  17.981  0.00  0.00    +0.000 A 
ATOM     17  F   UNL     1       6.792   5.447  19.162  0.00  0.00    +0.000 F 
ATOM     18  C   UNL     1       6.989   5.419  16.829  0.00  0.00    +0.000 A 
ATOM     19  C   UNL     1       6.486   5.072  15.573  0.00  0.00    +0.000 A 
ATOM     20  C   UNL     1       5.248   4.439  15.484  0.00  0.00    +0.000 A 
ATOM     21  C   UNL     1       4.528   4.144  16.645  0.00  0.00    +0.000 A 
ATOM     22  F   UNL     1       3.332   3.558  16.493  0.00  0.00    +0.000 F 
ENDBRANCH   4  15
BRANCH  10  23
ATOM     23  O   UNL     1       0.800  10.490  18.545  0.00  0.00    +0.000 OA
BRANCH  23  24
ATOM     24  C   UNL     1      -0.553  10.662  18.292  0.00  0.00    +0.000 A 
ATOM     25  C   UNL     1      -1.256   9.812  17.422  0.00  0.00    +0.000 A 
ATOM     26  C   UNL     1      -2.599  10.041  17.128  0.00  0.00    +0.000 A 
ATOM     27  C   UNL     1      -3.272  11.080  17.760  0.00  0.00    +0.000 A 
ATOM     28 CL   UNL     1      -4.930  11.355  17.393  0.00  0.00    +0.000 Cl
ATOM     29  C   UNL     1      -2.614  11.891  18.683  0.00  0.00    +0.000 A 
ATOM     30  C   UNL     1      -1.254  11.684  18.946  0.00  0.00    +0.000 A 
ATOM     31 CL   UNL     1      -0.476  12.726  20.083  0.00  0.00    +0.000 Cl
ENDBRANCH  23  24
ENDBRANCH  10  23
TORSDOF 3
ENDMDL
MODEL 2
REMARK VINA RESULT:      -9.3      0.153      1.541
REMARK  Name = 
REMARK  3 active torsions:
REMARK  status: ('A' for Active; 'I' for Inactive)
REMARK    1  A    between atoms: C_4  and  C_6
REMARK    2  A    between atoms: C_18  and  O_19
REMARK    3  A    between atoms: O_19  and  C_20
REMARK                            x       y       z     vdW  Elec       q    Type
REMARK                         _______ _______ _______ _____ _____    ______ ____
ROOT
ATOM      1  O   UNL     1       2.500   3.723  21.471  0.00  0.00    +0.000 OA
ATOM      2  C   UNL     1       2.584   4.770  20.831  0.00  0.00    +0.000 C 
ATOM      3  N   UNL     1       3.386   4.981  19.736  0.00  0.00    +0.000 N 
ATOM      4  C   UNL     1       4.268   4.060  19.193  0.00  0.00    +0.000 C 
ATOM      5  O   UNL     1       4.453   2.930  19.636  0.00  0.00    +0.000 OA
ATOM      6  N   UNL     1       1.796   5.811  21.250  0.00  0.00    +0.000 N 
ATOM      7  C   UNL     1       1.612   7.059  20.658  0.00  0.00    +0.000 A 
ATOM      8  C   UNL     1       0.708   7.958  21.206  0.00  0.00    +0.000 A 
ATOM      9  C   UNL     1       0.452   9.154  20.531  0.00  0.00    +0.000 A 
ATOM     10  C   UNL     1       1.140   9.395  19.352  0.00  0.00    +0.000 A 
ATOM     11  N   UNL     1       2.086   8.545  18.904  0.00  0.00    +0.000 NA
ATOM     12  N   UNL     1       2.290   7.362  19.536  0.00  0.00    +0.000 NA
ATOM     13  H   UNL     1       3.349   5.908  19.329  0.00  0.00    +0.000 HD
ATOM     14  H   UNL     1       1.253   5.575  22.069  0.00  0.00    +0.000 HD
ENDROOT
BRANCH   4  15
ATOM     15  C   UNL     1       5.048   4.486  18.001  0.00  0.00    +0.000 A 
ATOM     16  C   UNL     1       4.608   4.269  16.694  0.00  0.00    +0.000 A 
ATOM     17  F   UNL     1       3.477   3.596  16.455  0.00  0.00    +0.000 F 
ATOM     18  C   UNL     1       5.321   4.752  15.592  0.00  0.00    +0.000 A 
ATOM     19  C   UNL     1       6.499   5.477  15.789  0.00  0.00    +0.000 A 
ATOM     20  C   UNL     1       6.960   5.692  17.085  0.00  0.00    +0.000 A 
ATOM     21  C   UNL     1       6.240   5.197  18.176  0.00  0.00    +0.000 A 
ATOM     22  F   UNL     1       6.748   5.414  19.397  0.00  0.00    +0.000 F 
ENDBRANCH   4  15
BRANCH  10  23
ATOM     23  O   UNL     1       0.802  10.499  18.583  0.00  0.00    +0.000 OA
BRANCH  23  24
ATOM     24  C   UNL     1      -0.546  10.671  18.306  0.00  0.00    +0.000 A 
ATOM     25  C   UNL     1      -1.233   9.823  17.422  0.00  0.00    +0.000 A 
ATOM     26  C   UNL     1      -2.571  10.053  17.104  0.00  0.00    +0.000 A 
ATOM     27  C   UNL     1      -3.255  11.091  17.726  0.00  0.00    +0.000 A 
ATOM     28 CL   UNL     1      -4.907  11.366  17.330  0.00  0.00    +0.000 Cl
ATOM     29  C   UNL     1      -2.614  11.900  18.663  0.00  0.00    +0.000 A 
ATOM     30  C   UNL     1      -1.259  11.692  18.950  0.00  0.00    +0.000 A 
ATOM     31 CL   UNL     1      -0.502  12.732  20.102  0.00  0.00    +0.000 Cl
ENDBRANCH  23  24
ENDBRANCH  10  23
TORSDOF 3
ENDMDL
MODEL 3
REMARK VINA RESULT:      -8.8      1.139      1.873
REMARK  Name = 
REMARK  3 active torsions:
REMARK  status: ('A' for Active; 'I' for Inactive)
REMARK    1  A    between atoms: C_4  and  C_6
REMARK    2  A    between atoms: C_18  and  O_19
REMARK    3  A    between atoms: O_19  and  C_20
REMARK                            x       y       z     vdW  Elec       q    Type
REMARK                         _______ _______ _______ _____ _____    ______ ____
ROOT
ATOM      1  O   UNL     1       2.484   3.708  21.463  0.00  0.00    +0.000 OA
ATOM      2  C   UNL     1       2.613   4.725  20.785  0.00  0.00    +0.000 C 
ATOM      3  N   UNL     1       3.426   4.861  19.686  0.00  0.00    +0.000 N 
ATOM      4  C   UNL     1       4.270   3.884  19.182  0.00  0.00    +0.000 C 
ATOM      5  O   UNL     1       4.408   2.766  19.669  0.00  0.00    +0.000 OA
ATOM      6  N   UNL     1       1.868   5.813  21.160  0.00  0.00    +0.000 N 
ATOM      7  C   UNL     1       1.737   7.045  20.520  0.00  0.00    +0.000 A 
ATOM      8  C   UNL     1       0.869   8.000  21.029  0.00  0.00    +0.000 A 
ATOM      9  C   UNL     1       0.666   9.179  20.308  0.00  0.00    +0.000 A 
ATOM     10  C   UNL     1       1.366   9.346  19.124  0.00  0.00    +0.000 A 
ATOM     11  N   UNL     1       2.277   8.441  18.713  0.00  0.00    +0.000 NA
ATOM     12  N   UNL     1       2.431   7.276  19.391  0.00  0.00    +0.000 NA
ATOM     13  H   UNL     1       3.428   5.773  19.244  0.00  0.00    +0.000 HD
ATOM     14  H   UNL     1       1.313   5.631  21.985  0.00  0.00    +0.000 HD
ENDROOT
BRANCH   4  15
ATOM     15  C   UNL     1       5.071   4.232  17.978  0.00  0.00    +0.000 A 
ATOM     16  C   UNL     1       6.357   4.769  18.056  0.00  0.00    +0.000 A 
ATOM     17  F   UNL     1       6.906   5.061  19.241  0.00  0.00    +0.000 F 
ATOM     18  C   UNL     1       7.120   5.010  16.910  0.00  0.00    +0.000 A 
ATOM     19  C   UNL     1       6.600   4.703  15.650  0.00  0.00    +0.000 A 
ATOM     20  C   UNL     1       5.314   4.179  15.551  0.00  0.00    +0.000 A 
ATOM     21  C   UNL     1       4.560   3.950  16.706  0.00  0.00    +0.000 A 
ATOM     22  F   UNL     1       3.320   3.468  16.545  0.00  0.00    +0.000 F 
ENDBRANCH   4  15
BRANCH  10  23
ATOM     23  O   UNL     1       1.076  10.433  18.312  0.00  0.00    +0.000 OA
BRANCH  23  24
ATOM     24  C   UNL     1       0.252  11.408  18.854  0.00  0.00    +0.000 A 
ATOM     25  C   UNL     1       0.769  12.486  19.592  0.00  0.00    +0.000 A 
ATOM     26  C   UNL     1      -0.080  13.418  20.187  0.00  0.00    +0.000 A 
ATOM     27  C   UNL     1      -1.452  13.323  19.987  0.00  0.00    +0.000 A 
ATOM     28 CL   UNL     1      -2.492  14.479  20.722  0.00  0.00    +0.000 Cl
ATOM     29  C   UNL     1      -1.982  12.304  19.197  0.00  0.00    +0.000 A 
ATOM     30  C   UNL     1      -1.131  11.345  18.634  0.00  0.00    +0.000 A 
ATOM     31 CL   UNL     1      -1.835  10.090  17.680  0.00  0.00    +0.000 Cl
ENDBRANCH  23  24
ENDBRANCH  10  23
TORSDOF 3
ENDMDL
MODEL 4
REMARK VINA RESULT:      -8.7      1.130      2.414
REMARK  Name = 
REMARK  3 active torsions:
REMARK  status: ('A' for Active; 'I' for Inactive)
REMARK    1  A    between atoms: C_4  and  C_6
REMARK    2  A    between atoms: C_18  and  O_19
REMARK    3  A    between atoms: O_19  and  C_20
REMARK                            x       y       z     vdW  Elec       q    Type
REMARK                         _______ _______ _______ _____ _____    ______ ____
ROOT
ATOM      1  O   UNL     1       2.476   3.718  21.465  0.00  0.00    +0.000 OA
ATOM      2  C   UNL     1       2.602   4.734  20.783  0.00  0.00    +0.000 C 
ATOM      3  N   UNL     1       3.405   4.865  19.676  0.00  0.00    +0.000 N 
ATOM      4  C   UNL     1       4.240   3.885  19.165  0.00  0.00    +0.000 C 
ATOM      5  O   UNL     1       4.379   2.767  19.653  0.00  0.00    +0.000 OA
ATOM      6  N   UNL     1       1.864   5.825  21.164  0.00  0.00    +0.000 N 
ATOM      7  C   UNL     1       1.730   7.055  20.523  0.00  0.00    +0.000 A 
ATOM      8  C   UNL     1       0.870   8.015  21.040  0.00  0.00    +0.000 A 
ATOM      9  C   UNL     1       0.663   9.193  20.318  0.00  0.00    +0.000 A 
ATOM     10  C   UNL     1       1.352   9.355  19.127  0.00  0.00    +0.000 A 
ATOM     11  N   UNL     1       2.256   8.447  18.709  0.00  0.00    +0.000 NA
ATOM     12  N   UNL     1       2.413   7.282  19.387  0.00  0.00    +0.000 NA
ATOM     13  H   UNL     1       3.405   5.776  19.232  0.00  0.00    +0.000 HD
ATOM     14  H   UNL     1       1.316   5.646  21.995  0.00  0.00    +0.000 HD
ENDROOT
BRANCH   4  15
ATOM     15  C   UNL     1       5.030   4.228  17.953  0.00  0.00    +0.000 A 
ATOM     16  C   UNL     1       4.553   4.020  16.658  0.00  0.00    +0.000 A 
ATOM     17  F   UNL     1       3.370   3.431  16.451  0.00  0.00    +0.000 F 
ATOM     18  C   UNL     1       5.281   4.427  15.536  0.00  0.00    +0.000 A 
ATOM     19  C   UNL     1       6.513   5.064  15.699  0.00  0.00    +0.000 A 
ATOM     20  C   UNL     1       7.012   5.269  16.984  0.00  0.00    +0.000 A 
ATOM     21  C   UNL     1       6.275   4.850  18.095  0.00  0.00    +0.000 A 
ATOM     22  F   UNL     1       6.819   5.051  19.303  0.00  0.00    +0.000 F 
ENDBRANCH   4  15
BRANCH  10  23
ATOM     23  O   UNL     1       1.057  10.442  18.316  0.00  0.00    +0.000 OA
BRANCH  23  24
ATOM     24  C   UNL     1       0.229  11.413  18.860  0.00  0.00    +0.000 A 
ATOM     25  C   UNL     1       0.741  12.489  19.603  0.00  0.00    +0.000 A 
ATOM     26  C   UNL     1      -0.112  13.417  20.199  0.00  0.00    +0.000 A 
ATOM     27  C   UNL     1      -1.483  13.319  19.993  0.00  0.00    +0.000 A 
ATOM     28 CL   UNL     1      -2.529  14.470  20.730  0.00  0.00    +0.000 Cl
ATOM     29  C   UNL     1      -2.008  12.302  19.198  0.00  0.00    +0.000 A 
ATOM     30  C   UNL     1      -1.153  11.347  18.635  0.00  0.00    +0.000 A 
ATOM     31 CL   UNL     1      -1.851  10.094  17.673  0.00  0.00    +0.000 Cl
ENDBRANCH  23  24
ENDBRANCH  10  23
TORSDOF 3
ENDMDL
MODEL 5
REMARK VINA RESULT:      -8.7      1.044      1.054
REMARK  Name = 
REMARK  3 active torsions:
REMARK  status: ('A' for Active; 'I' for Inactive)
REMARK    1  A    between atoms: C_4  and  C_6
REMARK    2  A    between atoms: C_18  and  O_19
REMARK    3  A    between atoms: O_19  and  C_20
REMARK                            x       y       z     vdW  Elec       q    Type
REMARK                         _______ _______ _______ _____ _____    ______ ____
ROOT
ATOM      1  O   UNL     1       2.527   4.345  21.470  0.00  0.00    +0.000 OA
ATOM      2  C   UNL     1       2.481   5.349  20.764  0.00  0.00    +0.000 C 
ATOM      3  N   UNL     1       3.068   5.493  19.530  0.00  0.00    +0.000 N 
ATOM      4  C   UNL     1       3.847   4.542  18.892  0.00  0.00    +0.000 C 
ATOM      5  O   UNL     1       4.125   3.442  19.362  0.00  0.00    +0.000 OA
ATOM      6  N   UNL     1       1.768   6.414  21.255  0.00  0.00    +0.000 N 
ATOM      7  C   UNL     1       1.464   7.622  20.632  0.00  0.00    +0.000 A 
ATOM      8  C   UNL     1       0.663   8.552  21.279  0.00  0.00    +0.000 A 
ATOM      9  C   UNL     1       0.274   9.704  20.591  0.00  0.00    +0.000 A 
ATOM     10  C   UNL     1       0.734   9.872  19.294  0.00  0.00    +0.000 A 
ATOM     11  N   UNL     1       1.593   8.997  18.735  0.00  0.00    +0.000 NA
ATOM     12  N   UNL     1       1.924   7.856  19.389  0.00  0.00    +0.000 NA
ATOM     13  H   UNL     1       2.945   6.394  19.081  0.00  0.00    +0.000 HD
ATOM     14  H   UNL     1       1.385   6.227  22.171  0.00  0.00    +0.000 HD
ENDROOT
BRANCH   4  15
ATOM     15  C   UNL     1       4.393   4.894  17.555  0.00  0.00    +0.000 A 
ATOM     16  C   UNL     1       4.695   6.206  17.185  0.00  0.00    +0.000 A 
ATOM     17  F   UNL     1       4.437   7.227  18.010  0.00  0.00    +0.000 F 
ATOM     18  C   UNL     1       5.284   6.501  15.951  0.00  0.00    +0.000 A 
ATOM     19  C   UNL     1       5.591   5.469  15.062  0.00  0.00    +0.000 A 
ATOM     20  C   UNL     1       5.285   4.155  15.408  0.00  0.00    +0.000 A 
ATOM     21  C   UNL     1       4.690   3.877  16.642  0.00  0.00    +0.000 A 
ATOM     22  F   UNL     1       4.396   2.596  16.907  0.00  0.00    +0.000 F 
ENDBRANCH   4  15
BRANCH  10  23
ATOM     23  O   UNL     1       0.247  10.926  18.534  0.00  0.00    +0.000 OA
BRANCH  23  24
ATOM     24  C   UNL     1      -1.123  10.957  18.324  0.00  0.00    +0.000 A 
ATOM     25  C   UNL     1      -1.761  10.041  17.471  0.00  0.00    +0.000 A 
ATOM     26  C   UNL     1      -3.129  10.131  17.219  0.00  0.00    +0.000 A 
ATOM     27  C   UNL     1      -3.886  11.093  17.877  0.00  0.00    +0.000 A 
ATOM     28 CL   UNL     1      -5.574  11.195  17.562  0.00  0.00    +0.000 Cl
ATOM     29  C   UNL     1      -3.287  11.966  18.783  0.00  0.00    +0.000 A 
ATOM     30  C   UNL     1      -1.906  11.900  19.004  0.00  0.00    +0.000 A 
ATOM     31 CL   UNL     1      -1.205  13.015  20.122  0.00  0.00    +0.000 Cl
ENDBRANCH  23  24
ENDBRANCH  10  23
TORSDOF 3
ENDMDL
MODEL 6
REMARK VINA RESULT:      -8.7      1.137      1.224
REMARK  Name = 
REMARK  3 active torsions:
REMARK  status: ('A' for Active; 'I' for Inactive)
REMARK    1  A    between atoms: C_4  and  C_6
REMARK    2  A    between atoms: C_18  and  O_19
REMARK    3  A    between atoms: O_19  and  C_20
REMARK                            x       y       z     vdW  Elec       q    Type
REMARK                         _______ _______ _______ _____ _____    ______ ____
ROOT
ATOM      1  O   UNL     1       2.554   3.623  20.976  0.00  0.00    +0.000 OA
ATOM      2  C   UNL     1       2.603   4.812  20.666  0.00  0.00    +0.000 C 
ATOM      3  N   UNL     1       3.570   5.402  19.889  0.00  0.00    +0.000 N 
ATOM      4  C   UNL     1       4.679   4.763  19.358  0.00  0.00    +0.000 C 
ATOM      5  O   UNL     1       4.945   3.576  19.529  0.00  0.00    +0.000 OA
ATOM      6  N   UNL     1       1.590   5.610  21.133  0.00  0.00    +0.000 N 
ATOM      7  C   UNL     1       1.337   6.952  20.854  0.00  0.00    +0.000 A 
ATOM      8  C   UNL     1       0.209   7.567  21.377  0.00  0.00    +0.000 A 
ATOM      9  C   UNL     1      -0.087   8.876  20.990  0.00  0.00    +0.000 A 
ATOM     10  C   UNL     1       0.783   9.508  20.115  0.00  0.00    +0.000 A 
ATOM     11  N   UNL     1       1.922   8.915  19.708  0.00  0.00    +0.000 NA
ATOM     12  N   UNL     1       2.177   7.625  20.046  0.00  0.00    +0.000 NA
ATOM     13  H   UNL     1       3.471   6.399  19.737  0.00  0.00    +0.000 HD
ATOM     14  H   UNL     1       0.934   5.100  21.707  0.00  0.00    +0.000 HD
ENDROOT
BRANCH   4  15
ATOM     15  C   UNL     1       5.612   5.583  18.541  0.00  0.00    +0.000 A 
ATOM     16  C   UNL     1       6.914   5.877  18.949  0.00  0.00    +0.000 A 
ATOM     17  F   UNL     1       7.362   5.481  20.146  0.00  0.00    +0.000 F 
ATOM     18  C   UNL     1       7.797   6.581  18.126  0.00  0.00    +0.000 A 
ATOM     19  C   UNL     1       7.384   7.000  16.859  0.00  0.00    +0.000 A 
ATOM     20  C   UNL     1       6.085   6.727  16.439  0.00  0.00    +0.000 A 
ATOM     21  C   UNL     1       5.211   6.028  17.277  0.00  0.00    +0.000 A 
ATOM     22  F   UNL     1       3.966   5.819  16.828  0.00  0.00    +0.000 F 
ENDBRANCH   4  15
BRANCH  10  23
ATOM     23  O   UNL     1       0.440  10.748  19.596  0.00  0.00    +0.000 OA
BRANCH  23  24
ATOM     24  C   UNL     1      -0.741  10.812  18.873  0.00  0.00    +0.000 A 
ATOM     25  C   UNL     1      -0.928  10.068  17.696  0.00  0.00    +0.000 A 
ATOM     26  C   UNL     1      -2.096  10.197  16.946  0.00  0.00    +0.000 A 
ATOM     27  C   UNL     1      -3.120  11.017  17.406  0.00  0.00    +0.000 A 
ATOM     28 CL   UNL     1      -4.560  11.169  16.476  0.00  0.00    +0.000 Cl
ATOM     29  C   UNL     1      -2.986  11.708  18.609  0.00  0.00    +0.000 A 
ATOM     30  C   UNL     1      -1.795  11.608  19.340  0.00  0.00    +0.000 A 
ATOM     31 CL   UNL     1      -1.668  12.498  20.815  0.00  0.00    +0.000 Cl
ENDBRANCH  23  24
ENDBRANCH  10  23
TORSDOF 3
ENDMDL
MODEL 7
REMARK VINA RESULT:      -8.4      1.510      1.858
REMARK  Name = 
REMARK  3 active torsions:
REMARK  status: ('A' for Active; 'I' for Inactive)
REMARK    1  A    between atoms: C_4  and  C_6
REMARK    2  A    between atoms: C_18  and  O_19
REMARK    3  A    between atoms: O_19  and  C_20
REMARK                            x       y       z     vdW  Elec       q    Type
REMARK                         _______ _______ _______ _____ _____    ______ ____
ROOT
ATOM      1  O   UNL     1       2.463   3.781  21.510  0.00  0.00    +0.000 OA
ATOM      2  C   UNL     1       2.589   4.786  20.814  0.00  0.00    +0.000 C 
ATOM      3  N   UNL     1       3.398   4.904  19.710  0.00  0.00    +0.000 N 
ATOM      4  C   UNL     1       4.242   3.921  19.220  0.00  0.00    +0.000 C 
ATOM      5  O   UNL     1       4.383   2.811  19.725  0.00  0.00    +0.000 OA
ATOM      6  N   UNL     1       1.843   5.879  21.173  0.00  0.00    +0.000 N 
ATOM      7  C   UNL     1       1.708   7.099  20.513  0.00  0.00    +0.000 A 
ATOM      8  C   UNL     1       0.840   8.062  21.009  0.00  0.00    +0.000 A 
ATOM      9  C   UNL     1       0.633   9.228  20.268  0.00  0.00    +0.000 A 
ATOM     10  C   UNL     1       1.329   9.376  19.079  0.00  0.00    +0.000 A 
ATOM     11  N   UNL     1       2.239   8.466  18.681  0.00  0.00    +0.000 NA
ATOM     12  N   UNL     1       2.398   7.312  19.377  0.00  0.00    +0.000 NA
ATOM     13  H   UNL     1       3.397   5.809  19.252  0.00  0.00    +0.000 HD
ATOM     14  H   UNL     1       1.291   5.710  22.002  0.00  0.00    +0.000 HD
ENDROOT
BRANCH   4  15
ATOM     15  C   UNL     1       5.038   4.249  18.008  0.00  0.00    +0.000 A 
ATOM     16  C   UNL     1       6.334   4.764  18.072  0.00  0.00    +0.000 A 
ATOM     17  F   UNL     1       6.897   5.053  19.251  0.00  0.00    +0.000 F 
ATOM     18  C   UNL     1       7.091   4.987  16.918  0.00  0.00    +0.000 A 
ATOM     19  C   UNL     1       6.555   4.684  15.665  0.00  0.00    +0.000 A 
ATOM     20  C   UNL     1       5.259   4.181  15.579  0.00  0.00    +0.000 A 
ATOM     21  C   UNL     1       4.512   3.971  16.741  0.00  0.00    +0.000 A 
ATOM     22  F   UNL     1       3.262   3.509  16.593  0.00  0.00    +0.000 F 
ENDBRANCH   4  15
BRANCH  10  23
ATOM     23  O   UNL     1       1.034  10.449  18.250  0.00  0.00    +0.000 OA
BRANCH  23  24
ATOM     24  C   UNL     1       0.323  11.495  18.820  0.00  0.00    +0.000 A 
ATOM     25  C   UNL     1      -1.016  11.347  19.219  0.00  0.00    +0.000 A 
ATOM     26  C   UNL     1      -1.734  12.429  19.727  0.00  0.00    +0.000 A 
ATOM     27  C   UNL     1      -1.097  13.650  19.911  0.00  0.00    +0.000 A 
ATOM     28 CL   UNL     1      -1.989  14.979  20.540  0.00  0.00    +0.000 Cl
ATOM     29  C   UNL     1       0.252  13.800  19.591  0.00  0.00    +0.000 A 
ATOM     30  C   UNL     1       0.960  12.723  19.042  0.00  0.00    +0.000 A 
ATOM     31 CL   UNL     1       2.624  12.961  18.643  0.00  0.00    +0.000 Cl
ENDBRANCH  23  24
ENDBRANCH  10  23
TORSDOF 3
ENDMDL
MODEL 8
REMARK VINA RESULT:      -8.3      1.466      2.369
REMARK  Name = 
REMARK  3 active torsions:
REMARK  status: ('A' for Active; 'I' for Inactive)
REMARK    1  A    between atoms: C_4  and  C_6
REMARK    2  A    between atoms: C_18  and  O_19
REMARK    3  A    between atoms: O_19  and  C_20
REMARK                            x       y       z     vdW  Elec       q    Type
REMARK                         _______ _______ _______ _____ _____    ______ ____
ROOT
ATOM      1  O   UNL     1       2.605   3.763  21.453  0.00  0.00    +0.000 OA
ATOM      2  C   UNL     1       2.697   4.767  20.750  0.00  0.00    +0.000 C 
ATOM      3  N   UNL     1       3.469   4.891  19.621  0.00  0.00    +0.000 N 
ATOM      4  C   UNL     1       4.309   3.916  19.107  0.00  0.00    +0.000 C 
ATOM      5  O   UNL     1       4.479   2.810  19.612  0.00  0.00    +0.000 OA
ATOM      6  N   UNL     1       1.949   5.853  21.130  0.00  0.00    +0.000 N 
ATOM      7  C   UNL     1       1.779   7.068  20.470  0.00  0.00    +0.000 A 
ATOM      8  C   UNL     1       0.915   8.023  20.990  0.00  0.00    +0.000 A 
ATOM      9  C   UNL     1       0.670   9.183  20.253  0.00  0.00    +0.000 A 
ATOM     10  C   UNL     1       1.327   9.335  19.041  0.00  0.00    +0.000 A 
ATOM     11  N   UNL     1       2.235   8.435  18.618  0.00  0.00    +0.000 NA
ATOM     12  N   UNL     1       2.429   7.286  19.312  0.00  0.00    +0.000 NA
ATOM     13  H   UNL     1       3.443   5.794  19.161  0.00  0.00    +0.000 HD
ATOM     14  H   UNL     1       1.426   5.680  21.976  0.00  0.00    +0.000 HD
ENDROOT
BRANCH   4  15
ATOM     15  C   UNL     1       5.062   4.249  17.870  0.00  0.00    +0.000 A 
ATOM     16  C   UNL     1       4.547   4.032  16.591  0.00  0.00    +0.000 A 
ATOM     17  F   UNL     1       3.358   3.441  16.423  0.00  0.00    +0.000 F 
ATOM     18  C   UNL     1       5.242   4.429  15.444  0.00  0.00    +0.000 A 
ATOM     19  C   UNL     1       6.478   5.068  15.566  0.00  0.00    +0.000 A 
ATOM     20  C   UNL     1       7.014   5.283  16.834  0.00  0.00    +0.000 A 
ATOM     21  C   UNL     1       6.311   4.872  17.970  0.00  0.00    +0.000 A 
ATOM     22  F   UNL     1       6.890   5.083  19.160  0.00  0.00    +0.000 F 
ENDBRANCH   4  15
BRANCH  10  23
ATOM     23  O   UNL     1       0.993  10.402  18.219  0.00  0.00    +0.000 OA
BRANCH  23  24
ATOM     24  C   UNL     1       0.268  11.430  18.802  0.00  0.00    +0.000 A 
ATOM     25  C   UNL     1      -1.080  11.271  19.165  0.00  0.00    +0.000 A 
ATOM     26  C   UNL     1      -1.811  12.337  19.687  0.00  0.00    +0.000 A 
ATOM     27  C   UNL     1      -1.179  13.553  19.921  0.00  0.00    +0.000 A 
ATOM     28 CL   UNL     1      -2.087  14.863  20.568  0.00  0.00    +0.000 Cl
ATOM     29  C   UNL     1       0.177  13.712  19.637  0.00  0.00    +0.000 A 
ATOM     30  C   UNL     1       0.899  12.652  19.075  0.00  0.00    +0.000 A 
ATOM     31 CL   UNL     1       2.571  12.902  18.722  0.00  0.00    +0.000 Cl
ENDBRANCH  23  24
ENDBRANCH  10  23
TORSDOF 3
ENDMDL
MODEL 9
REMARK VINA RESULT:      -8.0      1.461      2.118
REMARK  Name = 
REMARK  3 active torsions:
REMARK  status: ('A' for Active; 'I' for Inactive)
REMARK    1  A    between atoms: C_4  and  C_6
REMARK    2  A    between atoms: C_18  and  O_19
REMARK    3  A    between atoms: O_19  and  C_20
REMARK                            x       y       z     vdW  Elec       q    Type
REMARK                         _______ _______ _______ _____ _____    ______ ____
ROOT
ATOM      1  O   UNL     1       2.373   4.176  21.404  0.00  0.00    +0.000 OA
ATOM      2  C   UNL     1       2.395   5.205  20.733  0.00  0.00    +0.000 C 
ATOM      3  N   UNL     1       3.046   5.370  19.534  0.00  0.00    +0.000 N 
ATOM      4  C   UNL     1       3.823   4.414  18.901  0.00  0.00    +0.000 C 
ATOM      5  O   UNL     1       4.040   3.289  19.344  0.00  0.00    +0.000 OA
ATOM      6  N   UNL     1       1.697   6.277  21.227  0.00  0.00    +0.000 N 
ATOM      7  C   UNL     1       1.464   7.516  20.634  0.00  0.00    +0.000 A 
ATOM      8  C   UNL     1       0.664   8.451  21.276  0.00  0.00    +0.000 A 
ATOM      9  C   UNL     1       0.349   9.639  20.611  0.00  0.00    +0.000 A 
ATOM     10  C   UNL     1       0.876   9.834  19.344  0.00  0.00    +0.000 A 
ATOM     11  N   UNL     1       1.731   8.949  18.795  0.00  0.00    +0.000 NA
ATOM     12  N   UNL     1       1.991   7.775  19.423  0.00  0.00    +0.000 NA
ATOM     13  H   UNL     1       2.976   6.289  19.113  0.00  0.00    +0.000 HD
ATOM     14  H   UNL     1       1.264   6.073  22.118  0.00  0.00    +0.000 HD
ENDROOT
BRANCH   4  15
ATOM     15  C   UNL     1       4.445   4.792  17.604  0.00  0.00    +0.000 A 
ATOM     16  C   UNL     1       4.735   3.860  16.606  0.00  0.00    +0.000 A 
ATOM     17  F   UNL     1       4.524   2.554  16.807  0.00  0.00    +0.000 F 
ATOM     18  C   UNL     1       5.244   4.252  15.364  0.00  0.00    +0.000 A 
ATOM     19  C   UNL     1       5.464   5.605  15.098  0.00  0.00    +0.000 A 
ATOM     20  C   UNL     1       5.192   6.549  16.086  0.00  0.00    +0.000 A 
ATOM     21  C   UNL     1       4.691   6.140  17.325  0.00  0.00    +0.000 A 
ATOM     22  F   UNL     1       4.474   7.092  18.243  0.00  0.00    +0.000 F 
ENDBRANCH   4  15
BRANCH  10  23
ATOM     23  O   UNL     1       0.463  10.930  18.600  0.00  0.00    +0.000 OA
BRANCH  23  24
ATOM     24  C   UNL     1      -0.799  11.430  18.883  0.00  0.00    +0.000 A 
ATOM     25  C   UNL     1      -0.998  12.434  19.845  0.00  0.00    +0.000 A 
ATOM     26  C   UNL     1      -2.281  12.876  20.164  0.00  0.00    +0.000 A 
ATOM     27  C   UNL     1      -3.374  12.370  19.469  0.00  0.00    +0.000 A 
ATOM     28 CL   UNL     1      -4.954  12.921  19.866  0.00  0.00    +0.000 Cl
ATOM     29  C   UNL     1      -3.193  11.426  18.459  0.00  0.00    +0.000 A 
ATOM     30  C   UNL     1      -1.907  10.954  18.169  0.00  0.00    +0.000 A 
ATOM     31 CL   UNL     1      -1.735   9.771  16.922  0.00  0.00    +0.000 Cl
ENDBRANCH  23  24
ENDBRANCH  10  23
TORSDOF 3
ENDMDL
