MODEL 1
REMARK VINA RESULT:      -6.9      0.000      0.000
REMARK  Name = 
REMARK  3 active torsions:
REMARK  status: ('A' for Active; 'I' for Inactive)
REMARK    1  A    between atoms: C_1  and  C_2
REMARK    2  A    between atoms: C_6  and  N_7
REMARK    3  A    between atoms: C_8  and  C_10
REMARK                            x       y       z     vdW  Elec       q    Type
REMARK                         _______ _______ _______ _____ _____    ______ ____
ROOT
ATOM      1  N   UNL     1       4.279   4.316  17.014  0.00  0.00    +0.000 N 
ATOM      2  C   UNL     1       4.513   4.032  18.345  0.00  0.00    +0.000 C 
ATOM      3  O   UNL     1       5.610   3.904  18.882  0.00  0.00    +0.000 OA
ATOM      4  H   UNL     1       3.324   4.376  16.692  0.00  0.00    +0.000 HD
ENDROOT
BRANCH   1  10
ATOM      5  C   UNL     1       5.929   3.395  12.611  0.00  0.00    +0.000 C 
ATOM      6  C   UNL     1       6.146   4.074  13.927  0.00  0.00    +0.000 A 
ATOM      7  C   UNL     1       7.281   4.828  14.184  0.00  0.00    +0.000 A 
ATOM      8  C   UNL     1       7.404   5.427  15.433  0.00  0.00    +0.000 A 
ATOM      9  C   UNL     1       6.396   5.256  16.382  0.00  0.00    +0.000 A 
ATOM     10  C   UNL     1       5.288   4.486  16.052  0.00  0.00    +0.000 A 
ATOM     11  N   UNL     1       5.168   3.906  14.845  0.00  0.00    +0.000 NA
ENDBRANCH   1  10
BRANCH   2  12
ATOM     12  C   UNL     1       3.324   3.911  19.239  0.00  0.00    +0.000 A 
ATOM     13  C   UNL     1       3.030   2.599  19.668  0.00  0.00    +0.000 A 
ATOM     14  C   UNL     1       1.909   2.323  20.448  0.00  0.00    +0.000 A 
ATOM     15  C   UNL     1       1.059   3.356  20.820  0.00  0.00    +0.000 A 
ATOM     16  C   UNL     1       1.336   4.663  20.412  0.00  0.00    +0.000 A 
ATOM     17  C   UNL     1       2.461   4.947  19.621  0.00  0.00    +0.000 A 
ATOM     18 BR   UNL     1       2.662   6.758  19.082  0.00  0.00    +0.000 Br
ENDBRANCH   2  12
TORSDOF 2
ENDMDL
MODEL 2
REMARK VINA RESULT:      -6.8      2.752      6.232
REMARK  Name = 
REMARK  3 active torsions:
REMARK  status: ('A' for Active; 'I' for Inactive)
REMARK    1  A    between atoms: C_1  and  C_2
REMARK    2  A    between atoms: C_6  and  N_7
REMARK    3  A    between atoms: C_8  and  C_10
REMARK                            x       y       z     vdW  Elec       q    Type
REMARK                         _______ _______ _______ _____ _____    ______ ____
ROOT
ATOM      1  N   UNL     1       3.954   5.099  18.817  0.00  0.00    +0.000 N 
ATOM      2  C   UNL     1       5.270   4.688  18.761  0.00  0.00    +0.000 C 
ATOM      3  O   UNL     1       5.684   3.542  18.911  0.00  0.00    +0.000 OA
ATOM      4  H   UNL     1       3.747   6.080  18.695  0.00  0.00    +0.000 HD
ENDROOT
BRANCH   1  10
ATOM      5  C   UNL     1       1.459   2.508  21.982  0.00  0.00    +0.000 C 
ATOM      6  C   UNL     1       1.615   2.968  20.566  0.00  0.00    +0.000 A 
ATOM      7  C   UNL     1       0.739   2.572  19.567  0.00  0.00    +0.000 A 
ATOM      8  C   UNL     1       0.955   3.046  18.277  0.00  0.00    +0.000 A 
ATOM      9  C   UNL     1       2.034   3.894  18.026  0.00  0.00    +0.000 A 
ATOM     10  C   UNL     1       2.869   4.247  19.079  0.00  0.00    +0.000 A 
ATOM     11  N   UNL     1       2.661   3.789  20.326  0.00  0.00    +0.000 NA
ENDBRANCH   1  10
BRANCH   2  12
ATOM     12  C   UNL     1       6.299   5.722  18.443  0.00  0.00    +0.000 A 
ATOM     13  C   UNL     1       7.355   5.821  19.374  0.00  0.00    +0.000 A 
ATOM     14  C   UNL     1       8.349   6.789  19.245  0.00  0.00    +0.000 A 
ATOM     15  C   UNL     1       8.310   7.677  18.178  0.00  0.00    +0.000 A 
ATOM     16  C   UNL     1       7.278   7.591  17.241  0.00  0.00    +0.000 A 
ATOM     17  C   UNL     1       6.269   6.622  17.368  0.00  0.00    +0.000 A 
ATOM     18 BR   UNL     1       4.891   6.679  16.061  0.00  0.00    +0.000 Br
ENDBRANCH   2  12
TORSDOF 2
ENDMDL
MODEL 3
REMARK VINA RESULT:      -6.6      1.038      1.038
REMARK  Name = 
REMARK  3 active torsions:
REMARK  status: ('A' for Active; 'I' for Inactive)
REMARK    1  A    between atoms: C_1  and  C_2
REMARK    2  A    between atoms: C_6  and  N_7
REMARK    3  A    between atoms: C_8  and  C_10
REMARK                            x       y       z     vdW  Elec       q    Type
REMARK                         _______ _______ _______ _____ _____    ______ ____
ROOT
ATOM      1  N   UNL     1       4.507   3.816  16.976  0.00  0.00    +0.000 N 
ATOM      2  C   UNL     1       3.671   4.738  17.574  0.00  0.00    +0.000 C 
ATOM      3  O   UNL     1       3.583   5.931  17.297  0.00  0.00    +0.000 OA
ATOM      4  H   UNL     1       4.496   2.864  17.311  0.00  0.00    +0.000 HD
ENDROOT
BRANCH   1  10
ATOM      5  C   UNL     1       5.751   3.438  12.365  0.00  0.00    +0.000 C 
ATOM      6  C   UNL     1       6.078   3.973  13.723  0.00  0.00    +0.000 A 
ATOM      7  C   UNL     1       7.218   4.726  13.959  0.00  0.00    +0.000 A 
ATOM      8  C   UNL     1       7.448   5.186  15.252  0.00  0.00    +0.000 A 
ATOM      9  C   UNL     1       6.537   4.881  16.264  0.00  0.00    +0.000 A 
ATOM     10  C   UNL     1       5.417   4.121  15.951  0.00  0.00    +0.000 A 
ATOM     11  N   UNL     1       5.195   3.675  14.702  0.00  0.00    +0.000 NA
ENDBRANCH   1  10
BRANCH   2  12
ATOM     12  C   UNL     1       2.743   4.238  18.631  0.00  0.00    +0.000 A 
ATOM     13  C   UNL     1       2.448   2.860  18.564  0.00  0.00    +0.000 A 
ATOM     14  C   UNL     1       1.542   2.266  19.441  0.00  0.00    +0.000 A 
ATOM     15  C   UNL     1       0.914   3.040  20.408  0.00  0.00    +0.000 A 
ATOM     16  C   UNL     1       1.197   4.405  20.496  0.00  0.00    +0.000 A 
ATOM     17  C   UNL     1       2.105   5.011  19.611  0.00  0.00    +0.000 A 
ATOM     18 BR   UNL     1       2.328   6.888  19.805  0.00  0.00    +0.000 Br
ENDBRANCH   2  12
TORSDOF 2
ENDMDL
MODEL 4
REMARK VINA RESULT:      -6.6      1.906      6.475
REMARK  Name = 
REMARK  3 active torsions:
REMARK  status: ('A' for Active; 'I' for Inactive)
REMARK    1  A    between atoms: C_1  and  C_2
REMARK    2  A    between atoms: C_6  and  N_7
REMARK    3  A    between atoms: C_8  and  C_10
REMARK                            x       y       z     vdW  Elec       q    Type
REMARK                         _______ _______ _______ _____ _____    ______ ____
ROOT
ATOM      1  N   UNL     1       3.919   3.465  17.419  0.00  0.00    +0.000 N 
ATOM      2  C   UNL     1       4.262   4.718  16.952  0.00  0.00    +0.000 C 
ATOM      3  O   UNL     1       3.753   5.785  17.285  0.00  0.00    +0.000 OA
ATOM      4  H   UNL     1       4.404   2.661  17.048  0.00  0.00    +0.000 HD
ENDROOT
BRANCH   1  10
ATOM      5  C   UNL     1       2.409   3.627  21.963  0.00  0.00    +0.000 C 
ATOM      6  C   UNL     1       2.107   3.270  20.542  0.00  0.00    +0.000 A 
ATOM      7  C   UNL     1       0.889   2.723  20.166  0.00  0.00    +0.000 A 
ATOM      8  C   UNL     1       0.689   2.420  18.824  0.00  0.00    +0.000 A 
ATOM      9  C   UNL     1       1.706   2.670  17.902  0.00  0.00    +0.000 A 
ATOM     10  C   UNL     1       2.900   3.219  18.353  0.00  0.00    +0.000 A 
ATOM     11  N   UNL     1       3.094   3.511  19.651  0.00  0.00    +0.000 NA
ENDBRANCH   1  10
BRANCH   2  12
ATOM     12  C   UNL     1       5.392   4.803  15.980  0.00  0.00    +0.000 A 
ATOM     13  C   UNL     1       5.132   4.242  14.712  0.00  0.00    +0.000 A 
ATOM     14  C   UNL     1       6.116   4.184  13.727  0.00  0.00    +0.000 A 
ATOM     15  C   UNL     1       7.382   4.692  13.989  0.00  0.00    +0.000 A 
ATOM     16  C   UNL     1       7.657   5.258  15.236  0.00  0.00    +0.000 A 
ATOM     17  C   UNL     1       6.671   5.314  16.235  0.00  0.00    +0.000 A 
ATOM     18 BR   UNL     1       7.219   6.043  17.903  0.00  0.00    +0.000 Br
ENDBRANCH   2  12
TORSDOF 2
ENDMDL
MODEL 5
REMARK VINA RESULT:      -6.5      1.724      6.428
REMARK  Name = 
REMARK  3 active torsions:
REMARK  status: ('A' for Active; 'I' for Inactive)
REMARK    1  A    between atoms: C_1  and  C_2
REMARK    2  A    between atoms: C_6  and  N_7
REMARK    3  A    between atoms: C_8  and  C_10
REMARK                            x       y       z     vdW  Elec       q    Type
REMARK                         _______ _______ _______ _____ _____    ______ ____
ROOT
ATOM      1  N   UNL     1       3.503   4.361  17.054  0.00  0.00    +0.000 N 
ATOM      2  C   UNL     1       4.874   4.267  17.179  0.00  0.00    +0.000 C 
ATOM      3  O   UNL     1       5.495   3.959  18.192  0.00  0.00    +0.000 OA
ATOM      4  H   UNL     1       3.115   4.644  16.165  0.00  0.00    +0.000 HD
ENDROOT
BRANCH   1  10
ATOM      5  C   UNL     1       1.390   5.936  21.055  0.00  0.00    +0.000 C 
ATOM      6  C   UNL     1       1.534   4.837  20.049  0.00  0.00    +0.000 A 
ATOM      7  C   UNL     1       0.815   3.656  20.146  0.00  0.00    +0.000 A 
ATOM      8  C   UNL     1       1.009   2.685  19.169  0.00  0.00    +0.000 A 
ATOM      9  C   UNL     1       1.910   2.923  18.130  0.00  0.00    +0.000 A 
ATOM     10  C   UNL     1       2.595   4.131  18.100  0.00  0.00    +0.000 A 
ATOM     11  N   UNL     1       2.409   5.069  19.046  0.00  0.00    +0.000 NA
ENDBRANCH   1  10
BRANCH   2  12
ATOM     12  C   UNL     1       5.693   4.517  15.955  0.00  0.00    +0.000 A 
ATOM     13  C   UNL     1       5.393   3.684  14.856  0.00  0.00    +0.000 A 
ATOM     14  C   UNL     1       6.124   3.754  13.671  0.00  0.00    +0.000 A 
ATOM     15  C   UNL     1       7.168   4.663  13.560  0.00  0.00    +0.000 A 
ATOM     16  C   UNL     1       7.476   5.501  14.634  0.00  0.00    +0.000 A 
ATOM     17  C   UNL     1       6.748   5.431  15.833  0.00  0.00    +0.000 A 
ATOM     18 BR   UNL     1       7.334   6.580  17.229  0.00  0.00    +0.000 Br
ENDBRANCH   2  12
TORSDOF 2
ENDMDL
MODEL 6
REMARK VINA RESULT:      -6.5      2.020      2.973
REMARK  Name = 
REMARK  3 active torsions:
REMARK  status: ('A' for Active; 'I' for Inactive)
REMARK    1  A    between atoms: C_1  and  C_2
REMARK    2  A    between atoms: C_6  and  N_7
REMARK    3  A    between atoms: C_8  and  C_10
REMARK                            x       y       z     vdW  Elec       q    Type
REMARK                         _______ _______ _______ _____ _____    ______ ____
ROOT
ATOM      1  N   UNL     1       5.376   4.191  15.580  0.00  0.00    +0.000 N 
ATOM      2  C   UNL     1       4.903   5.298  16.255  0.00  0.00    +0.000 C 
ATOM      3  O   UNL     1       4.952   6.463  15.871  0.00  0.00    +0.000 OA
ATOM      4  H   UNL     1       5.292   3.284  16.016  0.00  0.00    +0.000 HD
ENDROOT
BRANCH   1  10
ATOM      5  C   UNL     1       8.864   6.003  12.840  0.00  0.00    +0.000 C 
ATOM      6  C   UNL     1       7.689   5.083  12.947  0.00  0.00    +0.000 A 
ATOM      7  C   UNL     1       7.253   4.323  11.873  0.00  0.00    +0.000 A 
ATOM      8  C   UNL     1       6.152   3.493  12.057  0.00  0.00    +0.000 A 
ATOM      9  C   UNL     1       5.523   3.448  13.301  0.00  0.00    +0.000 A 
ATOM     10  C   UNL     1       6.017   4.239  14.331  0.00  0.00    +0.000 A 
ATOM     11  N   UNL     1       7.081   5.043  14.153  0.00  0.00    +0.000 NA
ENDBRANCH   1  10
BRANCH   2  12
ATOM     12  C   UNL     1       4.221   5.064  17.562  0.00  0.00    +0.000 A 
ATOM     13  C   UNL     1       2.831   4.834  17.477  0.00  0.00    +0.000 A 
ATOM     14  C   UNL     1       2.050   4.670  18.621  0.00  0.00    +0.000 A 
ATOM     15  C   UNL     1       2.645   4.730  19.874  0.00  0.00    +0.000 A 
ATOM     16  C   UNL     1       4.021   4.950  19.979  0.00  0.00    +0.000 A 
ATOM     17  C   UNL     1       4.812   5.121  18.831  0.00  0.00    +0.000 A 
ATOM     18 BR   UNL     1       6.651   5.489  19.138  0.00  0.00    +0.000 Br
ENDBRANCH   2  12
TORSDOF 2
ENDMDL
MODEL 7
REMARK VINA RESULT:      -6.5      1.612      1.986
REMARK  Name = 
REMARK  3 active torsions:
REMARK  status: ('A' for Active; 'I' for Inactive)
REMARK    1  A    between atoms: C_1  and  C_2
REMARK    2  A    between atoms: C_6  and  N_7
REMARK    3  A    between atoms: C_8  and  C_10
REMARK                            x       y       z     vdW  Elec       q    Type
REMARK                         _______ _______ _______ _____ _____    ______ ____
ROOT
ATOM      1  N   UNL     1       4.674   3.880  17.242  0.00  0.00    +0.000 N 
ATOM      2  C   UNL     1       3.729   4.747  17.751  0.00  0.00    +0.000 C 
ATOM      3  O   UNL     1       3.496   5.887  17.357  0.00  0.00    +0.000 OA
ATOM      4  H   UNL     1       4.780   2.972  17.670  0.00  0.00    +0.000 HD
ENDROOT
BRANCH   1  10
ATOM      5  C   UNL     1       5.736   3.525  12.583  0.00  0.00    +0.000 C 
ATOM      6  C   UNL     1       6.117   4.053  13.930  0.00  0.00    +0.000 A 
ATOM      7  C   UNL     1       7.266   4.803  14.125  0.00  0.00    +0.000 A 
ATOM      8  C   UNL     1       7.547   5.256  15.410  0.00  0.00    +0.000 A 
ATOM      9  C   UNL     1       6.676   4.947  16.456  0.00  0.00    +0.000 A 
ATOM     10  C   UNL     1       5.544   4.189  16.183  0.00  0.00    +0.000 A 
ATOM     11  N   UNL     1       5.273   3.750  14.941  0.00  0.00    +0.000 NA
ENDBRANCH   1  10
BRANCH   2  12
ATOM     12  C   UNL     1       2.866   4.246  18.861  0.00  0.00    +0.000 A 
ATOM     13  C   UNL     1       2.241   5.249  19.631  0.00  0.00    +0.000 A 
ATOM     14  C   UNL     1       1.463   4.933  20.744  0.00  0.00    +0.000 A 
ATOM     15  C   UNL     1       1.291   3.604  21.107  0.00  0.00    +0.000 A 
ATOM     16  C   UNL     1       1.895   2.595  20.353  0.00  0.00    +0.000 A 
ATOM     17  C   UNL     1       2.685   2.907  19.234  0.00  0.00    +0.000 A 
ATOM     18 BR   UNL     1       3.503   1.433  18.357  0.00  0.00    +0.000 Br
ENDBRANCH   2  12
TORSDOF 2
ENDMDL
MODEL 8
REMARK VINA RESULT:      -6.4      4.716      7.034
REMARK  Name = 
REMARK  3 active torsions:
REMARK  status: ('A' for Active; 'I' for Inactive)
REMARK    1  A    between atoms: C_1  and  C_2
REMARK    2  A    between atoms: C_6  and  N_7
REMARK    3  A    between atoms: C_8  and  C_10
REMARK                            x       y       z     vdW  Elec       q    Type
REMARK                         _______ _______ _______ _____ _____    ______ ____
ROOT
ATOM      1  N   UNL     1       2.175   8.493  17.575  0.00  0.00    +0.000 N 
ATOM      2  C   UNL     1       2.636   7.501  18.416  0.00  0.00    +0.000 C 
ATOM      3  O   UNL     1       2.368   7.370  19.607  0.00  0.00    +0.000 OA
ATOM      4  H   UNL     1       2.488   8.500  16.615  0.00  0.00    +0.000 HD
ENDROOT
BRANCH   1  10
ATOM      5  C   UNL     1      -2.284  10.168  18.089  0.00  0.00    +0.000 C 
ATOM      6  C   UNL     1      -0.816  10.410  18.248  0.00  0.00    +0.000 A 
ATOM      7  C   UNL     1      -0.321  11.601  18.758  0.00  0.00    +0.000 A 
ATOM      8  C   UNL     1       1.058  11.744  18.873  0.00  0.00    +0.000 A 
ATOM      9  C   UNL     1       1.895  10.701  18.477  0.00  0.00    +0.000 A 
ATOM     10  C   UNL     1       1.325   9.538  17.975  0.00  0.00    +0.000 A 
ATOM     11  N   UNL     1      -0.008   9.399  17.862  0.00  0.00    +0.000 NA
ENDBRANCH   1  10
BRANCH   2  12
ATOM     12  C   UNL     1       3.512   6.448  17.820  0.00  0.00    +0.000 A 
ATOM     13  C   UNL     1       4.722   6.920  17.270  0.00  0.00    +0.000 A 
ATOM     14  C   UNL     1       5.606   6.063  16.616  0.00  0.00    +0.000 A 
ATOM     15  C   UNL     1       5.298   4.714  16.502  0.00  0.00    +0.000 A 
ATOM     16  C   UNL     1       4.108   4.226  17.046  0.00  0.00    +0.000 A 
ATOM     17  C   UNL     1       3.210   5.085  17.701  0.00  0.00    +0.000 A 
ATOM     18 BR   UNL     1       1.600   4.289  18.320  0.00  0.00    +0.000 Br
ENDBRANCH   2  12
TORSDOF 2
ENDMDL
MODEL 9
REMARK VINA RESULT:      -6.4      4.837      6.738
REMARK  Name = 
REMARK  3 active torsions:
REMARK  status: ('A' for Active; 'I' for Inactive)
REMARK    1  A    between atoms: C_1  and  C_2
REMARK    2  A    between atoms: C_6  and  N_7
REMARK    3  A    between atoms: C_8  and  C_10
REMARK                            x       y       z     vdW  Elec       q    Type
REMARK                         _______ _______ _______ _____ _____    ______ ____
ROOT
ATOM      1  N   UNL     1       1.952   8.330  17.725  0.00  0.00    +0.000 N 
ATOM      2  C   UNL     1       2.379   7.348  18.596  0.00  0.00    +0.000 C 
ATOM      3  O   UNL     1       2.416   7.425  19.821  0.00  0.00    +0.000 OA
ATOM      4  H   UNL     1       1.991   8.147  16.733  0.00  0.00    +0.000 HD
ENDROOT
BRANCH   1  10
ATOM      5  C   UNL     1       2.848  13.009  18.231  0.00  0.00    +0.000 C 
ATOM      6  C   UNL     1       1.877  11.882  18.395  0.00  0.00    +0.000 A 
ATOM      7  C   UNL     1       0.607  12.079  18.914  0.00  0.00    +0.000 A 
ATOM      8  C   UNL     1      -0.234  10.978  19.033  0.00  0.00    +0.000 A 
ATOM      9  C   UNL     1       0.217   9.720  18.633  0.00  0.00    +0.000 A 
ATOM     10  C   UNL     1       1.504   9.600  18.122  0.00  0.00    +0.000 A 
ATOM     11  N   UNL     1       2.318  10.665  18.008  0.00  0.00    +0.000 NA
ENDBRANCH   1  10
BRANCH   2  12
ATOM     12  C   UNL     1       2.797   6.042  18.006  0.00  0.00    +0.000 A 
ATOM     13  C   UNL     1       1.836   5.012  18.094  0.00  0.00    +0.000 A 
ATOM     14  C   UNL     1       2.112   3.720  17.650  0.00  0.00    +0.000 A 
ATOM     15  C   UNL     1       3.356   3.432  17.103  0.00  0.00    +0.000 A 
ATOM     16  C   UNL     1       4.318   4.439  17.000  0.00  0.00    +0.000 A 
ATOM     17  C   UNL     1       4.048   5.742  17.451  0.00  0.00    +0.000 A 
ATOM     18 BR   UNL     1       5.482   6.982  17.315  0.00  0.00    +0.000 Br
ENDBRANCH   2  12
TORSDOF 2
ENDMDL
