MODEL 1
REMARK VINA RESULT:      -9.6      0.000      0.000
REMARK  Name = 
REMARK  9 active torsions:
REMARK  status: ('A' for Active; 'I' for Inactive)
REMARK    1  A    between atoms: C_1  and  C_2
REMARK    2  A    between atoms: C_2  and  N_3
REMARK    3  A    between atoms: C_2  and  C_32
REMARK    4  A    between atoms: C_6  and  C_7
REMARK    5  A    between atoms: C_11  and  C_12
REMARK    6  A    between atoms: C_15  and  O_16
REMARK    7  A    between atoms: O_16  and  C_17
REMARK    8  A    between atoms: C_20  and  C_21
REMARK    9  A    between atoms: C_23  and  C_24
REMARK                            x       y       z     vdW  Elec       q    Type
REMARK                         _______ _______ _______ _____ _____    ______ ____
ROOT
ATOM      1  N   UNL     1       5.648   4.429  18.930  0.00  0.00    +0.000 N 
ATOM      2  C   UNL     1       4.376   4.787  19.353  0.00  0.00    +0.000 A 
ATOM      3  C   UNL     1       3.626   3.828  19.993  0.00  0.00    +0.000 A 
ATOM      4  C   UNL     1       2.369   4.201  20.408  0.00  0.00    +0.000 A 
ATOM      5  N   UNL     1       1.843   5.432  20.227  0.00  0.00    +0.000 NA
ATOM      6  C   UNL     1       2.639   6.301  19.584  0.00  0.00    +0.000 A 
ATOM      7  N   UNL     1       3.893   6.021  19.146  0.00  0.00    +0.000 NA
ATOM      8  H   UNL     1       6.202   4.051  19.695  0.00  0.00    +0.000 HD
ENDROOT
BRANCH   6   9
ATOM      9  C   UNL     1       2.152   7.683  19.403  0.00  0.00    +0.000 A 
ATOM     10  C   UNL     1       2.328   8.390  18.196  0.00  0.00    +0.000 A 
ATOM     11  C   UNL     1       1.789   9.671  18.014  0.00  0.00    +0.000 A 
ATOM     12  C   UNL     1       1.062  10.278  19.033  0.00  0.00    +0.000 A 
ATOM     13  C   UNL     1       0.954   9.641  20.267  0.00  0.00    +0.000 A 
ATOM     14  C   UNL     1       1.466   8.351  20.437  0.00  0.00    +0.000 A 
BRANCH  12  15
ATOM     15  O   UNL     1       0.534  11.516  18.747  0.00  0.00    +0.000 OA
BRANCH  15  16
ATOM     16  C   UNL     1      -0.812  11.748  18.921  0.00  0.00    +0.000 A 
ATOM     17  C   UNL     1      -1.154  12.615  19.956  0.00  0.00    +0.000 A 
ATOM     18  C   UNL     1      -2.497  12.890  20.221  0.00  0.00    +0.000 A 
ATOM     19  C   UNL     1      -3.519  12.294  19.461  0.00  0.00    +0.000 A 
ATOM     20  C   UNL     1      -3.184  11.442  18.395  0.00  0.00    +0.000 A 
ATOM     21  C   UNL     1      -1.820  11.214  18.114  0.00  0.00    +0.000 A 
BRANCH  20  22
ATOM     22  C   UNL     1      -4.196  10.713  17.544  0.00  0.00    +0.000 C 
ATOM     23  F   UNL     1      -5.165  10.054  18.224  0.00  0.00    +0.000 F 
ATOM     24  F   UNL     1      -4.845  11.556  16.692  0.00  0.00    +0.000 F 
ATOM     25  F   UNL     1      -3.599   9.779  16.750  0.00  0.00    +0.000 F 
ENDBRANCH  20  22
BRANCH  19  26
ATOM     26  C   UNL     1      -4.877  12.599  19.817  0.00  0.00    +0.000 C 
ATOM     27  N   UNL     1      -5.978  12.856  20.070  0.00  0.00    +0.000 NA
ENDBRANCH  19  26
ENDBRANCH  15  16
ENDBRANCH  12  15
ENDBRANCH   6   9
BRANCH   4  28
ATOM     28  C   UNL     1       1.526   3.195  21.126  0.00  0.00    +0.000 C 
ATOM     29  N   UNL     1       0.428   2.736  20.453  0.00  0.00    +0.000 N 
ATOM     30  O   UNL     1       1.790   2.812  22.257  0.00  0.00    +0.000 OA
ATOM     31  H   UNL     1       0.218   3.066  19.519  0.00  0.00    +0.000 HD
ATOM     32  H   UNL     1      -0.179   2.068  20.908  0.00  0.00    +0.000 HD
ENDBRANCH   4  28
BRANCH   1  34
ATOM     33  C   UNL     1       7.736   5.761  18.590  0.00  0.00    +0.000 C 
ATOM     34  C   UNL     1       6.479   5.173  17.965  0.00  0.00    +0.000 C 
BRANCH  34  35
ATOM     35  C   UNL     1       6.803   4.421  16.659  0.00  0.00    +0.000 C 
ATOM     36  N   UNL     1       5.888   3.520  16.207  0.00  0.00    +0.000 N 
ATOM     37  O   UNL     1       7.865   4.569  16.054  0.00  0.00    +0.000 OA
ATOM     38  H   UNL     1       5.120   3.242  16.809  0.00  0.00    +0.000 HD
ATOM     39  H   UNL     1       6.138   2.941  15.420  0.00  0.00    +0.000 HD
ENDBRANCH  34  35
ENDBRANCH   1  34
TORSDOF 8
ENDMDL
MODEL 2
REMARK VINA RESULT:      -9.5      1.518      1.978
REMARK  Name = 
REMARK  9 active torsions:
REMARK  status: ('A' for Active; 'I' for Inactive)
REMARK    1  A    between atoms: C_1  and  C_2
REMARK    2  A    between atoms: C_2  and  N_3
REMARK    3  A    between atoms: C_2  and  C_32
REMARK    4  A    between atoms: C_6  and  C_7
REMARK    5  A    between atoms: C_11  and  C_12
REMARK    6  A    between atoms: C_15  and  O_16
REMARK    7  A    between atoms: O_16  and  C_17
REMARK    8  A    between atoms: C_20  and  C_21
REMARK    9  A    between atoms: C_23  and  C_24
REMARK                            x       y       z     vdW  Elec       q    Type
REMARK                         _______ _______ _______ _____ _____    ______ ____
ROOT
ATOM      1  N   UNL     1       5.708   4.789  18.369  0.00  0.00    +0.000 N 
ATOM      2  C   UNL     1       4.486   5.055  18.966  0.00  0.00    +0.000 A 
ATOM      3  C   UNL     1       3.912   4.052  19.712  0.00  0.00    +0.000 A 
ATOM      4  C   UNL     1       2.700   4.334  20.300  0.00  0.00    +0.000 A 
ATOM      5  N   UNL     1       2.059   5.517  20.189  0.00  0.00    +0.000 NA
ATOM      6  C   UNL     1       2.685   6.434  19.434  0.00  0.00    +0.000 A 
ATOM      7  N   UNL     1       3.882   6.244  18.823  0.00  0.00    +0.000 NA
ATOM      8  H   UNL     1       6.393   4.469  19.050  0.00  0.00    +0.000 HD
ENDROOT
BRANCH   6   9
ATOM      9  C   UNL     1       2.069   7.772  19.317  0.00  0.00    +0.000 A 
ATOM     10  C   UNL     1       2.154   8.537  18.135  0.00  0.00    +0.000 A 
ATOM     11  C   UNL     1       1.497   9.768  18.013  0.00  0.00    +0.000 A 
ATOM     12  C   UNL     1       0.738  10.267  19.068  0.00  0.00    +0.000 A 
ATOM     13  C   UNL     1       0.715   9.576  20.277  0.00  0.00    +0.000 A 
ATOM     14  C   UNL     1       1.347   8.334  20.387  0.00  0.00    +0.000 A 
BRANCH  12  15
ATOM     15  O   UNL     1       0.094  11.461  18.840  0.00  0.00    +0.000 OA
BRANCH  15  16
ATOM     16  C   UNL     1      -1.280  11.497  18.761  0.00  0.00    +0.000 A 
ATOM     17  C   UNL     1      -1.845  10.859  17.660  0.00  0.00    +0.000 A 
ATOM     18  C   UNL     1      -3.230  10.864  17.485  0.00  0.00    +0.000 A 
ATOM     19  C   UNL     1      -4.071  11.517  18.402  0.00  0.00    +0.000 A 
ATOM     20  C   UNL     1      -3.514  12.138  19.533  0.00  0.00    +0.000 A 
ATOM     21  C   UNL     1      -2.115  12.081  19.717  0.00  0.00    +0.000 A 
BRANCH  20  22
ATOM     22  C   UNL     1      -4.314  12.906  20.558  0.00  0.00    +0.000 C 
ATOM     23  F   UNL     1      -5.288  12.202  21.186  0.00  0.00    +0.000 F 
ATOM     24  F   UNL     1      -3.524  13.412  21.546  0.00  0.00    +0.000 F 
ATOM     25  F   UNL     1      -4.936  13.983  19.999  0.00  0.00    +0.000 F 
ENDBRANCH  20  22
BRANCH  19  26
ATOM     26  C   UNL     1      -5.483  11.509  18.135  0.00  0.00    +0.000 C 
ATOM     27  N   UNL     1      -6.616  11.477  17.896  0.00  0.00    +0.000 NA
ENDBRANCH  19  26
ENDBRANCH  15  16
ENDBRANCH  12  15
ENDBRANCH   6   9
BRANCH   4  28
ATOM     28  C   UNL     1       2.049   3.279  21.137  0.00  0.00    +0.000 C 
ATOM     29  N   UNL     1       0.759   2.962  20.814  0.00  0.00    +0.000 N 
ATOM     30  O   UNL     1       2.628   2.736  22.068  0.00  0.00    +0.000 OA
ATOM     31  H   UNL     1       0.290   3.423  20.044  0.00  0.00    +0.000 HD
ATOM     32  H   UNL     1       0.275   2.266  21.365  0.00  0.00    +0.000 HD
ENDBRANCH   4  28
BRANCH   1  34
ATOM     33  C   UNL     1       7.495   6.435  17.776  0.00  0.00    +0.000 C 
ATOM     34  C   UNL     1       6.334   5.579  17.291  0.00  0.00    +0.000 C 
BRANCH  34  35
ATOM     35  C   UNL     1       6.715   4.781  16.028  0.00  0.00    +0.000 C 
ATOM     36  N   UNL     1       6.185   3.536  15.885  0.00  0.00    +0.000 N 
ATOM     37  O   UNL     1       7.509   5.207  15.190  0.00  0.00    +0.000 OA
ATOM     38  H   UNL     1       5.707   3.103  16.669  0.00  0.00    +0.000 HD
ATOM     39  H   UNL     1       6.515   2.961  15.125  0.00  0.00    +0.000 HD
ENDBRANCH  34  35
ENDBRANCH   1  34
TORSDOF 8
ENDMDL
MODEL 3
REMARK VINA RESULT:      -9.4      0.454      1.146
REMARK  Name = 
REMARK  9 active torsions:
REMARK  status: ('A' for Active; 'I' for Inactive)
REMARK    1  A    between atoms: C_1  and  C_2
REMARK    2  A    between atoms: C_2  and  N_3
REMARK    3  A    between atoms: C_2  and  C_32
REMARK    4  A    between atoms: C_6  and  C_7
REMARK    5  A    between atoms: C_11  and  C_12
REMARK    6  A    between atoms: C_15  and  O_16
REMARK    7  A    between atoms: O_16  and  C_17
REMARK    8  A    between atoms: C_20  and  C_21
REMARK    9  A    between atoms: C_23  and  C_24
REMARK                            x       y       z     vdW  Elec       q    Type
REMARK                         _______ _______ _______ _____ _____    ______ ____
ROOT
ATOM      1  N   UNL     1       5.709   4.818  18.478  0.00  0.00    +0.000 N 
ATOM      2  C   UNL     1       4.474   5.068  19.056  0.00  0.00    +0.000 A 
ATOM      3  C   UNL     1       3.894   4.054  19.781  0.00  0.00    +0.000 A 
ATOM      4  C   UNL     1       2.671   4.320  20.351  0.00  0.00    +0.000 A 
ATOM      5  N   UNL     1       2.023   5.500  20.242  0.00  0.00    +0.000 NA
ATOM      6  C   UNL     1       2.655   6.430  19.507  0.00  0.00    +0.000 A 
ATOM      7  N   UNL     1       3.864   6.255  18.916  0.00  0.00    +0.000 NA
ATOM      8  H   UNL     1       6.384   4.495  19.167  0.00  0.00    +0.000 HD
ENDROOT
BRANCH   6   9
ATOM      9  C   UNL     1       2.032   7.764  19.394  0.00  0.00    +0.000 A 
ATOM     10  C   UNL     1       1.361   8.374  20.473  0.00  0.00    +0.000 A 
ATOM     11  C   UNL     1       0.846   9.673  20.373  0.00  0.00    +0.000 A 
ATOM     12  C   UNL     1       0.986  10.395  19.191  0.00  0.00    +0.000 A 
ATOM     13  C   UNL     1       1.561   9.781  18.081  0.00  0.00    +0.000 A 
ATOM     14  C   UNL     1       2.100   8.496  18.193  0.00  0.00    +0.000 A 
BRANCH  12  15
ATOM     15  O   UNL     1       0.488  11.678  19.201  0.00  0.00    +0.000 OA
BRANCH  15  16
ATOM     16  C   UNL     1      -0.870  11.888  19.286  0.00  0.00    +0.000 A 
ATOM     17  C   UNL     1      -1.304  12.644  20.372  0.00  0.00    +0.000 A 
ATOM     18  C   UNL     1      -2.666  12.890  20.552  0.00  0.00    +0.000 A 
ATOM     19  C   UNL     1      -3.617  12.373  19.654  0.00  0.00    +0.000 A 
ATOM     20  C   UNL     1      -3.188  11.635  18.538  0.00  0.00    +0.000 A 
ATOM     21  C   UNL     1      -1.803  11.438  18.349  0.00  0.00    +0.000 A 
BRANCH  20  22
ATOM     22  C   UNL     1      -4.120  10.995  17.537  0.00  0.00    +0.000 C 
ATOM     23  F   UNL     1      -3.535  10.160  16.644  0.00  0.00    +0.000 F 
ATOM     24  F   UNL     1      -5.098  10.267  18.144  0.00  0.00    +0.000 F 
ATOM     25  F   UNL     1      -4.772  11.934  16.793  0.00  0.00    +0.000 F 
ENDBRANCH  20  22
BRANCH  19  26
ATOM     26  C   UNL     1      -5.003  12.638  19.926  0.00  0.00    +0.000 C 
ATOM     27  N   UNL     1      -6.123  12.869  20.114  0.00  0.00    +0.000 NA
ENDBRANCH  19  26
ENDBRANCH  15  16
ENDBRANCH  12  15
ENDBRANCH   6   9
BRANCH   4  28
ATOM     28  C   UNL     1       2.013   3.251  21.164  0.00  0.00    +0.000 C 
ATOM     29  N   UNL     1       0.754   2.885  20.777  0.00  0.00    +0.000 N 
ATOM     30  O   UNL     1       2.559   2.739  22.132  0.00  0.00    +0.000 OA
ATOM     31  H   UNL     1       0.312   3.320  19.977  0.00  0.00    +0.000 HD
ATOM     32  H   UNL     1       0.266   2.178  21.309  0.00  0.00    +0.000 HD
ENDBRANCH   4  28
BRANCH   1  34
ATOM     33  C   UNL     1       7.504   6.471  17.930  0.00  0.00    +0.000 C 
ATOM     34  C   UNL     1       6.347   5.624  17.420  0.00  0.00    +0.000 C 
BRANCH  34  35
ATOM     35  C   UNL     1       6.742   4.846  16.148  0.00  0.00    +0.000 C 
ATOM     36  N   UNL     1       6.202   3.609  15.973  0.00  0.00    +0.000 N 
ATOM     37  O   UNL     1       7.554   5.279  15.332  0.00  0.00    +0.000 OA
ATOM     38  H   UNL     1       5.706   3.167  16.741  0.00  0.00    +0.000 HD
ATOM     39  H   UNL     1       6.539   3.045  15.208  0.00  0.00    +0.000 HD
ENDBRANCH  34  35
ENDBRANCH   1  34
TORSDOF 8
ENDMDL
MODEL 4
REMARK VINA RESULT:      -9.4      1.636      4.071
REMARK  Name = 
REMARK  9 active torsions:
REMARK  status: ('A' for Active; 'I' for Inactive)
REMARK    1  A    between atoms: C_1  and  C_2
REMARK    2  A    between atoms: C_2  and  N_3
REMARK    3  A    between atoms: C_2  and  C_32
REMARK    4  A    between atoms: C_6  and  C_7
REMARK    5  A    between atoms: C_11  and  C_12
REMARK    6  A    between atoms: C_15  and  O_16
REMARK    7  A    between atoms: O_16  and  C_17
REMARK    8  A    between atoms: C_20  and  C_21
REMARK    9  A    between atoms: C_23  and  C_24
REMARK                            x       y       z     vdW  Elec       q    Type
REMARK                         _______ _______ _______ _____ _____    ______ ____
ROOT
ATOM      1  N   UNL     1       3.293   2.502  18.369  0.00  0.00    +0.000 N 
ATOM      2  C   UNL     1       3.695   3.771  17.978  0.00  0.00    +0.000 A 
ATOM      3  C   UNL     1       4.778   3.863  17.135  0.00  0.00    +0.000 A 
ATOM      4  C   UNL     1       5.161   5.128  16.756  0.00  0.00    +0.000 A 
ATOM      5  N   UNL     1       4.543   6.261  17.155  0.00  0.00    +0.000 NA
ATOM      6  C   UNL     1       3.504   6.079  17.986  0.00  0.00    +0.000 A 
ATOM      7  N   UNL     1       3.055   4.869  18.406  0.00  0.00    +0.000 NA
ATOM      8  H   UNL     1       3.121   1.903  17.565  0.00  0.00    +0.000 HD
ENDROOT
BRANCH   6   9
ATOM      9  C   UNL     1       2.745   7.271  18.417  0.00  0.00    +0.000 A 
ATOM     10  C   UNL     1       2.157   7.364  19.695  0.00  0.00    +0.000 A 
ATOM     11  C   UNL     1       1.509   8.533  20.117  0.00  0.00    +0.000 A 
ATOM     12  C   UNL     1       1.433   9.637  19.274  0.00  0.00    +0.000 A 
ATOM     13  C   UNL     1       1.923   9.538  17.974  0.00  0.00    +0.000 A 
ATOM     14  C   UNL     1       2.595   8.382  17.565  0.00  0.00    +0.000 A 
BRANCH  12  15
ATOM     15  O   UNL     1       0.817  10.754  19.791  0.00  0.00    +0.000 OA
BRANCH  15  16
ATOM     16  C   UNL     1      -0.486  11.040  19.453  0.00  0.00    +0.000 A 
ATOM     17  C   UNL     1      -1.113  12.021  20.217  0.00  0.00    +0.000 A 
ATOM     18  C   UNL     1      -2.443  12.361  19.961  0.00  0.00    +0.000 A 
ATOM     19  C   UNL     1      -3.170  11.716  18.945  0.00  0.00    +0.000 A 
ATOM     20  C   UNL     1      -2.538  10.747  18.148  0.00  0.00    +0.000 A 
ATOM     21  C   UNL     1      -1.179  10.452  18.392  0.00  0.00    +0.000 A 
BRANCH  20  22
ATOM     22  C   UNL     1      -3.231   9.960  17.062  0.00  0.00    +0.000 C 
ATOM     23  F   UNL     1      -4.091  10.666  16.288  0.00  0.00    +0.000 F 
ATOM     24  F   UNL     1      -2.342   9.386  16.203  0.00  0.00    +0.000 F 
ATOM     25  F   UNL     1      -3.958   8.929  17.579  0.00  0.00    +0.000 F 
ENDBRANCH  20  22
BRANCH  19  26
ATOM     26  C   UNL     1      -4.544  12.096  18.766  0.00  0.00    +0.000 C 
ATOM     27  N   UNL     1      -5.657  12.372  18.603  0.00  0.00    +0.000 NA
ENDBRANCH  19  26
ENDBRANCH  15  16
ENDBRANCH  12  15
ENDBRANCH   6   9
BRANCH   4  28
ATOM     28  C   UNL     1       6.322   5.274  15.824  0.00  0.00    +0.000 C 
ATOM     29  N   UNL     1       7.521   4.796  16.273  0.00  0.00    +0.000 N 
ATOM     30  O   UNL     1       6.214   5.803  14.726  0.00  0.00    +0.000 OA
ATOM     31  H   UNL     1       7.598   4.365  17.186  0.00  0.00    +0.000 HD
ATOM     32  H   UNL     1       8.336   4.890  15.682  0.00  0.00    +0.000 HD
ENDBRANCH   4  28
BRANCH   1  34
ATOM     33  C   UNL     1       2.953   2.596  20.844  0.00  0.00    +0.000 C 
ATOM     34  C   UNL     1       2.388   2.189  19.491  0.00  0.00    +0.000 C 
BRANCH  34  35
ATOM     35  C   UNL     1       0.936   2.677  19.320  0.00  0.00    +0.000 C 
ATOM     36  N   UNL     1       0.493   3.647  20.167  0.00  0.00    +0.000 N 
ATOM     37  O   UNL     1       0.165   2.189  18.495  0.00  0.00    +0.000 OA
ATOM     38  H   UNL     1       1.051   3.897  20.977  0.00  0.00    +0.000 HD
ATOM     39  H   UNL     1      -0.484   3.893  20.141  0.00  0.00    +0.000 HD
ENDBRANCH  34  35
ENDBRANCH   1  34
TORSDOF 8
ENDMDL
MODEL 5
REMARK VINA RESULT:      -9.3      1.125      1.545
REMARK  Name = 
REMARK  9 active torsions:
REMARK  status: ('A' for Active; 'I' for Inactive)
REMARK    1  A    between atoms: C_1  and  C_2
REMARK    2  A    between atoms: C_2  and  N_3
REMARK    3  A    between atoms: C_2  and  C_32
REMARK    4  A    between atoms: C_6  and  C_7
REMARK    5  A    between atoms: C_11  and  C_12
REMARK    6  A    between atoms: C_15  and  O_16
REMARK    7  A    between atoms: O_16  and  C_17
REMARK    8  A    between atoms: C_20  and  C_21
REMARK    9  A    between atoms: C_23  and  C_24
REMARK                            x       y       z     vdW  Elec       q    Type
REMARK                         _______ _______ _______ _____ _____    ______ ____
ROOT
ATOM      1  N   UNL     1       5.958   4.509  19.094  0.00  0.00    +0.000 N 
ATOM      2  C   UNL     1       4.585   4.704  19.092  0.00  0.00    +0.000 A 
ATOM      3  C   UNL     1       3.785   3.587  19.142  0.00  0.00    +0.000 A 
ATOM      4  C   UNL     1       2.425   3.798  19.143  0.00  0.00    +0.000 A 
ATOM      5  N   UNL     1       1.847   5.017  19.101  0.00  0.00    +0.000 NA
ATOM      6  C   UNL     1       2.701   6.051  19.041  0.00  0.00    +0.000 A 
ATOM      7  N   UNL     1       4.054   5.935  19.042  0.00  0.00    +0.000 NA
ATOM      8  H   UNL     1       6.253   3.943  19.886  0.00  0.00    +0.000 HD
ENDROOT
BRANCH   6   9
ATOM      9  C   UNL     1       2.139   7.416  19.051  0.00  0.00    +0.000 A 
ATOM     10  C   UNL     1       1.559   7.981  20.206  0.00  0.00    +0.000 A 
ATOM     11  C   UNL     1       1.103   9.306  20.221  0.00  0.00    +0.000 A 
ATOM     12  C   UNL     1       1.214  10.100  19.083  0.00  0.00    +0.000 A 
ATOM     13  C   UNL     1       1.697   9.538  17.903  0.00  0.00    +0.000 A 
ATOM     14  C   UNL     1       2.178   8.225  17.899  0.00  0.00    +0.000 A 
BRANCH  12  15
ATOM     15  O   UNL     1       0.781  11.400  19.205  0.00  0.00    +0.000 OA
BRANCH  15  16
ATOM     16  C   UNL     1      -0.567  11.674  19.266  0.00  0.00    +0.000 A 
ATOM     17  C   UNL     1      -0.978  12.488  20.318  0.00  0.00    +0.000 A 
ATOM     18  C   UNL     1      -2.330  12.799  20.472  0.00  0.00    +0.000 A 
ATOM     19  C   UNL     1      -3.294  12.293  19.583  0.00  0.00    +0.000 A 
ATOM     20  C   UNL     1      -2.886  11.495  18.500  0.00  0.00    +0.000 A 
ATOM     21  C   UNL     1      -1.510  11.231  18.334  0.00  0.00    +0.000 A 
BRANCH  20  22
ATOM     22  C   UNL     1      -3.835  10.862  17.511  0.00  0.00    +0.000 C 
ATOM     23  F   UNL     1      -3.268  10.018  16.614  0.00  0.00    +0.000 F 
ATOM     24  F   UNL     1      -4.813  10.144  18.131  0.00  0.00    +0.000 F 
ATOM     25  F   UNL     1      -4.487  11.805  16.771  0.00  0.00    +0.000 F 
ENDBRANCH  20  22
BRANCH  19  26
ATOM     26  C   UNL     1      -4.669  12.629  19.828  0.00  0.00    +0.000 C 
ATOM     27  N   UNL     1      -5.767  12.928  20.045  0.00  0.00    +0.000 NA
ENDBRANCH  19  26
ENDBRANCH  15  16
ENDBRANCH  12  15
ENDBRANCH   6   9
BRANCH   4  28
ATOM     28  C   UNL     1       1.518   2.611  19.217  0.00  0.00    +0.000 C 
ATOM     29  N   UNL     1       2.028   1.431  18.752  0.00  0.00    +0.000 N 
ATOM     30  O   UNL     1       0.377   2.689  19.652  0.00  0.00    +0.000 OA
ATOM     31  H   UNL     1       2.972   1.382  18.389  0.00  0.00    +0.000 HD
ATOM     32  H   UNL     1       1.442   0.607  18.768  0.00  0.00    +0.000 HD
ENDBRANCH   4  28
BRANCH   1  34
ATOM     33  C   UNL     1       8.113   5.603  19.733  0.00  0.00    +0.000 C 
ATOM     34  C   UNL     1       6.974   5.514  18.729  0.00  0.00    +0.000 C 
BRANCH  34  35
ATOM     35  C   UNL     1       7.507   5.416  17.285  0.00  0.00    +0.000 C 
ATOM     36  N   UNL     1       7.426   6.530  16.506  0.00  0.00    +0.000 N 
ATOM     37  O   UNL     1       7.945   4.369  16.810  0.00  0.00    +0.000 OA
ATOM     38  H   UNL     1       6.876   7.322  16.822  0.00  0.00    +0.000 HD
ATOM     39  H   UNL     1       7.664   6.447  15.530  0.00  0.00    +0.000 HD
ENDBRANCH  34  35
ENDBRANCH   1  34
TORSDOF 8
ENDMDL
MODEL 6
REMARK VINA RESULT:      -9.3      0.963      1.326
REMARK  Name = 
REMARK  9 active torsions:
REMARK  status: ('A' for Active; 'I' for Inactive)
REMARK    1  A    between atoms: C_1  and  C_2
REMARK    2  A    between atoms: C_2  and  N_3
REMARK    3  A    between atoms: C_2  and  C_32
REMARK    4  A    between atoms: C_6  and  C_7
REMARK    5  A    between atoms: C_11  and  C_12
REMARK    6  A    between atoms: C_15  and  O_16
REMARK    7  A    between atoms: O_16  and  C_17
REMARK    8  A    between atoms: C_20  and  C_21
REMARK    9  A    between atoms: C_23  and  C_24
REMARK                            x       y       z     vdW  Elec       q    Type
REMARK                         _______ _______ _______ _____ _____    ______ ____
ROOT
ATOM      1  N   UNL     1       5.742   4.112  18.571  0.00  0.00    +0.000 N 
ATOM      2  C   UNL     1       4.512   4.507  19.074  0.00  0.00    +0.000 A 
ATOM      3  C   UNL     1       3.789   3.579  19.786  0.00  0.00    +0.000 A 
ATOM      4  C   UNL     1       2.572   3.987  20.279  0.00  0.00    +0.000 A 
ATOM      5  N   UNL     1       2.061   5.226  20.109  0.00  0.00    +0.000 NA
ATOM      6  C   UNL     1       2.827   6.064  19.393  0.00  0.00    +0.000 A 
ATOM      7  N   UNL     1       4.040   5.747  18.874  0.00  0.00    +0.000 NA
ATOM      8  H   UNL     1       6.341   3.738  19.303  0.00  0.00    +0.000 HD
ENDROOT
BRANCH   6   9
ATOM      9  C   UNL     1       2.357   7.453  19.216  0.00  0.00    +0.000 A 
ATOM     10  C   UNL     1       2.555   8.166  18.017  0.00  0.00    +0.000 A 
ATOM     11  C   UNL     1       2.033   9.454  17.837  0.00  0.00    +0.000 A 
ATOM     12  C   UNL     1       1.299  10.062  18.852  0.00  0.00    +0.000 A 
ATOM     13  C   UNL     1       1.169   9.417  20.079  0.00  0.00    +0.000 A 
ATOM     14  C   UNL     1       1.666   8.121  20.246  0.00  0.00    +0.000 A 
BRANCH  12  15
ATOM     15  O   UNL     1       0.789  11.308  18.569  0.00  0.00    +0.000 OA
BRANCH  15  16
ATOM     16  C   UNL     1      -0.547  11.568  18.777  0.00  0.00    +0.000 A 
ATOM     17  C   UNL     1      -0.844  12.444  19.818  0.00  0.00    +0.000 A 
ATOM     18  C   UNL     1      -2.173  12.748  20.117  0.00  0.00    +0.000 A 
ATOM     19  C   UNL     1      -3.227  12.172  19.386  0.00  0.00    +0.000 A 
ATOM     20  C   UNL     1      -2.938  11.310  18.314  0.00  0.00    +0.000 A 
ATOM     21  C   UNL     1      -1.587  11.053  17.998  0.00  0.00    +0.000 A 
BRANCH  20  22
ATOM     22  C   UNL     1      -3.987  10.601  17.492  0.00  0.00    +0.000 C 
ATOM     23  F   UNL     1      -4.772  11.401  16.730  0.00  0.00    +0.000 F 
ATOM     24  F   UNL     1      -3.436   9.695  16.636  0.00  0.00    +0.000 F 
ATOM     25  F   UNL     1      -4.840   9.887  18.281  0.00  0.00    +0.000 F 
ENDBRANCH  20  22
BRANCH  19  26
ATOM     26  C   UNL     1      -4.569  12.507  19.776  0.00  0.00    +0.000 C 
ATOM     27  N   UNL     1      -5.639  12.807  20.104  0.00  0.00    +0.000 NA
ENDBRANCH  19  26
ENDBRANCH  15  16
ENDBRANCH  12  15
ENDBRANCH   6   9
BRANCH   4  28
ATOM     28  C   UNL     1       1.761   3.016  21.077  0.00  0.00    +0.000 C 
ATOM     29  N   UNL     1       0.545   2.672  20.555  0.00  0.00    +0.000 N 
ATOM     30  O   UNL     1       2.151   2.562  22.144  0.00  0.00    +0.000 OA
ATOM     31  H   UNL     1       0.232   3.060  19.674  0.00  0.00    +0.000 HD
ATOM     32  H   UNL     1      -0.044   2.032  21.070  0.00  0.00    +0.000 HD
ENDBRANCH   4  28
BRANCH   1  34
ATOM     33  C   UNL     1       5.726   5.064  16.259  0.00  0.00    +0.000 C 
ATOM     34  C   UNL     1       6.519   4.818  17.534  0.00  0.00    +0.000 C 
BRANCH  34  35
ATOM     35  C   UNL     1       7.233   6.101  18.005  0.00  0.00    +0.000 C 
ATOM     36  N   UNL     1       7.298   7.143  17.133  0.00  0.00    +0.000 N 
ATOM     37  O   UNL     1       7.780   6.189  19.104  0.00  0.00    +0.000 OA
ATOM     38  H   UNL     1       7.039   6.999  16.162  0.00  0.00    +0.000 HD
ATOM     39  H   UNL     1       7.859   7.942  17.385  0.00  0.00    +0.000 HD
ENDBRANCH  34  35
ENDBRANCH   1  34
TORSDOF 8
ENDMDL
MODEL 7
REMARK VINA RESULT:      -9.3      1.300      1.683
REMARK  Name = 
REMARK  9 active torsions:
REMARK  status: ('A' for Active; 'I' for Inactive)
REMARK    1  A    between atoms: C_1  and  C_2
REMARK    2  A    between atoms: C_2  and  N_3
REMARK    3  A    between atoms: C_2  and  C_32
REMARK    4  A    between atoms: C_6  and  C_7
REMARK    5  A    between atoms: C_11  and  C_12
REMARK    6  A    between atoms: C_15  and  O_16
REMARK    7  A    between atoms: O_16  and  C_17
REMARK    8  A    between atoms: C_20  and  C_21
REMARK    9  A    between atoms: C_23  and  C_24
REMARK                            x       y       z     vdW  Elec       q    Type
REMARK                         _______ _______ _______ _____ _____    ______ ____
ROOT
ATOM      1  N   UNL     1       6.148   4.294  18.271  0.00  0.00    +0.000 N 
ATOM      2  C   UNL     1       4.882   4.537  18.781  0.00  0.00    +0.000 A 
ATOM      3  C   UNL     1       4.244   3.501  19.421  0.00  0.00    +0.000 A 
ATOM      4  C   UNL     1       2.990   3.761  19.923  0.00  0.00    +0.000 A 
ATOM      5  N   UNL     1       2.365   4.955  19.825  0.00  0.00    +0.000 NA
ATOM      6  C   UNL     1       3.055   5.906  19.175  0.00  0.00    +0.000 A 
ATOM      7  N   UNL     1       4.297   5.738  18.654  0.00  0.00    +0.000 NA
ATOM      8  H   UNL     1       6.774   3.930  18.987  0.00  0.00    +0.000 HD
ENDROOT
BRANCH   6   9
ATOM      9  C   UNL     1       2.457   7.253  19.081  0.00  0.00    +0.000 A 
ATOM     10  C   UNL     1       1.760   7.842  20.156  0.00  0.00    +0.000 A 
ATOM     11  C   UNL     1       1.269   9.152  20.078  0.00  0.00    +0.000 A 
ATOM     12  C   UNL     1       1.460   9.906  18.924  0.00  0.00    +0.000 A 
ATOM     13  C   UNL     1       2.062   9.316  17.815  0.00  0.00    +0.000 A 
ATOM     14  C   UNL     1       2.578   8.019  17.906  0.00  0.00    +0.000 A 
BRANCH  12  15
ATOM     15  O   UNL     1       0.983  11.196  18.956  0.00  0.00    +0.000 OA
BRANCH  15  16
ATOM     16  C   UNL     1      -0.374  11.428  18.966  0.00  0.00    +0.000 A 
ATOM     17  C   UNL     1      -0.823  12.393  19.864  0.00  0.00    +0.000 A 
ATOM     18  C   UNL     1      -2.186  12.678  19.959  0.00  0.00    +0.000 A 
ATOM     19  C   UNL     1      -3.123  11.993  19.166  0.00  0.00    +0.000 A 
ATOM     20  C   UNL     1      -2.679  11.039  18.235  0.00  0.00    +0.000 A 
ATOM     21  C   UNL     1      -1.293  10.800  18.121  0.00  0.00    +0.000 A 
BRANCH  20  22
ATOM     22  C   UNL     1      -3.597  10.213  17.366  0.00  0.00    +0.000 C 
ATOM     23  F   UNL     1      -4.428   9.372  18.028  0.00  0.00    +0.000 F 
ATOM     24  F   UNL     1      -4.398  10.993  16.587  0.00  0.00    +0.000 F 
ATOM     25  F   UNL     1      -2.892   9.432  16.499  0.00  0.00    +0.000 F 
ENDBRANCH  20  22
BRANCH  19  26
ATOM     26  C   UNL     1      -4.511  12.317  19.347  0.00  0.00    +0.000 C 
ATOM     27  N   UNL     1      -5.640  12.548  19.477  0.00  0.00    +0.000 NA
ENDBRANCH  19  26
ENDBRANCH  15  16
ENDBRANCH  12  15
ENDBRANCH   6   9
BRANCH   4  28
ATOM     28  C   UNL     1       2.268   2.668  20.645  0.00  0.00    +0.000 C 
ATOM     29  N   UNL     1       2.302   2.721  22.011  0.00  0.00    +0.000 N 
ATOM     30  O   UNL     1       1.692   1.765  20.053  0.00  0.00    +0.000 OA
ATOM     31  H   UNL     1       2.788   3.471  22.488  0.00  0.00    +0.000 HD
ATOM     32  H   UNL     1       1.842   1.992  22.539  0.00  0.00    +0.000 HD
ENDBRANCH   4  28
BRANCH   1  34
ATOM     33  C   UNL     1       6.049   5.413  16.037  0.00  0.00    +0.000 C 
ATOM     34  C   UNL     1       6.863   5.135  17.293  0.00  0.00    +0.000 C 
BRANCH  34  35
ATOM     35  C   UNL     1       7.474   6.431  17.862  0.00  0.00    +0.000 C 
ATOM     36  N   UNL     1       7.459   7.537  17.068  0.00  0.00    +0.000 N 
ATOM     37  O   UNL     1       8.012   6.480  18.968  0.00  0.00    +0.000 OA
ATOM     38  H   UNL     1       7.214   7.445  16.087  0.00  0.00    +0.000 HD
ATOM     39  H   UNL     1       7.956   8.356  17.382  0.00  0.00    +0.000 HD
ENDBRANCH  34  35
ENDBRANCH   1  34
TORSDOF 8
ENDMDL
MODEL 8
REMARK VINA RESULT:      -9.3      1.240      1.778
REMARK  Name = 
REMARK  9 active torsions:
REMARK  status: ('A' for Active; 'I' for Inactive)
REMARK    1  A    between atoms: C_1  and  C_2
REMARK    2  A    between atoms: C_2  and  N_3
REMARK    3  A    between atoms: C_2  and  C_32
REMARK    4  A    between atoms: C_6  and  C_7
REMARK    5  A    between atoms: C_11  and  C_12
REMARK    6  A    between atoms: C_15  and  O_16
REMARK    7  A    between atoms: O_16  and  C_17
REMARK    8  A    between atoms: C_20  and  C_21
REMARK    9  A    between atoms: C_23  and  C_24
REMARK                            x       y       z     vdW  Elec       q    Type
REMARK                         _______ _______ _______ _____ _____    ______ ____
ROOT
ATOM      1  N   UNL     1       5.792   3.852  17.507  0.00  0.00    +0.000 N 
ATOM      2  C   UNL     1       4.733   4.214  18.325  0.00  0.00    +0.000 A 
ATOM      3  C   UNL     1       4.300   3.292  19.249  0.00  0.00    +0.000 A 
ATOM      4  C   UNL     1       3.250   3.668  20.054  0.00  0.00    +0.000 A 
ATOM      5  N   UNL     1       2.637   4.871  19.991  0.00  0.00    +0.000 NA
ATOM      6  C   UNL     1       3.116   5.704  19.054  0.00  0.00    +0.000 A 
ATOM      7  N   UNL     1       4.150   5.418  18.222  0.00  0.00    +0.000 NA
ATOM      8  H   UNL     1       6.596   3.547  18.051  0.00  0.00    +0.000 HD
ENDROOT
BRANCH   6   9
ATOM      9  C   UNL     1       2.532   7.058  18.967  0.00  0.00    +0.000 A 
ATOM     10  C   UNL     1       1.864   7.659  20.054  0.00  0.00    +0.000 A 
ATOM     11  C   UNL     1       1.386   8.974  19.981  0.00  0.00    +0.000 A 
ATOM     12  C   UNL     1       1.562   9.722  18.820  0.00  0.00    +0.000 A 
ATOM     13  C   UNL     1       2.135   9.120  17.702  0.00  0.00    +0.000 A 
ATOM     14  C   UNL     1       2.637   7.819  17.787  0.00  0.00    +0.000 A 
BRANCH  12  15
ATOM     15  O   UNL     1       1.100  11.017  18.857  0.00  0.00    +0.000 OA
BRANCH  15  16
ATOM     16  C   UNL     1      -0.254  11.265  18.877  0.00  0.00    +0.000 A 
ATOM     17  C   UNL     1      -0.690  12.200  19.812  0.00  0.00    +0.000 A 
ATOM     18  C   UNL     1      -2.050  12.498  19.920  0.00  0.00    +0.000 A 
ATOM     19  C   UNL     1      -2.996  11.856  19.102  0.00  0.00    +0.000 A 
ATOM     20  C   UNL     1      -2.564  10.932  18.135  0.00  0.00    +0.000 A 
ATOM     21  C   UNL     1      -1.180  10.681  18.009  0.00  0.00    +0.000 A 
BRANCH  20  22
ATOM     22  C   UNL     1      -3.492  10.152  17.235  0.00  0.00    +0.000 C 
ATOM     23  F   UNL     1      -4.403  10.889  16.554  0.00  0.00    +0.000 F 
ATOM     24  F   UNL     1      -2.810   9.440  16.295  0.00  0.00    +0.000 F 
ATOM     25  F   UNL     1      -4.212   9.232  17.940  0.00  0.00    +0.000 F 
ENDBRANCH  20  22
BRANCH  19  26
ATOM     26  C   UNL     1      -4.380  12.189  19.297  0.00  0.00    +0.000 C 
ATOM     27  N   UNL     1      -5.504  12.441  19.424  0.00  0.00    +0.000 NA
ENDBRANCH  19  26
ENDBRANCH  15  16
ENDBRANCH  12  15
ENDBRANCH   6   9
BRANCH   4  28
ATOM     28  C   UNL     1       2.759   2.704  21.086  0.00  0.00    +0.000 C 
ATOM     29  N   UNL     1       1.402   2.611  21.230  0.00  0.00    +0.000 N 
ATOM     30  O   UNL     1       3.523   2.042  21.776  0.00  0.00    +0.000 OA
ATOM     31  H   UNL     1       0.782   3.169  20.656  0.00  0.00    +0.000 HD
ATOM     32  H   UNL     1       1.027   1.984  21.928  0.00  0.00    +0.000 HD
ENDBRANCH   4  28
BRANCH   1  34
ATOM     33  C   UNL     1       5.238   4.298  15.110  0.00  0.00    +0.000 C 
ATOM     34  C   UNL     1       6.199   4.538  16.265  0.00  0.00    +0.000 C 
BRANCH  34  35
ATOM     35  C   UNL     1       6.528   6.036  16.418  0.00  0.00    +0.000 C 
ATOM     36  N   UNL     1       5.586   6.933  16.017  0.00  0.00    +0.000 N 
ATOM     37  O   UNL     1       7.615   6.436  16.833  0.00  0.00    +0.000 OA
ATOM     38  H   UNL     1       4.785   6.611  15.482  0.00  0.00    +0.000 HD
ATOM     39  H   UNL     1       5.832   7.910  16.005  0.00  0.00    +0.000 HD
ENDBRANCH  34  35
ENDBRANCH   1  34
TORSDOF 8
ENDMDL
MODEL 9
REMARK VINA RESULT:      -9.2      1.274      1.489
REMARK  Name = 
REMARK  9 active torsions:
REMARK  status: ('A' for Active; 'I' for Inactive)
REMARK    1  A    between atoms: C_1  and  C_2
REMARK    2  A    between atoms: C_2  and  N_3
REMARK    3  A    between atoms: C_2  and  C_32
REMARK    4  A    between atoms: C_6  and  C_7
REMARK    5  A    between atoms: C_11  and  C_12
REMARK    6  A    between atoms: C_15  and  O_16
REMARK    7  A    between atoms: O_16  and  C_17
REMARK    8  A    between atoms: C_20  and  C_21
REMARK    9  A    between atoms: C_23  and  C_24
REMARK                            x       y       z     vdW  Elec       q    Type
REMARK                         _______ _______ _______ _____ _____    ______ ____
ROOT
ATOM      1  N   UNL     1       5.995   4.527  19.201  0.00  0.00    +0.000 N 
ATOM      2  C   UNL     1       4.631   4.738  19.329  0.00  0.00    +0.000 A 
ATOM      3  C   UNL     1       3.838   3.642  19.574  0.00  0.00    +0.000 A 
ATOM      4  C   UNL     1       2.487   3.870  19.701  0.00  0.00    +0.000 A 
ATOM      5  N   UNL     1       1.911   5.087  19.604  0.00  0.00    +0.000 NA
ATOM      6  C   UNL     1       2.757   6.099  19.353  0.00  0.00    +0.000 A 
ATOM      7  N   UNL     1       4.101   5.966  19.219  0.00  0.00    +0.000 NA
ATOM      8  H   UNL     1       6.373   4.036  20.008  0.00  0.00    +0.000 HD
ENDROOT
BRANCH   6   9
ATOM      9  C   UNL     1       2.202   7.467  19.292  0.00  0.00    +0.000 A 
ATOM     10  C   UNL     1       2.272   8.254  18.124  0.00  0.00    +0.000 A 
ATOM     11  C   UNL     1       1.670   9.518  18.058  0.00  0.00    +0.000 A 
ATOM     12  C   UNL     1       0.985  10.028  19.157  0.00  0.00    +0.000 A 
ATOM     13  C   UNL     1       0.983   9.311  20.352  0.00  0.00    +0.000 A 
ATOM     14  C   UNL     1       1.558   8.038  20.406  0.00  0.00    +0.000 A 
BRANCH  12  15
ATOM     15  O   UNL     1       0.390  11.256  18.984  0.00  0.00    +0.000 OA
BRANCH  15  16
ATOM     16  C   UNL     1      -0.939  11.334  18.633  0.00  0.00    +0.000 A 
ATOM     17  C   UNL     1      -1.793  11.876  19.589  0.00  0.00    +0.000 A 
ATOM     18  C   UNL     1      -3.161  11.973  19.329  0.00  0.00    +0.000 A 
ATOM     19  C   UNL     1      -3.697  11.518  18.111  0.00  0.00    +0.000 A 
ATOM     20  C   UNL     1      -2.841  10.998  17.127  0.00  0.00    +0.000 A 
ATOM     21  C   UNL     1      -1.455  10.952  17.391  0.00  0.00    +0.000 A 
BRANCH  20  22
ATOM     22  C   UNL     1      -3.310  10.441  15.804  0.00  0.00    +0.000 C 
ATOM     23  F   UNL     1      -4.253  11.173  15.163  0.00  0.00    +0.000 F 
ATOM     24  F   UNL     1      -2.284  10.297  14.920  0.00  0.00    +0.000 F 
ATOM     25  F   UNL     1      -3.844   9.195  15.950  0.00  0.00    +0.000 F 
ENDBRANCH  20  22
BRANCH  19  26
ATOM     26  C   UNL     1      -5.119  11.619  17.931  0.00  0.00    +0.000 C 
ATOM     27  N   UNL     1      -6.266  11.668  17.773  0.00  0.00    +0.000 NA
ENDBRANCH  19  26
ENDBRANCH  15  16
ENDBRANCH  12  15
ENDBRANCH   6   9
BRANCH   4  28
ATOM     28  C   UNL     1       1.590   2.708  19.987  0.00  0.00    +0.000 C 
ATOM     29  N   UNL     1       1.283   2.491  21.301  0.00  0.00    +0.000 N 
ATOM     30  O   UNL     1       1.164   1.979  19.101  0.00  0.00    +0.000 OA
ATOM     31  H   UNL     1       1.647   3.099  22.025  0.00  0.00    +0.000 HD
ATOM     32  H   UNL     1       0.693   1.706  21.541  0.00  0.00    +0.000 HD
ENDBRANCH   4  28
BRANCH   1  34
ATOM     33  C   UNL     1       8.191   5.681  19.516  0.00  0.00    +0.000 C 
ATOM     34  C   UNL     1       6.968   5.479  18.633  0.00  0.00    +0.000 C 
BRANCH  34  35
ATOM     35  C   UNL     1       7.373   5.211  17.169  0.00  0.00    +0.000 C 
ATOM     36  N   UNL     1       6.909   6.070  16.220  0.00  0.00    +0.000 N 
ATOM     37  O   UNL     1       8.043   4.235  16.835  0.00  0.00    +0.000 OA
ATOM     38  H   UNL     1       6.189   6.743  16.463  0.00  0.00    +0.000 HD
ATOM     39  H   UNL     1       7.070   5.842  15.251  0.00  0.00    +0.000 HD
ENDBRANCH  34  35
ENDBRANCH   1  34
TORSDOF 8
ENDMDL
