MODEL 1
REMARK VINA RESULT:      -7.4      0.000      0.000
REMARK  Name = 
REMARK  3 active torsions:
REMARK  status: ('A' for Active; 'I' for Inactive)
REMARK    1  A    between atoms: C_7  and  C_8
REMARK    2  A    between atoms: N_9  and  O_10
REMARK    3  A    between atoms: O_10  and  C_11
REMARK                            x       y       z     vdW  Elec       q    Type
REMARK                         _______ _______ _______ _____ _____    ______ ____
ROOT
ATOM      1  C   UNL     1       6.079   4.037  16.146  0.00  0.00    +0.000 C 
ATOM      2  N   UNL     1       6.772   4.632  17.060  0.00  0.00    +0.000 NA
ENDROOT
BRANCH   1   9
ATOM      3  F   UNL     1       8.738   6.028  12.636  0.00  0.00    +0.000 F 
ATOM      4  C   UNL     1       7.783   5.165  13.001  0.00  0.00    +0.000 A 
ATOM      5  C   UNL     1       7.152   4.397  12.031  0.00  0.00    +0.000 A 
ATOM      6  C   UNL     1       6.164   3.504  12.422  0.00  0.00    +0.000 A 
ATOM      7  F   UNL     1       5.547   2.757  11.498  0.00  0.00    +0.000 F 
ATOM      8  C   UNL     1       5.803   3.372  13.758  0.00  0.00    +0.000 A 
ATOM      9  C   UNL     1       6.448   4.154  14.722  0.00  0.00    +0.000 A 
ATOM     10  C   UNL     1       7.444   5.055  14.347  0.00  0.00    +0.000 A 
ENDBRANCH   1   9
BRANCH   2  11
ATOM     11  O   UNL     1       6.222   4.363  18.321  0.00  0.00    +0.000 OA
BRANCH  11  12
ATOM     12  C   UNL     1       4.865   4.594  18.289  0.00  0.00    +0.000 A 
ATOM     13  C   UNL     1       3.911   3.578  18.404  0.00  0.00    +0.000 A 
ATOM     14  C   UNL     1       2.554   3.896  18.362  0.00  0.00    +0.000 A 
ATOM     15 CL   UNL     1       1.382   2.642  18.488  0.00  0.00    +0.000 Cl
ATOM     16  C   UNL     1       2.139   5.217  18.222  0.00  0.00    +0.000 A 
ATOM     17  C   UNL     1       3.097   6.225  18.128  0.00  0.00    +0.000 A 
ATOM     18 CL   UNL     1       2.593   7.862  17.960  0.00  0.00    +0.000 Cl
ATOM     19  C   UNL     1       4.458   5.922  18.167  0.00  0.00    +0.000 A 
ENDBRANCH  11  12
ENDBRANCH   2  11
TORSDOF 3
ENDMDL
MODEL 2
REMARK VINA RESULT:      -7.4      0.935      2.217
REMARK  Name = 
REMARK  3 active torsions:
REMARK  status: ('A' for Active; 'I' for Inactive)
REMARK    1  A    between atoms: C_7  and  C_8
REMARK    2  A    between atoms: N_9  and  O_10
REMARK    3  A    between atoms: O_10  and  C_11
REMARK                            x       y       z     vdW  Elec       q    Type
REMARK                         _______ _______ _______ _____ _____    ______ ____
ROOT
ATOM      1  C   UNL     1       6.550   4.601  16.121  0.00  0.00    +0.000 C 
ATOM      2  N   UNL     1       5.578   3.980  16.703  0.00  0.00    +0.000 NA
ENDROOT
BRANCH   1   9
ATOM      3  F   UNL     1       8.524   6.234  12.022  0.00  0.00    +0.000 F 
ATOM      4  C   UNL     1       7.729   5.352  12.640  0.00  0.00    +0.000 A 
ATOM      5  C   UNL     1       7.087   4.372  11.894  0.00  0.00    +0.000 A 
ATOM      6  C   UNL     1       6.267   3.462  12.545  0.00  0.00    +0.000 A 
ATOM      7  F   UNL     1       5.642   2.513  11.838  0.00  0.00    +0.000 F 
ATOM      8  C   UNL     1       6.082   3.521  13.922  0.00  0.00    +0.000 A 
ATOM      9  C   UNL     1       6.735   4.514  14.660  0.00  0.00    +0.000 A 
ATOM     10  C   UNL     1       7.564   5.436  14.020  0.00  0.00    +0.000 A 
ENDBRANCH   1   9
BRANCH   2  11
ATOM     11  O   UNL     1       5.619   4.224  18.083  0.00  0.00    +0.000 OA
BRANCH  11  12
ATOM     12  C   UNL     1       4.341   4.442  18.548  0.00  0.00    +0.000 A 
ATOM     13  C   UNL     1       3.906   5.674  19.047  0.00  0.00    +0.000 A 
ATOM     14  C   UNL     1       2.594   5.812  19.498  0.00  0.00    +0.000 A 
ATOM     15 CL   UNL     1       2.066   7.325  20.126  0.00  0.00    +0.000 Cl
ATOM     16  C   UNL     1       1.709   4.740  19.445  0.00  0.00    +0.000 A 
ATOM     17  C   UNL     1       2.145   3.521  18.928  0.00  0.00    +0.000 A 
ATOM     18 CL   UNL     1       1.055   2.192  18.853  0.00  0.00    +0.000 Cl
ATOM     19  C   UNL     1       3.455   3.367  18.474  0.00  0.00    +0.000 A 
ENDBRANCH  11  12
ENDBRANCH   2  11
TORSDOF 3
ENDMDL
MODEL 3
REMARK VINA RESULT:      -7.4      1.099      1.099
REMARK  Name = 
REMARK  3 active torsions:
REMARK  status: ('A' for Active; 'I' for Inactive)
REMARK    1  A    between atoms: C_7  and  C_8
REMARK    2  A    between atoms: N_9  and  O_10
REMARK    3  A    between atoms: O_10  and  C_11
REMARK                            x       y       z     vdW  Elec       q    Type
REMARK                         _______ _______ _______ _____ _____    ______ ____
ROOT
ATOM      1  C   UNL     1       6.570   4.388  16.326  0.00  0.00    +0.000 C 
ATOM      2  N   UNL     1       5.442   4.115  16.894  0.00  0.00    +0.000 NA
ENDROOT
BRANCH   1   9
ATOM      3  F   UNL     1       8.552   6.098  12.263  0.00  0.00    +0.000 F 
ATOM      4  C   UNL     1       7.699   5.254  12.856  0.00  0.00    +0.000 A 
ATOM      5  C   UNL     1       6.944   4.388  12.075  0.00  0.00    +0.000 A 
ATOM      6  C   UNL     1       6.064   3.516  12.701  0.00  0.00    +0.000 A 
ATOM      7  F   UNL     1       5.330   2.677  11.960  0.00  0.00    +0.000 F 
ATOM      8  C   UNL     1       5.931   3.501  14.084  0.00  0.00    +0.000 A 
ATOM      9  C   UNL     1       6.697   4.380  14.857  0.00  0.00    +0.000 A 
ATOM     10  C   UNL     1       7.588   5.262  14.244  0.00  0.00    +0.000 A 
ENDBRANCH   1   9
BRANCH   2  11
ATOM     11  O   UNL     1       5.581   4.193  18.287  0.00  0.00    +0.000 OA
BRANCH  11  12
ATOM     12  C   UNL     1       4.387   4.593  18.846  0.00  0.00    +0.000 A 
ATOM     13  C   UNL     1       3.625   3.780  19.689  0.00  0.00    +0.000 A 
ATOM     14  C   UNL     1       2.427   4.261  20.215  0.00  0.00    +0.000 A 
ATOM     15 CL   UNL     1       1.483   3.252  21.241  0.00  0.00    +0.000 Cl
ATOM     16  C   UNL     1       1.989   5.549  19.921  0.00  0.00    +0.000 A 
ATOM     17  C   UNL     1       2.766   6.359  19.094  0.00  0.00    +0.000 A 
ATOM     18 CL   UNL     1       2.234   7.955  18.729  0.00  0.00    +0.000 Cl
ATOM     19  C   UNL     1       3.965   5.892  18.560  0.00  0.00    +0.000 A 
ENDBRANCH  11  12
ENDBRANCH   2  11
TORSDOF 3
ENDMDL
MODEL 4
REMARK VINA RESULT:      -7.4      0.603      2.812
REMARK  Name = 
REMARK  3 active torsions:
REMARK  status: ('A' for Active; 'I' for Inactive)
REMARK    1  A    between atoms: C_7  and  C_8
REMARK    2  A    between atoms: N_9  and  O_10
REMARK    3  A    between atoms: O_10  and  C_11
REMARK                            x       y       z     vdW  Elec       q    Type
REMARK                         _______ _______ _______ _____ _____    ______ ____
ROOT
ATOM      1  C   UNL     1       6.067   3.939  16.189  0.00  0.00    +0.000 C 
ATOM      2  N   UNL     1       6.630   4.665  17.099  0.00  0.00    +0.000 NA
ENDROOT
BRANCH   1   9
ATOM      3  F   UNL     1       5.435   2.799  11.536  0.00  0.00    +0.000 F 
ATOM      4  C   UNL     1       6.082   3.515  12.463  0.00  0.00    +0.000 A 
ATOM      5  C   UNL     1       7.078   4.399  12.069  0.00  0.00    +0.000 A 
ATOM      6  C   UNL     1       7.742   5.137  13.039  0.00  0.00    +0.000 A 
ATOM      7  F   UNL     1       8.703   5.992  12.674  0.00  0.00    +0.000 F 
ATOM      8  C   UNL     1       7.424   5.001  14.386  0.00  0.00    +0.000 A 
ATOM      9  C   UNL     1       6.419   4.105  14.767  0.00  0.00    +0.000 A 
ATOM     10  C   UNL     1       5.741   3.357  13.804  0.00  0.00    +0.000 A 
ENDBRANCH   1   9
BRANCH   2  11
ATOM     11  O   UNL     1       6.131   4.313  18.361  0.00  0.00    +0.000 OA
BRANCH  11  12
ATOM     12  C   UNL     1       4.869   4.844  18.520  0.00  0.00    +0.000 A 
ATOM     13  C   UNL     1       4.510   6.116  18.064  0.00  0.00    +0.000 A 
ATOM     14  C   UNL     1       3.211   6.580  18.264  0.00  0.00    +0.000 A 
ATOM     15 CL   UNL     1       2.775   8.152  17.715  0.00  0.00    +0.000 Cl
ATOM     16  C   UNL     1       2.263   5.784  18.901  0.00  0.00    +0.000 A 
ATOM     17  C   UNL     1       2.625   4.510  19.335  0.00  0.00    +0.000 A 
ATOM     18 CL   UNL     1       1.458   3.517  20.118  0.00  0.00    +0.000 Cl
ATOM     19  C   UNL     1       3.921   4.033  19.143  0.00  0.00    +0.000 A 
ENDBRANCH  11  12
ENDBRANCH   2  11
TORSDOF 3
ENDMDL
MODEL 5
REMARK VINA RESULT:      -7.4      0.273      1.905
REMARK  Name = 
REMARK  3 active torsions:
REMARK  status: ('A' for Active; 'I' for Inactive)
REMARK    1  A    between atoms: C_7  and  C_8
REMARK    2  A    between atoms: N_9  and  O_10
REMARK    3  A    between atoms: O_10  and  C_11
REMARK                            x       y       z     vdW  Elec       q    Type
REMARK                         _______ _______ _______ _____ _____    ______ ____
ROOT
ATOM      1  C   UNL     1       6.095   3.989  16.096  0.00  0.00    +0.000 C 
ATOM      2  N   UNL     1       6.420   4.892  16.961  0.00  0.00    +0.000 NA
ENDROOT
BRANCH   1   9
ATOM      3  F   UNL     1       5.514   2.778  11.453  0.00  0.00    +0.000 F 
ATOM      4  C   UNL     1       6.144   3.514  12.376  0.00  0.00    +0.000 A 
ATOM      5  C   UNL     1       7.132   4.406  11.978  0.00  0.00    +0.000 A 
ATOM      6  C   UNL     1       7.778   5.165  12.943  0.00  0.00    +0.000 A 
ATOM      7  F   UNL     1       8.732   6.028  12.573  0.00  0.00    +0.000 F 
ATOM      8  C   UNL     1       7.452   5.044  14.289  0.00  0.00    +0.000 A 
ATOM      9  C   UNL     1       6.455   4.140  14.674  0.00  0.00    +0.000 A 
ATOM     10  C   UNL     1       5.795   3.371  13.716  0.00  0.00    +0.000 A 
ENDBRANCH   1   9
BRANCH   2  11
ATOM     11  O   UNL     1       5.970   4.513  18.233  0.00  0.00    +0.000 OA
BRANCH  11  12
ATOM     12  C   UNL     1       4.609   4.711  18.316  0.00  0.00    +0.000 A 
ATOM     13  C   UNL     1       3.700   3.686  18.598  0.00  0.00    +0.000 A 
ATOM     14  C   UNL     1       2.337   3.971  18.665  0.00  0.00    +0.000 A 
ATOM     15 CL   UNL     1       1.220   2.704  18.998  0.00  0.00    +0.000 Cl
ATOM     16  C   UNL     1       1.872   5.267  18.466  0.00  0.00    +0.000 A 
ATOM     17  C   UNL     1       2.787   6.286  18.204  0.00  0.00    +0.000 A 
ATOM     18 CL   UNL     1       2.221   7.893  17.963  0.00  0.00    +0.000 Cl
ATOM     19  C   UNL     1       4.153   6.017  18.133  0.00  0.00    +0.000 A 
ENDBRANCH  11  12
ENDBRANCH   2  11
TORSDOF 3
ENDMDL
MODEL 6
REMARK VINA RESULT:      -7.4      1.124      1.152
REMARK  Name = 
REMARK  3 active torsions:
REMARK  status: ('A' for Active; 'I' for Inactive)
REMARK    1  A    between atoms: C_7  and  C_8
REMARK    2  A    between atoms: N_9  and  O_10
REMARK    3  A    between atoms: O_10  and  C_11
REMARK                            x       y       z     vdW  Elec       q    Type
REMARK                         _______ _______ _______ _____ _____    ______ ____
ROOT
ATOM      1  C   UNL     1       6.385   4.401  16.169  0.00  0.00    +0.000 C 
ATOM      2  N   UNL     1       5.260   4.799  16.666  0.00  0.00    +0.000 NA
ENDROOT
BRANCH   1   9
ATOM      3  F   UNL     1       8.556   6.088  12.195  0.00  0.00    +0.000 F 
ATOM      4  C   UNL     1       7.692   5.232  12.754  0.00  0.00    +0.000 A 
ATOM      5  C   UNL     1       7.007   4.332  11.949  0.00  0.00    +0.000 A 
ATOM      6  C   UNL     1       6.114   3.449  12.539  0.00  0.00    +0.000 A 
ATOM      7  F   UNL     1       5.446   2.576  11.775  0.00  0.00    +0.000 F 
ATOM      8  C   UNL     1       5.900   3.456  13.913  0.00  0.00    +0.000 A 
ATOM      9  C   UNL     1       6.598   4.370  14.711  0.00  0.00    +0.000 A 
ATOM     10  C   UNL     1       7.500   5.263  14.132  0.00  0.00    +0.000 A 
ENDBRANCH   1   9
BRANCH   2  11
ATOM     11  O   UNL     1       5.312   4.740  18.065  0.00  0.00    +0.000 OA
BRANCH  11  12
ATOM     12  C   UNL     1       4.032   4.650  18.569  0.00  0.00    +0.000 A 
ATOM     13  C   UNL     1       3.215   3.529  18.391  0.00  0.00    +0.000 A 
ATOM     14  C   UNL     1       1.932   3.517  18.934  0.00  0.00    +0.000 A 
ATOM     15 CL   UNL     1       0.922   2.143  18.701  0.00  0.00    +0.000 Cl
ATOM     16  C   UNL     1       1.460   4.605  19.664  0.00  0.00    +0.000 A 
ATOM     17  C   UNL     1       2.288   5.710  19.852  0.00  0.00    +0.000 A 
ATOM     18 CL   UNL     1       1.715   7.056  20.757  0.00  0.00    +0.000 Cl
ATOM     19  C   UNL     1       3.574   5.736  19.314  0.00  0.00    +0.000 A 
ENDBRANCH  11  12
ENDBRANCH   2  11
TORSDOF 3
ENDMDL
MODEL 7
REMARK VINA RESULT:      -7.3      4.538      6.984
REMARK  Name = 
REMARK  3 active torsions:
REMARK  status: ('A' for Active; 'I' for Inactive)
REMARK    1  A    between atoms: C_7  and  C_8
REMARK    2  A    between atoms: N_9  and  O_10
REMARK    3  A    between atoms: O_10  and  C_11
REMARK                            x       y       z     vdW  Elec       q    Type
REMARK                         _______ _______ _______ _____ _____    ______ ____
ROOT
ATOM      1  C   UNL     1       3.218   5.361  17.836  0.00  0.00    +0.000 C 
ATOM      2  N   UNL     1       3.221   6.641  18.016  0.00  0.00    +0.000 NA
ENDROOT
BRANCH   1   9
ATOM      3  F   UNL     1      -0.016   1.855  18.613  0.00  0.00    +0.000 F 
ATOM      4  C   UNL     1       0.869   2.728  19.107  0.00  0.00    +0.000 A 
ATOM      5  C   UNL     1       1.078   2.784  20.479  0.00  0.00    +0.000 A 
ATOM      6  C   UNL     1       1.999   3.693  20.981  0.00  0.00    +0.000 A 
ATOM      7  F   UNL     1       2.210   3.757  22.301  0.00  0.00    +0.000 F 
ATOM      8  C   UNL     1       2.707   4.538  20.135  0.00  0.00    +0.000 A 
ATOM      9  C   UNL     1       2.484   4.471  18.755  0.00  0.00    +0.000 A 
ATOM     10  C   UNL     1       1.563   3.562  18.234  0.00  0.00    +0.000 A 
ENDBRANCH   1   9
BRANCH   2  11
ATOM     11  O   UNL     1       3.981   7.259  17.013  0.00  0.00    +0.000 OA
BRANCH  11  12
ATOM     12  C   UNL     1       5.097   6.495  16.748  0.00  0.00    +0.000 A 
ATOM     13  C   UNL     1       5.357   5.927  15.497  0.00  0.00    +0.000 A 
ATOM     14  C   UNL     1       6.511   5.168  15.310  0.00  0.00    +0.000 A 
ATOM     15 CL   UNL     1       6.822   4.457  13.774  0.00  0.00    +0.000 Cl
ATOM     16  C   UNL     1       7.414   4.981  16.353  0.00  0.00    +0.000 A 
ATOM     17  C   UNL     1       7.156   5.567  17.591  0.00  0.00    +0.000 A 
ATOM     18 CL   UNL     1       8.269   5.345  18.884  0.00  0.00    +0.000 Cl
ATOM     19  C   UNL     1       6.005   6.328  17.793  0.00  0.00    +0.000 A 
ENDBRANCH  11  12
ENDBRANCH   2  11
TORSDOF 3
ENDMDL
MODEL 8
REMARK VINA RESULT:      -7.3      5.502      7.432
REMARK  Name = 
REMARK  3 active torsions:
REMARK  status: ('A' for Active; 'I' for Inactive)
REMARK    1  A    between atoms: C_7  and  C_8
REMARK    2  A    between atoms: N_9  and  O_10
REMARK    3  A    between atoms: O_10  and  C_11
REMARK                            x       y       z     vdW  Elec       q    Type
REMARK                         _______ _______ _______ _____ _____    ______ ____
ROOT
ATOM      1  C   UNL     1       2.165   6.278  18.518  0.00  0.00    +0.000 C 
ATOM      2  N   UNL     1       2.195   7.173  19.450  0.00  0.00    +0.000 NA
ENDROOT
BRANCH   1   9
ATOM      3  F   UNL     1       0.895   2.754  21.571  0.00  0.00    +0.000 F 
ATOM      4  C   UNL     1       1.409   3.118  20.390  0.00  0.00    +0.000 A 
ATOM      5  C   UNL     1       1.829   2.139  19.499  0.00  0.00    +0.000 A 
ATOM      6  C   UNL     1       2.360   2.528  18.277  0.00  0.00    +0.000 A 
ATOM      7  F   UNL     1       2.768   1.595  17.408  0.00  0.00    +0.000 F 
ATOM      8  C   UNL     1       2.475   3.872  17.940  0.00  0.00    +0.000 A 
ATOM      9  C   UNL     1       2.048   4.846  18.849  0.00  0.00    +0.000 A 
ATOM     10  C   UNL     1       1.511   4.472  20.081  0.00  0.00    +0.000 A 
ENDBRANCH   1   9
BRANCH   2  11
ATOM     11  O   UNL     1       2.306   8.449  18.879  0.00  0.00    +0.000 OA
BRANCH  11  12
ATOM     12  C   UNL     1       1.302   9.258  19.366  0.00  0.00    +0.000 A 
ATOM     13  C   UNL     1       0.602  10.173  18.573  0.00  0.00    +0.000 A 
ATOM     14  C   UNL     1      -0.401  10.954  19.143  0.00  0.00    +0.000 A 
ATOM     15 CL   UNL     1      -1.251  12.091  18.169  0.00  0.00    +0.000 Cl
ATOM     16  C   UNL     1      -0.723  10.823  20.491  0.00  0.00    +0.000 A 
ATOM     17  C   UNL     1      -0.034   9.895  21.269  0.00  0.00    +0.000 A 
ATOM     18 CL   UNL     1      -0.430   9.722  22.935  0.00  0.00    +0.000 Cl
ATOM     19  C   UNL     1       0.973   9.107  20.713  0.00  0.00    +0.000 A 
ENDBRANCH  11  12
ENDBRANCH   2  11
TORSDOF 3
ENDMDL
MODEL 9
REMARK VINA RESULT:      -7.3      5.411      7.190
REMARK  Name = 
REMARK  3 active torsions:
REMARK  status: ('A' for Active; 'I' for Inactive)
REMARK    1  A    between atoms: C_7  and  C_8
REMARK    2  A    between atoms: N_9  and  O_10
REMARK    3  A    between atoms: O_10  and  C_11
REMARK                            x       y       z     vdW  Elec       q    Type
REMARK                         _______ _______ _______ _____ _____    ______ ____
ROOT
ATOM      1  C   UNL     1       2.033   6.162  18.401  0.00  0.00    +0.000 C 
ATOM      2  N   UNL     1       2.417   7.068  19.239  0.00  0.00    +0.000 NA
ENDROOT
BRANCH   1   9
ATOM      3  F   UNL     1       0.875   2.643  21.505  0.00  0.00    +0.000 F 
ATOM      4  C   UNL     1       1.433   3.012  20.346  0.00  0.00    +0.000 A 
ATOM      5  C   UNL     1       1.998   2.046  19.524  0.00  0.00    +0.000 A 
ATOM      6  C   UNL     1       2.574   2.439  18.324  0.00  0.00    +0.000 A 
ATOM      7  F   UNL     1       3.121   1.518  17.522  0.00  0.00    +0.000 F 
ATOM      8  C   UNL     1       2.592   3.775  17.941  0.00  0.00    +0.000 A 
ATOM      9  C   UNL     1       2.021   4.737  18.782  0.00  0.00    +0.000 A 
ATOM     10  C   UNL     1       1.436   4.358  19.990  0.00  0.00    +0.000 A 
ENDBRANCH   1   9
BRANCH   2  11
ATOM     11  O   UNL     1       2.332   8.333  18.641  0.00  0.00    +0.000 OA
BRANCH  11  12
ATOM     12  C   UNL     1       1.364   9.078  19.279  0.00  0.00    +0.000 A 
ATOM     13  C   UNL     1       1.058   8.938  20.636  0.00  0.00    +0.000 A 
ATOM     14  C   UNL     1       0.063   9.732  21.205  0.00  0.00    +0.000 A 
ATOM     15 CL   UNL     1      -0.322   9.546  22.872  0.00  0.00    +0.000 Cl
ATOM     16  C   UNL     1      -0.618  10.673  20.439  0.00  0.00    +0.000 A 
ATOM     17  C   UNL     1      -0.293  10.819  19.091  0.00  0.00    +0.000 A 
ATOM     18 CL   UNL     1      -1.127  11.984  18.138  0.00  0.00    +0.000 Cl
ATOM     19  C   UNL     1       0.699  10.031  18.508  0.00  0.00    +0.000 A 
ENDBRANCH  11  12
ENDBRANCH   2  11
TORSDOF 3
ENDMDL
