MODEL 1
REMARK VINA RESULT:      -7.5      0.000      0.000
REMARK  Name = 
REMARK  9 active torsions:
REMARK  status: ('A' for Active; 'I' for Inactive)
REMARK    1  A    between atoms: C_1  and  O_2
REMARK    2  A    between atoms: O_2  and  C_3
REMARK    3  A    between atoms: C_3  and  C_5
REMARK    4  A    between atoms: C_5  and  O_6
REMARK    5  A    between atoms: C_8  and  C_9
REMARK    6  A    between atoms: C_9  and  C_10
REMARK    7  A    between atoms: C_10  and  C_11
REMARK    8  A    between atoms: C_10  and  C_12
REMARK    9  A    between atoms: C_15  and  C_17
REMARK                            x       y       z     vdW  Elec       q    Type
REMARK                         _______ _______ _______ _____ _____    ______ ____
ROOT
ATOM      1  C   UNL     1       6.358   5.714  16.555  0.00  0.00    +0.000 C 
ATOM      2  C   UNL     1       6.668   5.282  15.115  0.00  0.00    +0.000 C 
ATOM      3  C   UNL     1       5.720   4.134  14.978  0.00  0.00    +0.000 C 
ATOM      4  N   UNL     1       4.829   4.031  15.909  0.00  0.00    +0.000 NA
ATOM      5  N   UNL     1       5.119   4.992  16.846  0.00  0.00    +0.000 N 
ATOM      6  C   UNL     1       4.391   5.129  18.022  0.00  0.00    +0.000 C 
ATOM      7  O   UNL     1       4.604   5.996  18.867  0.00  0.00    +0.000 OA
ENDROOT
BRANCH   6   8
ATOM      8  C   UNL     1       3.306   4.132  18.283  0.00  0.00    +0.000 A 
ATOM      9  C   UNL     1       3.594   2.864  18.809  0.00  0.00    +0.000 A 
ATOM     10  C   UNL     1       2.586   1.926  18.998  0.00  0.00    +0.000 A 
ATOM     11  C   UNL     1       1.264   2.264  18.711  0.00  0.00    +0.000 A 
ATOM     12  C   UNL     1       0.957   3.543  18.248  0.00  0.00    +0.000 A 
ATOM     13  C   UNL     1       1.974   4.481  18.036  0.00  0.00    +0.000 A 
ENDBRANCH   6   8
BRANCH   1  14
ATOM     14  C   UNL     1       7.550   5.293  17.459  0.00  0.00    +0.000 C 
ATOM     15  O   UNL     1       8.133   4.218  17.317  0.00  0.00    +0.000 OA
BRANCH  14  17
ATOM     16  C   UNL     1       7.959   5.671  19.745  0.00  0.00    +0.000 C 
ATOM     17  O   UNL     1       7.846   6.204  18.425  0.00  0.00    +0.000 OA
ENDBRANCH  14  17
ENDBRANCH   1  14
BRANCH   1  18
ATOM     18  O   UNL     1       6.139   7.119  16.540  0.00  0.00    +0.000 OA
ATOM     19  H   UNL     1       6.014   7.364  15.605  0.00  0.00    +0.000 HD
ENDBRANCH   1  18
BRANCH   3  20
ATOM     20  C   UNL     1       5.774   3.166  13.837  0.00  0.00    +0.000 C 
BRANCH  20  21
ATOM     21  C   UNL     1       5.735   3.849  12.460  0.00  0.00    +0.000 C 
ATOM     22  C   UNL     1       7.060   3.739  11.700  0.00  0.00    +0.000 C 
ATOM     23  C   UNL     1       4.619   3.220  11.620  0.00  0.00    +0.000 C 
ENDBRANCH  20  21
ENDBRANCH   3  20
TORSDOF 6
ENDMDL
MODEL 2
REMARK VINA RESULT:      -7.5      0.074      1.032
REMARK  Name = 
REMARK  9 active torsions:
REMARK  status: ('A' for Active; 'I' for Inactive)
REMARK    1  A    between atoms: C_1  and  O_2
REMARK    2  A    between atoms: O_2  and  C_3
REMARK    3  A    between atoms: C_3  and  C_5
REMARK    4  A    between atoms: C_5  and  O_6
REMARK    5  A    between atoms: C_8  and  C_9
REMARK    6  A    between atoms: C_9  and  C_10
REMARK    7  A    between atoms: C_10  and  C_11
REMARK    8  A    between atoms: C_10  and  C_12
REMARK    9  A    between atoms: C_15  and  C_17
REMARK                            x       y       z     vdW  Elec       q    Type
REMARK                         _______ _______ _______ _____ _____    ______ ____
ROOT
ATOM      1  C   UNL     1       6.362   5.713  16.624  0.00  0.00    +0.000 C 
ATOM      2  C   UNL     1       6.685   5.294  15.183  0.00  0.00    +0.000 C 
ATOM      3  C   UNL     1       5.739   4.147  15.028  0.00  0.00    +0.000 C 
ATOM      4  N   UNL     1       4.840   4.035  15.949  0.00  0.00    +0.000 NA
ATOM      5  N   UNL     1       5.121   4.987  16.898  0.00  0.00    +0.000 N 
ATOM      6  C   UNL     1       4.382   5.113  18.069  0.00  0.00    +0.000 C 
ATOM      7  O   UNL     1       4.587   5.973  18.923  0.00  0.00    +0.000 OA
ENDROOT
BRANCH   6   8
ATOM      8  C   UNL     1       3.296   4.114  18.311  0.00  0.00    +0.000 A 
ATOM      9  C   UNL     1       1.963   4.391  17.973  0.00  0.00    +0.000 A 
ATOM     10  C   UNL     1       0.953   3.477  18.250  0.00  0.00    +0.000 A 
ATOM     11  C   UNL     1       1.272   2.246  18.824  0.00  0.00    +0.000 A 
ATOM     12  C   UNL     1       2.602   1.933  19.105  0.00  0.00    +0.000 A 
ATOM     13  C   UNL     1       3.617   2.862  18.847  0.00  0.00    +0.000 A 
ENDBRANCH   6   8
BRANCH   1  14
ATOM     14  C   UNL     1       7.546   5.285  17.535  0.00  0.00    +0.000 C 
ATOM     15  O   UNL     1       8.123   4.206  17.396  0.00  0.00    +0.000 OA
BRANCH  14  17
ATOM     16  C   UNL     1       7.920   5.666  19.826  0.00  0.00    +0.000 C 
ATOM     17  O   UNL     1       7.842   6.195  18.503  0.00  0.00    +0.000 OA
ENDBRANCH  14  17
ENDBRANCH   1  14
BRANCH   1  18
ATOM     18  O   UNL     1       6.141   7.118  16.620  0.00  0.00    +0.000 OA
ATOM     19  H   UNL     1       6.010   7.369  15.688  0.00  0.00    +0.000 HD
ENDBRANCH   1  18
BRANCH   3  20
ATOM     20  C   UNL     1       5.804   3.190  13.878  0.00  0.00    +0.000 C 
BRANCH  20  21
ATOM     21  C   UNL     1       5.767   3.884  12.507  0.00  0.00    +0.000 C 
ATOM     22  C   UNL     1       7.077   3.738  11.727  0.00  0.00    +0.000 C 
ATOM     23  C   UNL     1       4.619   3.299  11.679  0.00  0.00    +0.000 C 
ENDBRANCH  20  21
ENDBRANCH   3  20
TORSDOF 6
ENDMDL
MODEL 3
REMARK VINA RESULT:      -7.2      2.754      5.227
REMARK  Name = 
REMARK  9 active torsions:
REMARK  status: ('A' for Active; 'I' for Inactive)
REMARK    1  A    between atoms: C_1  and  O_2
REMARK    2  A    between atoms: O_2  and  C_3
REMARK    3  A    between atoms: C_3  and  C_5
REMARK    4  A    between atoms: C_5  and  O_6
REMARK    5  A    between atoms: C_8  and  C_9
REMARK    6  A    between atoms: C_9  and  C_10
REMARK    7  A    between atoms: C_10  and  C_11
REMARK    8  A    between atoms: C_10  and  C_12
REMARK    9  A    between atoms: C_15  and  C_17
REMARK                            x       y       z     vdW  Elec       q    Type
REMARK                         _______ _______ _______ _____ _____    ______ ____
ROOT
ATOM      1  C   UNL     1       4.517   4.412  17.257  0.00  0.00    +0.000 C 
ATOM      2  C   UNL     1       3.702   3.112  17.312  0.00  0.00    +0.000 C 
ATOM      3  C   UNL     1       2.492   3.596  18.044  0.00  0.00    +0.000 C 
ATOM      4  N   UNL     1       2.382   4.878  18.159  0.00  0.00    +0.000 NA
ATOM      5  N   UNL     1       3.533   5.424  17.646  0.00  0.00    +0.000 N 
ATOM      6  C   UNL     1       3.781   6.792  17.661  0.00  0.00    +0.000 C 
ATOM      7  O   UNL     1       4.786   7.315  17.184  0.00  0.00    +0.000 OA
ENDROOT
BRANCH   6   8
ATOM      8  C   UNL     1       2.773   7.668  18.335  0.00  0.00    +0.000 A 
ATOM      9  C   UNL     1       2.398   7.453  19.670  0.00  0.00    +0.000 A 
ATOM     10  C   UNL     1       1.422   8.239  20.271  0.00  0.00    +0.000 A 
ATOM     11  C   UNL     1       0.844   9.289  19.558  0.00  0.00    +0.000 A 
ATOM     12  C   UNL     1       1.255   9.554  18.252  0.00  0.00    +0.000 A 
ATOM     13  C   UNL     1       2.222   8.748  17.638  0.00  0.00    +0.000 A 
ENDBRANCH   6   8
BRANCH   1  14
ATOM     14  C   UNL     1       5.705   4.286  18.251  0.00  0.00    +0.000 C 
ATOM     15  O   UNL     1       5.557   3.869  19.399  0.00  0.00    +0.000 OA
BRANCH  14  17
ATOM     16  C   UNL     1       7.591   5.663  18.540  0.00  0.00    +0.000 C 
ATOM     17  O   UNL     1       6.890   4.714  17.736  0.00  0.00    +0.000 OA
ENDBRANCH  14  17
ENDBRANCH   1  14
BRANCH   1  18
ATOM     18  O   UNL     1       4.934   4.597  15.910  0.00  0.00    +0.000 OA
ATOM     19  H   UNL     1       5.900   4.725  15.941  0.00  0.00    +0.000 HD
ENDBRANCH   1  18
BRANCH   3  20
ATOM     20  C   UNL     1       1.455   2.670  18.602  0.00  0.00    +0.000 C 
BRANCH  20  21
ATOM     21  C   UNL     1       1.313   2.767  20.129  0.00  0.00    +0.000 C 
ATOM     22  C   UNL     1       2.634   2.536  20.869  0.00  0.00    +0.000 C 
ATOM     23  C   UNL     1       0.766   4.150  20.495  0.00  0.00    +0.000 C 
ENDBRANCH  20  21
ENDBRANCH   3  20
TORSDOF 6
ENDMDL
MODEL 4
REMARK VINA RESULT:      -7.2      2.719      5.229
REMARK  Name = 
REMARK  9 active torsions:
REMARK  status: ('A' for Active; 'I' for Inactive)
REMARK    1  A    between atoms: C_1  and  O_2
REMARK    2  A    between atoms: O_2  and  C_3
REMARK    3  A    between atoms: C_3  and  C_5
REMARK    4  A    between atoms: C_5  and  O_6
REMARK    5  A    between atoms: C_8  and  C_9
REMARK    6  A    between atoms: C_9  and  C_10
REMARK    7  A    between atoms: C_10  and  C_11
REMARK    8  A    between atoms: C_10  and  C_12
REMARK    9  A    between atoms: C_15  and  C_17
REMARK                            x       y       z     vdW  Elec       q    Type
REMARK                         _______ _______ _______ _____ _____    ______ ____
ROOT
ATOM      1  C   UNL     1       4.585   4.482  17.202  0.00  0.00    +0.000 C 
ATOM      2  C   UNL     1       3.786   3.171  17.213  0.00  0.00    +0.000 C 
ATOM      3  C   UNL     1       2.559   3.621  17.938  0.00  0.00    +0.000 C 
ATOM      4  N   UNL     1       2.430   4.899  18.082  0.00  0.00    +0.000 NA
ATOM      5  N   UNL     1       3.582   5.471  17.600  0.00  0.00    +0.000 N 
ATOM      6  C   UNL     1       3.811   6.841  17.652  0.00  0.00    +0.000 C 
ATOM      7  O   UNL     1       4.816   7.389  17.203  0.00  0.00    +0.000 OA
ENDROOT
BRANCH   6   8
ATOM      8  C   UNL     1       2.782   7.688  18.331  0.00  0.00    +0.000 A 
ATOM      9  C   UNL     1       2.117   8.716  17.645  0.00  0.00    +0.000 A 
ATOM     10  C   UNL     1       1.201   9.532  18.299  0.00  0.00    +0.000 A 
ATOM     11  C   UNL     1       0.898   9.296  19.640  0.00  0.00    +0.000 A 
ATOM     12  C   UNL     1       1.504   8.236  20.315  0.00  0.00    +0.000 A 
ATOM     13  C   UNL     1       2.443   7.428  19.664  0.00  0.00    +0.000 A 
ENDBRANCH   6   8
BRANCH   1  14
ATOM     14  C   UNL     1       5.759   4.348  18.211  0.00  0.00    +0.000 C 
ATOM     15  O   UNL     1       5.594   3.929  19.356  0.00  0.00    +0.000 OA
BRANCH  14  17
ATOM     16  C   UNL     1       7.634   5.736  18.512  0.00  0.00    +0.000 C 
ATOM     17  O   UNL     1       6.953   4.770  17.713  0.00  0.00    +0.000 OA
ENDBRANCH  14  17
ENDBRANCH   1  14
BRANCH   1  18
ATOM     18  O   UNL     1       5.020   4.705  15.867  0.00  0.00    +0.000 OA
ATOM     19  H   UNL     1       4.250   5.064  15.388  0.00  0.00    +0.000 HD
ENDBRANCH   1  18
BRANCH   3  20
ATOM     20  C   UNL     1       1.526   2.669  18.457  0.00  0.00    +0.000 C 
BRANCH  20  21
ATOM     21  C   UNL     1       1.431   2.653  19.991  0.00  0.00    +0.000 C 
ATOM     22  C   UNL     1       2.798   2.541  20.674  0.00  0.00    +0.000 C 
ATOM     23  C   UNL     1       0.735   3.933  20.463  0.00  0.00    +0.000 C 
ENDBRANCH  20  21
ENDBRANCH   3  20
TORSDOF 6
ENDMDL
MODEL 5
REMARK VINA RESULT:      -7.0      2.965      6.446
REMARK  Name = 
REMARK  9 active torsions:
REMARK  status: ('A' for Active; 'I' for Inactive)
REMARK    1  A    between atoms: C_1  and  O_2
REMARK    2  A    between atoms: O_2  and  C_3
REMARK    3  A    between atoms: C_3  and  C_5
REMARK    4  A    between atoms: C_5  and  O_6
REMARK    5  A    between atoms: C_8  and  C_9
REMARK    6  A    between atoms: C_9  and  C_10
REMARK    7  A    between atoms: C_10  and  C_11
REMARK    8  A    between atoms: C_10  and  C_12
REMARK    9  A    between atoms: C_15  and  C_17
REMARK                            x       y       z     vdW  Elec       q    Type
REMARK                         _______ _______ _______ _____ _____    ______ ____
ROOT
ATOM      1  C   UNL     1       2.751   3.593  17.926  0.00  0.00    +0.000 C 
ATOM      2  C   UNL     1       1.613   4.223  18.741  0.00  0.00    +0.000 C 
ATOM      3  C   UNL     1       2.348   5.355  19.383  0.00  0.00    +0.000 C 
ATOM      4  N   UNL     1       3.522   5.603  18.903  0.00  0.00    +0.000 NA
ATOM      5  N   UNL     1       3.791   4.622  17.980  0.00  0.00    +0.000 N 
ATOM      6  C   UNL     1       5.003   4.546  17.305  0.00  0.00    +0.000 C 
ATOM      7  O   UNL     1       5.265   3.700  16.452  0.00  0.00    +0.000 OA
ENDROOT
BRANCH   6   8
ATOM      8  C   UNL     1       6.061   5.538  17.672  0.00  0.00    +0.000 A 
ATOM      9  C   UNL     1       6.154   6.778  17.023  0.00  0.00    +0.000 A 
ATOM     10  C   UNL     1       7.172   7.671  17.334  0.00  0.00    +0.000 A 
ATOM     11  C   UNL     1       8.085   7.355  18.341  0.00  0.00    +0.000 A 
ATOM     12  C   UNL     1       7.965   6.153  19.038  0.00  0.00    +0.000 A 
ATOM     13  C   UNL     1       6.953   5.244  18.709  0.00  0.00    +0.000 A 
ENDBRANCH   6   8
BRANCH   1  14
ATOM     14  C   UNL     1       3.162   2.259  18.610  0.00  0.00    +0.000 C 
ATOM     15  O   UNL     1       3.493   1.266  17.962  0.00  0.00    +0.000 OA
BRANCH  14  17
ATOM     16  C   UNL     1       4.330   2.239  20.651  0.00  0.00    +0.000 C 
ATOM     17  O   UNL     1       3.079   2.297  19.967  0.00  0.00    +0.000 OA
ENDBRANCH  14  17
ENDBRANCH   1  14
BRANCH   1  18
ATOM     18  O   UNL     1       2.277   3.416  16.598  0.00  0.00    +0.000 OA
ATOM     19  H   UNL     1       2.605   4.180  16.089  0.00  0.00    +0.000 HD
ENDBRANCH   1  18
BRANCH   3  20
ATOM     20  C   UNL     1       1.772   6.170  20.500  0.00  0.00    +0.000 C 
BRANCH  20  21
ATOM     21  C   UNL     1       1.994   7.681  20.325  0.00  0.00    +0.000 C 
ATOM     22  C   UNL     1       1.783   8.154  18.883  0.00  0.00    +0.000 C 
ATOM     23  C   UNL     1       1.035   8.438  21.248  0.00  0.00    +0.000 C 
ENDBRANCH  20  21
ENDBRANCH   3  20
TORSDOF 6
ENDMDL
MODEL 6
REMARK VINA RESULT:      -7.0      0.970      1.467
REMARK  Name = 
REMARK  9 active torsions:
REMARK  status: ('A' for Active; 'I' for Inactive)
REMARK    1  A    between atoms: C_1  and  O_2
REMARK    2  A    between atoms: O_2  and  C_3
REMARK    3  A    between atoms: C_3  and  C_5
REMARK    4  A    between atoms: C_5  and  O_6
REMARK    5  A    between atoms: C_8  and  C_9
REMARK    6  A    between atoms: C_9  and  C_10
REMARK    7  A    between atoms: C_10  and  C_11
REMARK    8  A    between atoms: C_10  and  C_12
REMARK    9  A    between atoms: C_15  and  C_17
REMARK                            x       y       z     vdW  Elec       q    Type
REMARK                         _______ _______ _______ _____ _____    ______ ____
ROOT
ATOM      1  C   UNL     1       5.719   6.182  16.159  0.00  0.00    +0.000 C 
ATOM      2  C   UNL     1       6.135   5.615  14.795  0.00  0.00    +0.000 C 
ATOM      3  C   UNL     1       5.530   4.251  14.886  0.00  0.00    +0.000 C 
ATOM      4  N   UNL     1       4.699   4.071  15.859  0.00  0.00    +0.000 NA
ATOM      5  N   UNL     1       4.720   5.216  16.617  0.00  0.00    +0.000 N 
ATOM      6  C   UNL     1       3.981   5.348  17.787  0.00  0.00    +0.000 C 
ATOM      7  O   UNL     1       3.953   6.369  18.472  0.00  0.00    +0.000 OA
ENDROOT
BRANCH   6   8
ATOM      8  C   UNL     1       3.204   4.158  18.251  0.00  0.00    +0.000 A 
ATOM      9  C   UNL     1       1.828   4.043  17.999  0.00  0.00    +0.000 A 
ATOM     10  C   UNL     1       1.104   2.958  18.481  0.00  0.00    +0.000 A 
ATOM     11  C   UNL     1       1.760   1.944  19.179  0.00  0.00    +0.000 A 
ATOM     12  C   UNL     1       3.138   2.015  19.380  0.00  0.00    +0.000 A 
ATOM     13  C   UNL     1       3.864   3.118  18.915  0.00  0.00    +0.000 A 
ENDBRANCH   6   8
BRANCH   1  14
ATOM     14  C   UNL     1       6.980   6.248  17.066  0.00  0.00    +0.000 C 
ATOM     15  O   UNL     1       7.170   5.450  17.984  0.00  0.00    +0.000 OA
BRANCH  14  17
ATOM     16  C   UNL     1       7.937   8.274  17.784  0.00  0.00    +0.000 C 
ATOM     17  O   UNL     1       7.811   7.282  16.764  0.00  0.00    +0.000 OA
ENDBRANCH  14  17
ENDBRANCH   1  14
BRANCH   1  18
ATOM     18  O   UNL     1       5.131   7.456  15.930  0.00  0.00    +0.000 OA
ATOM     19  H   UNL     1       5.224   7.951  16.764  0.00  0.00    +0.000 HD
ENDBRANCH   1  18
BRANCH   3  20
ATOM     20  C   UNL     1       5.842   3.156  13.912  0.00  0.00    +0.000 C 
BRANCH  20  21
ATOM     21  C   UNL     1       5.916   3.642  12.456  0.00  0.00    +0.000 C 
ATOM     22  C   UNL     1       7.100   3.047  11.687  0.00  0.00    +0.000 C 
ATOM     23  C   UNL     1       4.614   3.276  11.738  0.00  0.00    +0.000 C 
ENDBRANCH  20  21
ENDBRANCH   3  20
TORSDOF 6
ENDMDL
MODEL 7
REMARK VINA RESULT:      -6.9      0.910      1.517
REMARK  Name = 
REMARK  9 active torsions:
REMARK  status: ('A' for Active; 'I' for Inactive)
REMARK    1  A    between atoms: C_1  and  O_2
REMARK    2  A    between atoms: O_2  and  C_3
REMARK    3  A    between atoms: C_3  and  C_5
REMARK    4  A    between atoms: C_5  and  O_6
REMARK    5  A    between atoms: C_8  and  C_9
REMARK    6  A    between atoms: C_9  and  C_10
REMARK    7  A    between atoms: C_10  and  C_11
REMARK    8  A    between atoms: C_10  and  C_12
REMARK    9  A    between atoms: C_15  and  C_17
REMARK                            x       y       z     vdW  Elec       q    Type
REMARK                         _______ _______ _______ _____ _____    ______ ____
ROOT
ATOM      1  C   UNL     1       5.766   6.136  15.824  0.00  0.00    +0.000 C 
ATOM      2  C   UNL     1       6.179   5.497  14.491  0.00  0.00    +0.000 C 
ATOM      3  C   UNL     1       5.605   4.129  14.670  0.00  0.00    +0.000 C 
ATOM      4  N   UNL     1       4.789   3.989  15.662  0.00  0.00    +0.000 NA
ATOM      5  N   UNL     1       4.793   5.178  16.350  0.00  0.00    +0.000 N 
ATOM      6  C   UNL     1       4.063   5.364  17.519  0.00  0.00    +0.000 C 
ATOM      7  O   UNL     1       4.020   6.423  18.143  0.00  0.00    +0.000 OA
ENDROOT
BRANCH   6   8
ATOM      8  C   UNL     1       3.317   4.187  18.062  0.00  0.00    +0.000 A 
ATOM      9  C   UNL     1       1.945   4.021  17.823  0.00  0.00    +0.000 A 
ATOM     10  C   UNL     1       1.249   2.952  18.376  0.00  0.00    +0.000 A 
ATOM     11  C   UNL     1       1.932   2.002  19.136  0.00  0.00    +0.000 A 
ATOM     12  C   UNL     1       3.308   2.121  19.328  0.00  0.00    +0.000 A 
ATOM     13  C   UNL     1       4.005   3.209  18.790  0.00  0.00    +0.000 A 
ENDBRANCH   6   8
BRANCH   1  14
ATOM     14  C   UNL     1       7.035   6.283  16.711  0.00  0.00    +0.000 C 
ATOM     15  O   UNL     1       7.430   7.377  17.112  0.00  0.00    +0.000 OA
BRANCH  14  17
ATOM     16  C   UNL     1       7.693   4.704  18.325  0.00  0.00    +0.000 C 
ATOM     17  O   UNL     1       7.664   5.102  16.955  0.00  0.00    +0.000 OA
ENDBRANCH  14  17
ENDBRANCH   1  14
BRANCH   1  18
ATOM     18  O   UNL     1       5.147   7.381  15.527  0.00  0.00    +0.000 OA
ATOM     19  H   UNL     1       4.870   7.757  16.383  0.00  0.00    +0.000 HD
ENDBRANCH   1  18
BRANCH   3  20
ATOM     20  C   UNL     1       5.931   2.985  13.760  0.00  0.00    +0.000 C 
BRANCH  20  21
ATOM     21  C   UNL     1       5.960   3.381  12.274  0.00  0.00    +0.000 C 
ATOM     22  C   UNL     1       6.896   2.501  11.439  0.00  0.00    +0.000 C 
ATOM     23  C   UNL     1       4.542   3.291  11.704  0.00  0.00    +0.000 C 
ENDBRANCH  20  21
ENDBRANCH   3  20
TORSDOF 6
ENDMDL
MODEL 8
REMARK VINA RESULT:      -6.9      2.989      6.413
REMARK  Name = 
REMARK  9 active torsions:
REMARK  status: ('A' for Active; 'I' for Inactive)
REMARK    1  A    between atoms: C_1  and  O_2
REMARK    2  A    between atoms: O_2  and  C_3
REMARK    3  A    between atoms: C_3  and  C_5
REMARK    4  A    between atoms: C_5  and  O_6
REMARK    5  A    between atoms: C_8  and  C_9
REMARK    6  A    between atoms: C_9  and  C_10
REMARK    7  A    between atoms: C_10  and  C_11
REMARK    8  A    between atoms: C_10  and  C_12
REMARK    9  A    between atoms: C_15  and  C_17
REMARK                            x       y       z     vdW  Elec       q    Type
REMARK                         _______ _______ _______ _____ _____    ______ ____
ROOT
ATOM      1  C   UNL     1       2.632   3.610  17.975  0.00  0.00    +0.000 C 
ATOM      2  C   UNL     1       1.514   4.304  18.764  0.00  0.00    +0.000 C 
ATOM      3  C   UNL     1       2.288   5.426  19.379  0.00  0.00    +0.000 C 
ATOM      4  N   UNL     1       3.473   5.616  18.900  0.00  0.00    +0.000 NA
ATOM      5  N   UNL     1       3.709   4.600  18.007  0.00  0.00    +0.000 N 
ATOM      6  C   UNL     1       4.922   4.460  17.342  0.00  0.00    +0.000 C 
ATOM      7  O   UNL     1       5.156   3.581  16.515  0.00  0.00    +0.000 OA
ENDROOT
BRANCH   6   8
ATOM      8  C   UNL     1       6.015   5.421  17.689  0.00  0.00    +0.000 A 
ATOM      9  C   UNL     1       6.952   5.126  18.691  0.00  0.00    +0.000 A 
ATOM     10  C   UNL     1       7.931   6.048  19.042  0.00  0.00    +0.000 A 
ATOM     11  C   UNL     1       8.019   7.260  18.357  0.00  0.00    +0.000 A 
ATOM     12  C   UNL     1       7.133   7.537  17.316  0.00  0.00    +0.000 A 
ATOM     13  C   UNL     1       6.133   6.619  16.976  0.00  0.00    +0.000 A 
ENDBRANCH   6   8
BRANCH   1  14
ATOM     14  C   UNL     1       2.988   2.281  18.698  0.00  0.00    +0.000 C 
ATOM     15  O   UNL     1       3.559   1.355  18.122  0.00  0.00    +0.000 OA
BRANCH  14  17
ATOM     16  C   UNL     1       3.612   2.381  20.964  0.00  0.00    +0.000 C 
ATOM     17  O   UNL     1       2.574   2.241  19.993  0.00  0.00    +0.000 OA
ENDBRANCH  14  17
ENDBRANCH   1  14
BRANCH   1  18
ATOM     18  O   UNL     1       2.159   3.414  16.648  0.00  0.00    +0.000 OA
ATOM     19  H   UNL     1       1.803   4.273  16.358  0.00  0.00    +0.000 HD
ENDBRANCH   1  18
BRANCH   3  20
ATOM     20  C   UNL     1       1.737   6.293  20.468  0.00  0.00    +0.000 C 
BRANCH  20  21
ATOM     21  C   UNL     1       2.007   7.790  20.248  0.00  0.00    +0.000 C 
ATOM     22  C   UNL     1       1.704   8.249  18.818  0.00  0.00    +0.000 C 
ATOM     23  C   UNL     1       1.157   8.603  21.229  0.00  0.00    +0.000 C 
ENDBRANCH  20  21
ENDBRANCH   3  20
TORSDOF 6
ENDMDL
MODEL 9
REMARK VINA RESULT:      -6.9      0.819      1.022
REMARK  Name = 
REMARK  9 active torsions:
REMARK  status: ('A' for Active; 'I' for Inactive)
REMARK    1  A    between atoms: C_1  and  O_2
REMARK    2  A    between atoms: O_2  and  C_3
REMARK    3  A    between atoms: C_3  and  C_5
REMARK    4  A    between atoms: C_5  and  O_6
REMARK    5  A    between atoms: C_8  and  C_9
REMARK    6  A    between atoms: C_9  and  C_10
REMARK    7  A    between atoms: C_10  and  C_11
REMARK    8  A    between atoms: C_10  and  C_12
REMARK    9  A    between atoms: C_15  and  C_17
REMARK                            x       y       z     vdW  Elec       q    Type
REMARK                         _______ _______ _______ _____ _____    ______ ____
ROOT
ATOM      1  C   UNL     1       5.671   6.247  16.075  0.00  0.00    +0.000 C 
ATOM      2  C   UNL     1       6.137   5.651  14.739  0.00  0.00    +0.000 C 
ATOM      3  C   UNL     1       5.595   4.264  14.871  0.00  0.00    +0.000 C 
ATOM      4  N   UNL     1       4.756   4.080  15.837  0.00  0.00    +0.000 NA
ATOM      5  N   UNL     1       4.709   5.252  16.552  0.00  0.00    +0.000 N 
ATOM      6  C   UNL     1       3.944   5.392  17.704  0.00  0.00    +0.000 C 
ATOM      7  O   UNL     1       3.857   6.434  18.350  0.00  0.00    +0.000 OA
ENDROOT
BRANCH   6   8
ATOM      8  C   UNL     1       3.216   4.183  18.200  0.00  0.00    +0.000 A 
ATOM      9  C   UNL     1       3.888   3.156  18.880  0.00  0.00    +0.000 A 
ATOM     10  C   UNL     1       3.212   2.013  19.290  0.00  0.00    +0.000 A 
ATOM     11  C   UNL     1       1.839   1.905  19.070  0.00  0.00    +0.000 A 
ATOM     12  C   UNL     1       1.148   2.947  18.453  0.00  0.00    +0.000 A 
ATOM     13  C   UNL     1       1.831   4.089  18.020  0.00  0.00    +0.000 A 
ENDBRANCH   6   8
BRANCH   1  14
ATOM     14  C   UNL     1       6.911   6.406  16.998  0.00  0.00    +0.000 C 
ATOM     15  O   UNL     1       7.616   7.415  16.981  0.00  0.00    +0.000 OA
BRANCH  14  17
ATOM     16  C   UNL     1       7.449   5.609  19.145  0.00  0.00    +0.000 C 
ATOM     17  O   UNL     1       7.147   5.318  17.781  0.00  0.00    +0.000 OA
ENDBRANCH  14  17
ENDBRANCH   1  14
BRANCH   1  18
ATOM     18  O   UNL     1       5.027   7.482  15.789  0.00  0.00    +0.000 OA
ATOM     19  H   UNL     1       4.129   7.255  15.483  0.00  0.00    +0.000 HD
ENDBRANCH   1  18
BRANCH   3  20
ATOM     20  C   UNL     1       5.975   3.151  13.944  0.00  0.00    +0.000 C 
BRANCH  20  21
ATOM     21  C   UNL     1       5.992   3.571  12.466  0.00  0.00    +0.000 C 
ATOM     22  C   UNL     1       7.048   2.824  11.644  0.00  0.00    +0.000 C 
ATOM     23  C   UNL     1       4.610   3.320  11.857  0.00  0.00    +0.000 C 
ENDBRANCH  20  21
ENDBRANCH   3  20
TORSDOF 6
ENDMDL
