MODEL 1
REMARK VINA RESULT:      -7.8      0.000      0.000
REMARK  Name = 
REMARK  7 active torsions:
REMARK  status: ('A' for Active; 'I' for Inactive)
REMARK    1  A    between atoms: O_1  and  C_2
REMARK    2  A    between atoms: C_2  and  C_3
REMARK    3  A    between atoms: C_2  and  C_14
REMARK    4  A    between atoms: C_3  and  O_4
REMARK    5  A    between atoms: O_4  and  C_5
REMARK    6  A    between atoms: C_14  and  N_15
REMARK    7  A    between atoms: N_18  and  C_19
REMARK                            x       y       z     vdW  Elec       q    Type
REMARK                         _______ _______ _______ _____ _____    ______ ____
ROOT
ATOM      1  C   UNL     1       1.428   4.155  20.073  0.00  0.00    +0.000 C 
ENDROOT
BRANCH   1   2
ATOM      2  O   UNL     1       0.134   3.622  20.197  0.00  0.00    +0.000 OA
ATOM      3  H   UNL     1       0.231   2.634  20.239  0.00  0.00    +0.000 HD
ENDBRANCH   1   2
BRANCH   1   4
ATOM      4  C   UNL     1       1.530   5.480  20.827  0.00  0.00    +0.000 C 
BRANCH   4   5
ATOM      5  O   UNL     1       2.303   6.405  20.160  0.00  0.00    +0.000 OA
BRANCH   5   6
ATOM      6  C   UNL     1       1.899   7.674  19.875  0.00  0.00    +0.000 A 
ATOM      7  C   UNL     1       1.316   8.539  20.842  0.00  0.00    +0.000 A 
ATOM      8  F   UNL     1       1.129   8.171  22.134  0.00  0.00    +0.000 F 
ATOM      9  C   UNL     1       0.906   9.822  20.481  0.00  0.00    +0.000 A 
ATOM     10  C   UNL     1       1.063  10.269  19.172  0.00  0.00    +0.000 A 
ATOM     11 BR   UNL     1       0.481  12.024  18.698  0.00  0.00    +0.000 Br
ATOM     12  C   UNL     1       1.645   9.433  18.213  0.00  0.00    +0.000 A 
ATOM     13  C   UNL     1       2.059   8.143  18.562  0.00  0.00    +0.000 A 
ATOM     14  F   UNL     1       2.617   7.344  17.618  0.00  0.00    +0.000 F 
ENDBRANCH   5   6
ENDBRANCH   4   5
ENDBRANCH   1   4
BRANCH   1  15
ATOM     15  C   UNL     1       2.440   3.160  20.681  0.00  0.00    +0.000 C 
BRANCH  15  16
ATOM     16  N   UNL     1       3.142   2.344  19.654  0.00  0.00    +0.000 NA
ATOM     17  C   UNL     1       2.619   2.590  18.291  0.00  0.00    +0.000 C 
ATOM     18  C   UNL     1       3.048   3.973  17.758  0.00  0.00    +0.000 C 
ATOM     19  N   UNL     1       4.497   4.081  17.872  0.00  0.00    +0.000 N 
ATOM     20  C   UNL     1       5.055   3.845  19.197  0.00  0.00    +0.000 C 
ATOM     21  C   UNL     1       4.620   2.459  19.660  0.00  0.00    +0.000 C 
BRANCH  19  22
ATOM     22  C   UNL     1       5.337   4.343  16.735  0.00  0.00    +0.000 A 
ATOM     23  C   UNL     1       4.845   4.175  15.426  0.00  0.00    +0.000 A 
ATOM     24  C   UNL     1       5.653   4.454  14.318  0.00  0.00    +0.000 A 
ATOM     25  C   UNL     1       6.972   4.885  14.500  0.00  0.00    +0.000 A 
ATOM     26  F   UNL     1       7.752   5.148  13.424  0.00  0.00    +0.000 F 
ATOM     27  C   UNL     1       7.476   5.044  15.789  0.00  0.00    +0.000 A 
ATOM     28  C   UNL     1       6.669   4.783  16.897  0.00  0.00    +0.000 A 
ENDBRANCH  19  22
ENDBRANCH  15  16
ENDBRANCH   1  15
TORSDOF 7
ENDMDL
MODEL 2
REMARK VINA RESULT:      -7.7      5.639      7.415
REMARK  Name = 
REMARK  7 active torsions:
REMARK  status: ('A' for Active; 'I' for Inactive)
REMARK    1  A    between atoms: O_1  and  C_2
REMARK    2  A    between atoms: C_2  and  C_3
REMARK    3  A    between atoms: C_2  and  C_14
REMARK    4  A    between atoms: C_3  and  O_4
REMARK    5  A    between atoms: O_4  and  C_5
REMARK    6  A    between atoms: C_14  and  N_15
REMARK    7  A    between atoms: N_18  and  C_19
REMARK                            x       y       z     vdW  Elec       q    Type
REMARK                         _______ _______ _______ _____ _____    ______ ____
ROOT
ATOM      1  C   UNL     1       7.712   7.721  17.943  0.00  0.00    +0.000 C 
ENDROOT
BRANCH   1   2
ATOM      2  O   UNL     1       8.464   7.093  18.951  0.00  0.00    +0.000 OA
ATOM      3  H   UNL     1       8.031   6.217  19.130  0.00  0.00    +0.000 HD
ENDBRANCH   1   2
BRANCH   1   4
ATOM      4  C   UNL     1       8.415   8.993  17.472  0.00  0.00    +0.000 C 
BRANCH   4   5
ATOM      5  O   UNL     1       8.053  10.097  18.214  0.00  0.00    +0.000 OA
BRANCH   5   6
ATOM      6  C   UNL     1       8.837  11.200  18.371  0.00  0.00    +0.000 A 
ATOM      7  C   UNL     1       8.642  12.402  17.635  0.00  0.00    +0.000 A 
ATOM      8  F   UNL     1       7.649  12.549  16.725  0.00  0.00    +0.000 F 
ATOM      9  C   UNL     1       9.493  13.489  17.830  0.00  0.00    +0.000 A 
ATOM     10  C   UNL     1      10.538  13.411  18.747  0.00  0.00    +0.000 A 
ATOM     11 BR   UNL     1      11.697  14.909  18.986  0.00  0.00    +0.000 Br
ATOM     12  C   UNL     1      10.733  12.240  19.485  0.00  0.00    +0.000 A 
ATOM     13  C   UNL     1       9.888  11.141  19.298  0.00  0.00    +0.000 A 
ATOM     14  F   UNL     1      10.096  10.010  20.020  0.00  0.00    +0.000 F 
ENDBRANCH   5   6
ENDBRANCH   4   5
ENDBRANCH   1   4
BRANCH   1  15
ATOM     15  C   UNL     1       7.576   6.757  16.745  0.00  0.00    +0.000 C 
BRANCH  15  16
ATOM     16  N   UNL     1       6.190   6.688  16.208  0.00  0.00    +0.000 NA
ATOM     17  C   UNL     1       5.900   5.380  15.575  0.00  0.00    +0.000 C 
ATOM     18  C   UNL     1       5.752   4.259  16.624  0.00  0.00    +0.000 C 
ATOM     19  N   UNL     1       4.763   4.680  17.610  0.00  0.00    +0.000 N 
ATOM     20  C   UNL     1       5.009   5.962  18.257  0.00  0.00    +0.000 C 
ATOM     21  C   UNL     1       5.121   7.031  17.176  0.00  0.00    +0.000 C 
BRANCH  19  22
ATOM     22  C   UNL     1       3.581   3.910  17.885  0.00  0.00    +0.000 A 
ATOM     23  C   UNL     1       3.640   2.504  17.953  0.00  0.00    +0.000 A 
ATOM     24  C   UNL     1       2.496   1.755  18.246  0.00  0.00    +0.000 A 
ATOM     25  C   UNL     1       1.270   2.395  18.456  0.00  0.00    +0.000 A 
ATOM     26  F   UNL     1       0.163   1.664  18.733  0.00  0.00    +0.000 F 
ATOM     27  C   UNL     1       1.193   3.784  18.380  0.00  0.00    +0.000 A 
ATOM     28  C   UNL     1       2.335   4.537  18.104  0.00  0.00    +0.000 A 
ENDBRANCH  19  22
ENDBRANCH  15  16
ENDBRANCH   1  15
TORSDOF 7
ENDMDL
MODEL 3
REMARK VINA RESULT:      -7.5      1.365      1.834
REMARK  Name = 
REMARK  7 active torsions:
REMARK  status: ('A' for Active; 'I' for Inactive)
REMARK    1  A    between atoms: O_1  and  C_2
REMARK    2  A    between atoms: C_2  and  C_3
REMARK    3  A    between atoms: C_2  and  C_14
REMARK    4  A    between atoms: C_3  and  O_4
REMARK    5  A    between atoms: O_4  and  C_5
REMARK    6  A    between atoms: C_14  and  N_15
REMARK    7  A    between atoms: N_18  and  C_19
REMARK                            x       y       z     vdW  Elec       q    Type
REMARK                         _______ _______ _______ _____ _____    ______ ____
ROOT
ATOM      1  C   UNL     1       2.756   4.503  19.890  0.00  0.00    +0.000 C 
ENDROOT
BRANCH   1   2
ATOM      2  O   UNL     1       2.875   3.671  21.016  0.00  0.00    +0.000 OA
ATOM      3  H   UNL     1       3.459   4.144  21.665  0.00  0.00    +0.000 HD
ENDBRANCH   1   2
BRANCH   1   4
ATOM      4  C   UNL     1       1.780   5.643  20.175  0.00  0.00    +0.000 C 
BRANCH   4   5
ATOM      5  O   UNL     1       2.410   6.867  20.243  0.00  0.00    +0.000 OA
BRANCH   5   6
ATOM      6  C   UNL     1       1.809   8.052  19.938  0.00  0.00    +0.000 A 
ATOM      7  C   UNL     1       1.137   8.853  20.902  0.00  0.00    +0.000 A 
ATOM      8  F   UNL     1       1.052   8.507  22.209  0.00  0.00    +0.000 F 
ATOM      9  C   UNL     1       0.527  10.047  20.519  0.00  0.00    +0.000 A 
ATOM     10  C   UNL     1       0.570  10.467  19.192  0.00  0.00    +0.000 A 
ATOM     11 BR   UNL     1      -0.286  12.098  18.691  0.00  0.00    +0.000 Br
ATOM     12  C   UNL     1       1.237   9.694  18.237  0.00  0.00    +0.000 A 
ATOM     13  C   UNL     1       1.853   8.494  18.607  0.00  0.00    +0.000 A 
ATOM     14  F   UNL     1       2.492   7.755  17.665  0.00  0.00    +0.000 F 
ENDBRANCH   5   6
ENDBRANCH   4   5
ENDBRANCH   1   4
BRANCH   1  15
ATOM     15  C   UNL     1       4.140   5.105  19.563  0.00  0.00    +0.000 C 
BRANCH  15  16
ATOM     16  N   UNL     1       5.070   4.123  18.943  0.00  0.00    +0.000 NA
ATOM     17  C   UNL     1       4.413   3.323  17.883  0.00  0.00    +0.000 C 
ATOM     18  C   UNL     1       4.151   4.162  16.616  0.00  0.00    +0.000 C 
ATOM     19  N   UNL     1       5.405   4.782  16.207  0.00  0.00    +0.000 N 
ATOM     20  C   UNL     1       6.087   5.578  17.220  0.00  0.00    +0.000 C 
ATOM     21  C   UNL     1       6.341   4.693  18.435  0.00  0.00    +0.000 C 
BRANCH  19  22
ATOM     22  C   UNL     1       5.974   4.573  14.904  0.00  0.00    +0.000 A 
ATOM     23  C   UNL     1       5.345   3.720  13.975  0.00  0.00    +0.000 A 
ATOM     24  C   UNL     1       5.883   3.535  12.697  0.00  0.00    +0.000 A 
ATOM     25  C   UNL     1       7.069   4.182  12.332  0.00  0.00    +0.000 A 
ATOM     26  F   UNL     1       7.589   3.994  11.096  0.00  0.00    +0.000 F 
ATOM     27  C   UNL     1       7.709   5.020  13.243  0.00  0.00    +0.000 A 
ATOM     28  C   UNL     1       7.167   5.220  14.514  0.00  0.00    +0.000 A 
ENDBRANCH  19  22
ENDBRANCH  15  16
ENDBRANCH   1  15
TORSDOF 7
ENDMDL
MODEL 4
REMARK VINA RESULT:      -7.5      1.402      2.617
REMARK  Name = 
REMARK  7 active torsions:
REMARK  status: ('A' for Active; 'I' for Inactive)
REMARK    1  A    between atoms: O_1  and  C_2
REMARK    2  A    between atoms: C_2  and  C_3
REMARK    3  A    between atoms: C_2  and  C_14
REMARK    4  A    between atoms: C_3  and  O_4
REMARK    5  A    between atoms: O_4  and  C_5
REMARK    6  A    between atoms: C_14  and  N_15
REMARK    7  A    between atoms: N_18  and  C_19
REMARK                            x       y       z     vdW  Elec       q    Type
REMARK                         _______ _______ _______ _____ _____    ______ ____
ROOT
ATOM      1  C   UNL     1       2.893   4.511  19.723  0.00  0.00    +0.000 C 
ENDROOT
BRANCH   1   2
ATOM      2  O   UNL     1       2.842   3.598  20.790  0.00  0.00    +0.000 OA
ATOM      3  H   UNL     1       3.781   3.370  21.018  0.00  0.00    +0.000 HD
ENDBRANCH   1   2
BRANCH   1   4
ATOM      4  C   UNL     1       1.883   5.637  19.940  0.00  0.00    +0.000 C 
BRANCH   4   5
ATOM      5  O   UNL     1       2.485   6.874  20.018  0.00  0.00    +0.000 OA
BRANCH   5   6
ATOM      6  C   UNL     1       1.873   8.043  19.679  0.00  0.00    +0.000 A 
ATOM      7  C   UNL     1       1.928   8.597  18.370  0.00  0.00    +0.000 A 
ATOM      8  F   UNL     1       2.587   7.997  17.349  0.00  0.00    +0.000 F 
ATOM      9  C   UNL     1       1.295   9.808  18.093  0.00  0.00    +0.000 A 
ATOM     10  C   UNL     1       0.602  10.485  19.093  0.00  0.00    +0.000 A 
ATOM     11 BR   UNL     1      -0.245  12.148  18.692  0.00  0.00    +0.000 Br
ATOM     12  C   UNL     1       0.529   9.946  20.381  0.00  0.00    +0.000 A 
ATOM     13  C   UNL     1       1.161   8.732  20.672  0.00  0.00    +0.000 A 
ATOM     14  F   UNL     1       1.084   8.226  21.929  0.00  0.00    +0.000 F 
ENDBRANCH   5   6
ENDBRANCH   4   5
ENDBRANCH   1   4
BRANCH   1  15
ATOM     15  C   UNL     1       4.309   5.123  19.653  0.00  0.00    +0.000 C 
BRANCH  15  16
ATOM     16  N   UNL     1       5.304   4.214  19.022  0.00  0.00    +0.000 NA
ATOM     17  C   UNL     1       4.686   3.319  18.017  0.00  0.00    +0.000 C 
ATOM     18  C   UNL     1       4.293   4.084  16.737  0.00  0.00    +0.000 C 
ATOM     19  N   UNL     1       5.463   4.808  16.256  0.00  0.00    +0.000 N 
ATOM     20  C   UNL     1       6.104   5.700  17.213  0.00  0.00    +0.000 C 
ATOM     21  C   UNL     1       6.492   4.886  18.443  0.00  0.00    +0.000 C 
BRANCH  19  22
ATOM     22  C   UNL     1       5.996   4.609  14.936  0.00  0.00    +0.000 A 
ATOM     23  C   UNL     1       7.180   5.259  14.534  0.00  0.00    +0.000 A 
ATOM     24  C   UNL     1       7.714   5.046  13.259  0.00  0.00    +0.000 A 
ATOM     25  C   UNL     1       7.064   4.198  12.356  0.00  0.00    +0.000 A 
ATOM     26  F   UNL     1       7.582   4.001  11.120  0.00  0.00    +0.000 F 
ATOM     27  C   UNL     1       5.886   3.557  12.734  0.00  0.00    +0.000 A 
ATOM     28  C   UNL     1       5.358   3.753  14.012  0.00  0.00    +0.000 A 
ENDBRANCH  19  22
ENDBRANCH  15  16
ENDBRANCH   1  15
TORSDOF 7
ENDMDL
MODEL 5
REMARK VINA RESULT:      -7.4      5.845      7.424
REMARK  Name = 
REMARK  7 active torsions:
REMARK  status: ('A' for Active; 'I' for Inactive)
REMARK    1  A    between atoms: O_1  and  C_2
REMARK    2  A    between atoms: C_2  and  C_3
REMARK    3  A    between atoms: C_2  and  C_14
REMARK    4  A    between atoms: C_3  and  O_4
REMARK    5  A    between atoms: O_4  and  C_5
REMARK    6  A    between atoms: C_14  and  N_15
REMARK    7  A    between atoms: N_18  and  C_19
REMARK                            x       y       z     vdW  Elec       q    Type
REMARK                         _______ _______ _______ _____ _____    ______ ____
ROOT
ATOM      1  C   UNL     1       8.138   8.572  17.637  0.00  0.00    +0.000 C 
ENDROOT
BRANCH   1   2
ATOM      2  O   UNL     1       6.948   9.186  17.211  0.00  0.00    +0.000 OA
ATOM      3  H   UNL     1       7.032  10.154  17.418  0.00  0.00    +0.000 HD
ENDBRANCH   1   2
BRANCH   1   4
ATOM      4  C   UNL     1       8.878   9.477  18.621  0.00  0.00    +0.000 C 
BRANCH   4   5
ATOM      5  O   UNL     1       9.513  10.526  17.993  0.00  0.00    +0.000 OA
BRANCH   5   6
ATOM      6  C   UNL     1       9.502  11.809  18.452  0.00  0.00    +0.000 A 
ATOM      7  C   UNL     1      10.370  12.274  19.479  0.00  0.00    +0.000 A 
ATOM      8  F   UNL     1      11.289  11.476  20.076  0.00  0.00    +0.000 F 
ATOM      9  C   UNL     1      10.294  13.596  19.917  0.00  0.00    +0.000 A 
ATOM     10  C   UNL     1       9.372  14.473  19.353  0.00  0.00    +0.000 A 
ATOM     11 BR   UNL     1       9.279  16.274  19.978  0.00  0.00    +0.000 Br
ATOM     12  C   UNL     1       8.522  14.033  18.334  0.00  0.00    +0.000 A 
ATOM     13  C   UNL     1       8.585  12.709  17.887  0.00  0.00    +0.000 A 
ATOM     14  F   UNL     1       7.749  12.298  16.901  0.00  0.00    +0.000 F 
ENDBRANCH   5   6
ENDBRANCH   4   5
ENDBRANCH   1   4
BRANCH   1  15
ATOM     15  C   UNL     1       7.792   7.246  18.347  0.00  0.00    +0.000 C 
BRANCH  15  16
ATOM     16  N   UNL     1       7.218   6.226  17.428  0.00  0.00    +0.000 NA
ATOM     17  C   UNL     1       7.161   4.883  18.049  0.00  0.00    +0.000 C 
ATOM     18  C   UNL     1       6.063   4.801  19.130  0.00  0.00    +0.000 C 
ATOM     19  N   UNL     1       4.805   5.243  18.542  0.00  0.00    +0.000 N 
ATOM     20  C   UNL     1       4.816   6.560  17.919  0.00  0.00    +0.000 C 
ATOM     21  C   UNL     1       5.900   6.573  16.846  0.00  0.00    +0.000 C 
BRANCH  19  22
ATOM     22  C   UNL     1       3.635   4.408  18.520  0.00  0.00    +0.000 A 
ATOM     23  C   UNL     1       3.560   3.301  17.652  0.00  0.00    +0.000 A 
ATOM     24  C   UNL     1       2.433   2.472  17.647  0.00  0.00    +0.000 A 
ATOM     25  C   UNL     1       1.354   2.747  18.494  0.00  0.00    +0.000 A 
ATOM     26  F   UNL     1       0.262   1.945  18.481  0.00  0.00    +0.000 F 
ATOM     27  C   UNL     1       1.408   3.845  19.351  0.00  0.00    +0.000 A 
ATOM     28  C   UNL     1       2.538   4.666  19.370  0.00  0.00    +0.000 A 
ENDBRANCH  19  22
ENDBRANCH  15  16
ENDBRANCH   1  15
TORSDOF 7
ENDMDL
MODEL 6
REMARK VINA RESULT:      -7.3      5.850      7.517
REMARK  Name = 
REMARK  7 active torsions:
REMARK  status: ('A' for Active; 'I' for Inactive)
REMARK    1  A    between atoms: O_1  and  C_2
REMARK    2  A    between atoms: C_2  and  C_3
REMARK    3  A    between atoms: C_2  and  C_14
REMARK    4  A    between atoms: C_3  and  O_4
REMARK    5  A    between atoms: O_4  and  C_5
REMARK    6  A    between atoms: C_14  and  N_15
REMARK    7  A    between atoms: N_18  and  C_19
REMARK                            x       y       z     vdW  Elec       q    Type
REMARK                         _______ _______ _______ _____ _____    ______ ____
ROOT
ATOM      1  C   UNL     1       8.148   8.548  17.665  0.00  0.00    +0.000 C 
ENDROOT
BRANCH   1   2
ATOM      2  O   UNL     1       7.018   9.211  17.156  0.00  0.00    +0.000 OA
ATOM      3  H   UNL     1       7.149  10.180  17.332  0.00  0.00    +0.000 HD
ENDBRANCH   1   2
BRANCH   1   4
ATOM      4  C   UNL     1       8.886   9.444  18.658  0.00  0.00    +0.000 C 
BRANCH   4   5
ATOM      5  O   UNL     1       9.630  10.420  18.030  0.00  0.00    +0.000 OA
BRANCH   5   6
ATOM      6  C   UNL     1       9.556  11.747  18.331  0.00  0.00    +0.000 A 
ATOM      7  C   UNL     1       8.577  12.617  17.775  0.00  0.00    +0.000 A 
ATOM      8  F   UNL     1       7.628  12.189  16.907  0.00  0.00    +0.000 F 
ATOM      9  C   UNL     1       8.569  13.970  18.111  0.00  0.00    +0.000 A 
ATOM     10  C   UNL     1       9.515  14.483  18.994  0.00  0.00    +0.000 A 
ATOM     11 BR   UNL     1       9.491  16.341  19.428  0.00  0.00    +0.000 Br
ATOM     12  C   UNL     1      10.475  13.637  19.558  0.00  0.00    +0.000 A 
ATOM     13  C   UNL     1      10.496  12.277  19.228  0.00  0.00    +0.000 A 
ATOM     14  F   UNL     1      11.438  11.472  19.781  0.00  0.00    +0.000 F 
ENDBRANCH   5   6
ENDBRANCH   4   5
ENDBRANCH   1   4
BRANCH   1  15
ATOM     15  C   UNL     1       7.690   7.268  18.398  0.00  0.00    +0.000 C 
BRANCH  15  16
ATOM     16  N   UNL     1       7.137   6.237  17.479  0.00  0.00    +0.000 NA
ATOM     17  C   UNL     1       7.107   4.893  18.100  0.00  0.00    +0.000 C 
ATOM     18  C   UNL     1       6.010   4.789  19.180  0.00  0.00    +0.000 C 
ATOM     19  N   UNL     1       4.744   5.206  18.591  0.00  0.00    +0.000 N 
ATOM     20  C   UNL     1       4.729   6.523  17.967  0.00  0.00    +0.000 C 
ATOM     21  C   UNL     1       5.813   6.558  16.895  0.00  0.00    +0.000 C 
BRANCH  19  22
ATOM     22  C   UNL     1       3.591   4.347  18.568  0.00  0.00    +0.000 A 
ATOM     23  C   UNL     1       3.450   3.362  17.571  0.00  0.00    +0.000 A 
ATOM     24  C   UNL     1       2.342   2.508  17.563  0.00  0.00    +0.000 A 
ATOM     25  C   UNL     1       1.346   2.638  18.537  0.00  0.00    +0.000 A 
ATOM     26  F   UNL     1       0.271   1.813  18.520  0.00  0.00    +0.000 F 
ATOM     27  C   UNL     1       1.465   3.616  19.522  0.00  0.00    +0.000 A 
ATOM     28  C   UNL     1       2.577   4.459  19.544  0.00  0.00    +0.000 A 
ENDBRANCH  19  22
ENDBRANCH  15  16
ENDBRANCH   1  15
TORSDOF 7
ENDMDL
MODEL 7
REMARK VINA RESULT:      -7.3      3.039      6.920
REMARK  Name = 
REMARK  7 active torsions:
REMARK  status: ('A' for Active; 'I' for Inactive)
REMARK    1  A    between atoms: O_1  and  C_2
REMARK    2  A    between atoms: C_2  and  C_3
REMARK    3  A    between atoms: C_2  and  C_14
REMARK    4  A    between atoms: C_3  and  O_4
REMARK    5  A    between atoms: O_4  and  C_5
REMARK    6  A    between atoms: C_14  and  N_15
REMARK    7  A    between atoms: N_18  and  C_19
REMARK                            x       y       z     vdW  Elec       q    Type
REMARK                         _______ _______ _______ _____ _____    ______ ____
ROOT
ATOM      1  C   UNL     1       4.310   3.083  18.104  0.00  0.00    +0.000 C 
ENDROOT
BRANCH   1   2
ATOM      2  O   UNL     1       4.066   1.701  18.031  0.00  0.00    +0.000 OA
ATOM      3  H   UNL     1       3.134   1.590  17.708  0.00  0.00    +0.000 HD
ENDBRANCH   1   2
BRANCH   1   4
ATOM      4  C   UNL     1       4.505   3.662  16.704  0.00  0.00    +0.000 C 
BRANCH   4   5
ATOM      5  O   UNL     1       5.808   4.044  16.471  0.00  0.00    +0.000 OA
BRANCH   5   6
ATOM      6  C   UNL     1       6.335   5.238  16.863  0.00  0.00    +0.000 A 
ATOM      7  C   UNL     1       5.811   6.493  16.445  0.00  0.00    +0.000 A 
ATOM      8  F   UNL     1       4.733   6.600  15.631  0.00  0.00    +0.000 F 
ATOM      9  C   UNL     1       6.410   7.679  16.868  0.00  0.00    +0.000 A 
ATOM     10  C   UNL     1       7.523   7.647  17.703  0.00  0.00    +0.000 A 
ATOM     11 BR   UNL     1       8.333   9.285  18.257  0.00  0.00    +0.000 Br
ATOM     12  C   UNL     1       8.042   6.421  18.131  0.00  0.00    +0.000 A 
ATOM     13  C   UNL     1       7.452   5.223  17.713  0.00  0.00    +0.000 A 
ATOM     14  F   UNL     1       7.971   4.042  18.134  0.00  0.00    +0.000 F 
ENDBRANCH   5   6
ENDBRANCH   4   5
ENDBRANCH   1   4
BRANCH   1  15
ATOM     15  C   UNL     1       3.095   3.772  18.761  0.00  0.00    +0.000 C 
BRANCH  15  16
ATOM     16  N   UNL     1       3.469   4.647  19.905  0.00  0.00    +0.000 NA
ATOM     17  C   UNL     1       3.985   5.962  19.458  0.00  0.00    +0.000 C 
ATOM     18  C   UNL     1       2.859   6.855  18.899  0.00  0.00    +0.000 C 
ATOM     19  N   UNL     1       1.798   6.935  19.895  0.00  0.00    +0.000 N 
ATOM     20  C   UNL     1       1.261   5.664  20.364  0.00  0.00    +0.000 C 
ATOM     21  C   UNL     1       2.412   4.837  20.926  0.00  0.00    +0.000 C 
BRANCH  19  22
ATOM     22  C   UNL     1       1.347   8.189  20.433  0.00  0.00    +0.000 A 
ATOM     23  C   UNL     1       1.224   9.323  19.606  0.00  0.00    +0.000 A 
ATOM     24  C   UNL     1       0.760  10.538  20.123  0.00  0.00    +0.000 A 
ATOM     25  C   UNL     1       0.432  10.646  21.478  0.00  0.00    +0.000 A 
ATOM     26  F   UNL     1      -0.010  11.826  21.975  0.00  0.00    +0.000 F 
ATOM     27  C   UNL     1       0.559   9.537  22.312  0.00  0.00    +0.000 A 
ATOM     28  C   UNL     1       1.005   8.318  21.797  0.00  0.00    +0.000 A 
ENDBRANCH  19  22
ENDBRANCH  15  16
ENDBRANCH   1  15
TORSDOF 7
ENDMDL
MODEL 8
REMARK VINA RESULT:      -7.3      1.535      2.141
REMARK  Name = 
REMARK  7 active torsions:
REMARK  status: ('A' for Active; 'I' for Inactive)
REMARK    1  A    between atoms: O_1  and  C_2
REMARK    2  A    between atoms: C_2  and  C_3
REMARK    3  A    between atoms: C_2  and  C_14
REMARK    4  A    between atoms: C_3  and  O_4
REMARK    5  A    between atoms: O_4  and  C_5
REMARK    6  A    between atoms: C_14  and  N_15
REMARK    7  A    between atoms: N_18  and  C_19
REMARK                            x       y       z     vdW  Elec       q    Type
REMARK                         _______ _______ _______ _____ _____    ______ ____
ROOT
ATOM      1  C   UNL     1       2.635   5.072  20.159  0.00  0.00    +0.000 C 
ENDROOT
BRANCH   1   2
ATOM      2  O   UNL     1       2.832   4.336  21.340  0.00  0.00    +0.000 OA
ATOM      3  H   UNL     1       3.755   4.529  21.650  0.00  0.00    +0.000 HD
ENDBRANCH   1   2
BRANCH   1   4
ATOM      4  C   UNL     1       1.652   6.215  20.404  0.00  0.00    +0.000 C 
BRANCH   4   5
ATOM      5  O   UNL     1       2.161   7.436  20.018  0.00  0.00    +0.000 OA
BRANCH   5   6
ATOM      6  C   UNL     1       1.408   8.560  19.858  0.00  0.00    +0.000 A 
ATOM      7  C   UNL     1       0.689   9.172  20.922  0.00  0.00    +0.000 A 
ATOM      8  F   UNL     1       0.707   8.690  22.189  0.00  0.00    +0.000 F 
ATOM      9  C   UNL     1      -0.079  10.311  20.686  0.00  0.00    +0.000 A 
ATOM     10  C   UNL     1      -0.149  10.862  19.409  0.00  0.00    +0.000 A 
ATOM     11 BR   UNL     1      -1.219  12.414  19.109  0.00  0.00    +0.000 Br
ATOM     12  C   UNL     1       0.561  10.277  18.357  0.00  0.00    +0.000 A 
ATOM     13  C   UNL     1       1.335   9.133  18.579  0.00  0.00    +0.000 A 
ATOM     14  F   UNL     1       2.014   8.577  17.545  0.00  0.00    +0.000 F 
ENDBRANCH   5   6
ENDBRANCH   4   5
ENDBRANCH   1   4
BRANCH   1  15
ATOM     15  C   UNL     1       3.987   5.668  19.709  0.00  0.00    +0.000 C 
BRANCH  15  16
ATOM     16  N   UNL     1       4.924   4.645  19.172  0.00  0.00    +0.000 NA
ATOM     17  C   UNL     1       4.271   3.749  18.190  0.00  0.00    +0.000 C 
ATOM     18  C   UNL     1       3.993   4.470  16.856  0.00  0.00    +0.000 C 
ATOM     19  N   UNL     1       5.239   5.065  16.387  0.00  0.00    +0.000 N 
ATOM     20  C   UNL     1       5.916   5.954  17.321  0.00  0.00    +0.000 C 
ATOM     21  C   UNL     1       6.186   5.182  18.608  0.00  0.00    +0.000 C 
BRANCH  19  22
ATOM     22  C   UNL     1       5.802   4.748  15.103  0.00  0.00    +0.000 A 
ATOM     23  C   UNL     1       7.095   5.190  14.758  0.00  0.00    +0.000 A 
ATOM     24  C   UNL     1       7.655   4.860  13.519  0.00  0.00    +0.000 A 
ATOM     25  C   UNL     1       6.926   4.101  12.597  0.00  0.00    +0.000 A 
ATOM     26  F   UNL     1       7.471   3.790  11.396  0.00  0.00    +0.000 F 
ATOM     27  C   UNL     1       5.642   3.667  12.919  0.00  0.00    +0.000 A 
ATOM     28  C   UNL     1       5.085   3.980  14.160  0.00  0.00    +0.000 A 
ENDBRANCH  19  22
ENDBRANCH  15  16
ENDBRANCH   1  15
TORSDOF 7
ENDMDL
MODEL 9
REMARK VINA RESULT:      -7.2      4.836      9.792
REMARK  Name = 
REMARK  7 active torsions:
REMARK  status: ('A' for Active; 'I' for Inactive)
REMARK    1  A    between atoms: O_1  and  C_2
REMARK    2  A    between atoms: C_2  and  C_3
REMARK    3  A    between atoms: C_2  and  C_14
REMARK    4  A    between atoms: C_3  and  O_4
REMARK    5  A    between atoms: O_4  and  C_5
REMARK    6  A    between atoms: C_14  and  N_15
REMARK    7  A    between atoms: N_18  and  C_19
REMARK                            x       y       z     vdW  Elec       q    Type
REMARK                         _______ _______ _______ _____ _____    ______ ____
ROOT
ATOM      1  C   UNL     1       1.340   9.501  18.059  0.00  0.00    +0.000 C 
ENDROOT
BRANCH   1   2
ATOM      2  O   UNL     1       1.793  10.742  17.581  0.00  0.00    +0.000 OA
ATOM      3  H   UNL     1       2.162  11.235  18.361  0.00  0.00    +0.000 HD
ENDBRANCH   1   2
BRANCH   1   4
ATOM      4  C   UNL     1       2.358   8.408  17.740  0.00  0.00    +0.000 C 
BRANCH   4   5
ATOM      5  O   UNL     1       2.643   7.621  18.835  0.00  0.00    +0.000 OA
BRANCH   5   6
ATOM      6  C   UNL     1       2.786   6.267  18.786  0.00  0.00    +0.000 A 
ATOM      7  C   UNL     1       2.168   5.386  19.715  0.00  0.00    +0.000 A 
ATOM      8  F   UNL     1       1.372   5.825  20.721  0.00  0.00    +0.000 F 
ATOM      9  C   UNL     1       2.371   4.010  19.619  0.00  0.00    +0.000 A 
ATOM     10  C   UNL     1       3.178   3.485  18.614  0.00  0.00    +0.000 A 
ATOM     11 BR   UNL     1       3.452   1.598  18.513  0.00  0.00    +0.000 Br
ATOM     12  C   UNL     1       3.783   4.339  17.687  0.00  0.00    +0.000 A 
ATOM     13  C   UNL     1       3.589   5.722  17.772  0.00  0.00    +0.000 A 
ATOM     14  F   UNL     1       4.188   6.536  16.867  0.00  0.00    +0.000 F 
ENDBRANCH   5   6
ENDBRANCH   4   5
ENDBRANCH   1   4
BRANCH   1  15
ATOM     15  C   UNL     1       1.167   9.586  19.591  0.00  0.00    +0.000 C 
BRANCH  15  16
ATOM     16  N   UNL     1      -0.258   9.617  20.015  0.00  0.00    +0.000 NA
ATOM     17  C   UNL     1      -0.416   9.357  21.464  0.00  0.00    +0.000 C 
ATOM     18  C   UNL     1       0.058  10.554  22.313  0.00  0.00    +0.000 C 
ATOM     19  N   UNL     1      -0.625  11.752  21.842  0.00  0.00    +0.000 N 
ATOM     20  C   UNL     1      -0.497  12.046  20.420  0.00  0.00    +0.000 C 
ATOM     21  C   UNL     1      -1.003  10.841  19.634  0.00  0.00    +0.000 C 
BRANCH  19  22
ATOM     22  C   UNL     1      -1.432  12.564  22.711  0.00  0.00    +0.000 A 
ATOM     23  C   UNL     1      -2.690  12.112  23.154  0.00  0.00    +0.000 A 
ATOM     24  C   UNL     1      -3.465  12.890  24.020  0.00  0.00    +0.000 A 
ATOM     25  C   UNL     1      -3.006  14.143  24.442  0.00  0.00    +0.000 A 
ATOM     26  F   UNL     1      -3.763  14.895  25.275  0.00  0.00    +0.000 F 
ATOM     27  C   UNL     1      -1.768  14.610  24.003  0.00  0.00    +0.000 A 
ATOM     28  C   UNL     1      -0.984  13.829  23.151  0.00  0.00    +0.000 A 
ENDBRANCH  19  22
ENDBRANCH  15  16
ENDBRANCH   1  15
TORSDOF 7
ENDMDL
