MODEL 1
REMARK VINA RESULT:      -7.0      0.000      0.000
REMARK  Name = 
REMARK  7 active torsions:
REMARK  status: ('A' for Active; 'I' for Inactive)
REMARK    1  A    between atoms: C_1  and  C_2
REMARK    2  A    between atoms: C_2  and  O_3
REMARK    3  A    between atoms: O_3  and  C_4
REMARK    4  A    between atoms: C_4  and  C_6
REMARK    5  A    between atoms: C_6  and  N_7
REMARK    6  A    between atoms: C_6  and  C_19
REMARK    7  A    between atoms: N_10  and  C_11
REMARK                            x       y       z     vdW  Elec       q    Type
REMARK                         _______ _______ _______ _____ _____    ______ ____
ROOT
ATOM      1  N   UNL     1       6.997   7.485  17.332  0.00  0.00    +0.000 N 
ATOM      2  C   UNL     1       7.920   8.137  18.106  0.00  0.00    +0.000 C 
ATOM      3  O   UNL     1       8.578   7.518  18.935  0.00  0.00    +0.000 OA
ATOM      4  N   UNL     1       8.030   9.476  17.816  0.00  0.00    +0.000 N 
ATOM      5  H   UNL     1       6.303   7.999  16.804  0.00  0.00    +0.000 HD
ATOM      6  H   UNL     1       7.232   9.912  17.380  0.00  0.00    +0.000 HD
ENDROOT
BRANCH   4   7
ATOM      7  C   UNL     1       9.039  10.325  18.324  0.00  0.00    +0.000 A 
ATOM      8  C   UNL     1       9.338  10.400  19.689  0.00  0.00    +0.000 A 
ATOM      9  C   UNL     1      10.312  11.279  20.165  0.00  0.00    +0.000 A 
ATOM     10  C   UNL     1      11.010  12.094  19.277  0.00  0.00    +0.000 A 
ATOM     11 CL   UNL     1      12.174  13.185  19.935  0.00  0.00    +0.000 Cl
ATOM     12  C   UNL     1      10.752  12.000  17.905  0.00  0.00    +0.000 A 
ATOM     13 CL   UNL     1      11.584  12.969  16.743  0.00  0.00    +0.000 Cl
ATOM     14  C   UNL     1       9.773  11.108  17.430  0.00  0.00    +0.000 A 
ENDBRANCH   4   7
BRANCH   1  15
ATOM     15  C   UNL     1       6.747   6.057  17.612  0.00  0.00    +0.000 C 
BRANCH  15  16
ATOM     16  C   UNL     1       5.278   5.668  17.759  0.00  0.00    +0.000 C 
ATOM     17  F   UNL     1       4.442   6.464  17.052  0.00  0.00    +0.000 F 
ATOM     18  F   UNL     1       5.057   4.401  17.339  0.00  0.00    +0.000 F 
ATOM     19  F   UNL     1       4.870   5.740  19.052  0.00  0.00    +0.000 F 
ENDBRANCH  15  16
BRANCH  15  20
ATOM     20  C   UNL     1       7.336   5.210  16.518  0.00  0.00    +0.000 C 
ATOM     21  O   UNL     1       8.024   4.212  16.707  0.00  0.00    +0.000 OA
BRANCH  20  22
ATOM     22  O   UNL     1       6.988   5.717  15.301  0.00  0.00    +0.000 OA
BRANCH  22  24
ATOM     23  C   UNL     1       5.651   4.165  14.029  0.00  0.00    +0.000 C 
ATOM     24  C   UNL     1       7.016   4.804  14.195  0.00  0.00    +0.000 C 
ENDBRANCH  22  24
ENDBRANCH  20  22
ENDBRANCH  15  20
ENDBRANCH   1  15
TORSDOF 6
ENDMDL
MODEL 2
REMARK VINA RESULT:      -6.9      6.430      7.785
REMARK  Name = 
REMARK  7 active torsions:
REMARK  status: ('A' for Active; 'I' for Inactive)
REMARK    1  A    between atoms: C_1  and  C_2
REMARK    2  A    between atoms: C_2  and  O_3
REMARK    3  A    between atoms: O_3  and  C_4
REMARK    4  A    between atoms: C_4  and  C_6
REMARK    5  A    between atoms: C_6  and  N_7
REMARK    6  A    between atoms: C_6  and  C_19
REMARK    7  A    between atoms: N_10  and  C_11
REMARK                            x       y       z     vdW  Elec       q    Type
REMARK                         _______ _______ _______ _____ _____    ______ ____
ROOT
ATOM      1  N   UNL     1       3.149   6.144  19.022  0.00  0.00    +0.000 N 
ATOM      2  C   UNL     1       2.158   6.657  19.815  0.00  0.00    +0.000 C 
ATOM      3  O   UNL     1       1.533   5.925  20.574  0.00  0.00    +0.000 OA
ATOM      4  N   UNL     1       2.002   8.017  19.685  0.00  0.00    +0.000 N 
ATOM      5  H   UNL     1       3.525   6.675  18.246  0.00  0.00    +0.000 HD
ATOM      6  H   UNL     1       2.320   8.429  18.821  0.00  0.00    +0.000 HD
ENDROOT
BRANCH   4   7
ATOM      7  C   UNL     1       1.195   8.814  20.527  0.00  0.00    +0.000 A 
ATOM      8  C   UNL     1       1.221   8.698  21.921  0.00  0.00    +0.000 A 
ATOM      9  C   UNL     1       0.382   9.470  22.725  0.00  0.00    +0.000 A 
ATOM     10  C   UNL     1      -0.494  10.383  22.142  0.00  0.00    +0.000 A 
ATOM     11 CL   UNL     1      -1.532  11.279  23.190  0.00  0.00    +0.000 Cl
ATOM     12  C   UNL     1      -0.503  10.542  20.753  0.00  0.00    +0.000 A 
ATOM     13 CL   UNL     1      -1.553  11.660  19.959  0.00  0.00    +0.000 Cl
ATOM     14  C   UNL     1       0.350   9.764  19.947  0.00  0.00    +0.000 A 
ENDBRANCH   4   7
BRANCH   1  15
ATOM     15  C   UNL     1       3.351   4.681  19.030  0.00  0.00    +0.000 C 
BRANCH  15  16
ATOM     16  C   UNL     1       2.782   3.937  17.824  0.00  0.00    +0.000 C 
ATOM     17  F   UNL     1       2.508   2.637  18.081  0.00  0.00    +0.000 F 
ATOM     18  F   UNL     1       1.629   4.500  17.394  0.00  0.00    +0.000 F 
ATOM     19  F   UNL     1       3.648   3.945  16.779  0.00  0.00    +0.000 F 
ENDBRANCH  15  16
BRANCH  15  20
ATOM     20  C   UNL     1       4.820   4.368  19.109  0.00  0.00    +0.000 C 
ATOM     21  O   UNL     1       5.281   3.289  19.467  0.00  0.00    +0.000 OA
BRANCH  20  22
ATOM     22  O   UNL     1       5.547   5.454  18.721  0.00  0.00    +0.000 OA
BRANCH  22  24
ATOM     23  C   UNL     1       7.680   6.523  18.378  0.00  0.00    +0.000 C 
ATOM     24  C   UNL     1       6.891   5.535  19.214  0.00  0.00    +0.000 C 
ENDBRANCH  22  24
ENDBRANCH  20  22
ENDBRANCH  15  20
ENDBRANCH   1  15
TORSDOF 6
ENDMDL
MODEL 3
REMARK VINA RESULT:      -6.8      6.059      7.815
REMARK  Name = 
REMARK  7 active torsions:
REMARK  status: ('A' for Active; 'I' for Inactive)
REMARK    1  A    between atoms: C_1  and  C_2
REMARK    2  A    between atoms: C_2  and  O_3
REMARK    3  A    between atoms: O_3  and  C_4
REMARK    4  A    between atoms: C_4  and  C_6
REMARK    5  A    between atoms: C_6  and  N_7
REMARK    6  A    between atoms: C_6  and  C_19
REMARK    7  A    between atoms: N_10  and  C_11
REMARK                            x       y       z     vdW  Elec       q    Type
REMARK                         _______ _______ _______ _____ _____    ______ ____
ROOT
ATOM      1  N   UNL     1       3.564   3.133  18.787  0.00  0.00    +0.000 N 
ATOM      2  C   UNL     1       3.981   3.754  17.640  0.00  0.00    +0.000 C 
ATOM      3  O   UNL     1       3.397   4.751  17.230  0.00  0.00    +0.000 OA
ATOM      4  N   UNL     1       5.092   3.173  17.076  0.00  0.00    +0.000 N 
ATOM      5  H   UNL     1       3.886   2.202  19.023  0.00  0.00    +0.000 HD
ATOM      6  H   UNL     1       5.260   2.204  17.301  0.00  0.00    +0.000 HD
ENDROOT
BRANCH   4   7
ATOM      7  C   UNL     1       5.835   3.732  16.012  0.00  0.00    +0.000 A 
ATOM      8  C   UNL     1       6.872   4.648  16.222  0.00  0.00    +0.000 A 
ATOM      9  C   UNL     1       7.560   5.215  15.149  0.00  0.00    +0.000 A 
ATOM     10  C   UNL     1       7.225   4.865  13.843  0.00  0.00    +0.000 A 
ATOM     11 CL   UNL     1       8.089   5.631  12.560  0.00  0.00    +0.000 Cl
ATOM     12  C   UNL     1       6.220   3.919  13.617  0.00  0.00    +0.000 A 
ATOM     13 CL   UNL     1       5.755   3.428  12.028  0.00  0.00    +0.000 Cl
ATOM     14  C   UNL     1       5.532   3.347  14.704  0.00  0.00    +0.000 A 
ENDBRANCH   4   7
BRANCH   1  15
ATOM     15  C   UNL     1       2.334   3.632  19.434  0.00  0.00    +0.000 C 
BRANCH  15  16
ATOM     16  C   UNL     1       1.074   2.813  19.161  0.00  0.00    +0.000 C 
ATOM     17  F   UNL     1       1.302   1.480  19.129  0.00  0.00    +0.000 F 
ATOM     18  F   UNL     1       0.132   3.025  20.110  0.00  0.00    +0.000 F 
ATOM     19  F   UNL     1       0.519   3.135  17.965  0.00  0.00    +0.000 F 
ENDBRANCH  15  16
BRANCH  15  20
ATOM     20  C   UNL     1       2.527   3.690  20.924  0.00  0.00    +0.000 C 
ATOM     21  O   UNL     1       2.860   2.735  21.618  0.00  0.00    +0.000 OA
BRANCH  20  22
ATOM     22  O   UNL     1       2.283   4.953  21.374  0.00  0.00    +0.000 OA
BRANCH  22  24
ATOM     23  C   UNL     1       1.363   7.105  20.792  0.00  0.00    +0.000 C 
ATOM     24  C   UNL     1       2.325   6.002  20.396  0.00  0.00    +0.000 C 
ENDBRANCH  22  24
ENDBRANCH  20  22
ENDBRANCH  15  20
ENDBRANCH   1  15
TORSDOF 6
ENDMDL
MODEL 4
REMARK VINA RESULT:      -6.8      6.071      7.642
REMARK  Name = 
REMARK  7 active torsions:
REMARK  status: ('A' for Active; 'I' for Inactive)
REMARK    1  A    between atoms: C_1  and  C_2
REMARK    2  A    between atoms: C_2  and  O_3
REMARK    3  A    between atoms: O_3  and  C_4
REMARK    4  A    between atoms: C_4  and  C_6
REMARK    5  A    between atoms: C_6  and  N_7
REMARK    6  A    between atoms: C_6  and  C_19
REMARK    7  A    between atoms: N_10  and  C_11
REMARK                            x       y       z     vdW  Elec       q    Type
REMARK                         _______ _______ _______ _____ _____    ______ ____
ROOT
ATOM      1  N   UNL     1       3.370   3.376  18.860  0.00  0.00    +0.000 N 
ATOM      2  C   UNL     1       3.813   3.855  17.656  0.00  0.00    +0.000 C 
ATOM      3  O   UNL     1       3.131   4.650  17.018  0.00  0.00    +0.000 OA
ATOM      4  N   UNL     1       5.058   3.387  17.305  0.00  0.00    +0.000 N 
ATOM      5  H   UNL     1       3.804   2.570  19.293  0.00  0.00    +0.000 HD
ATOM      6  H   UNL     1       5.347   2.515  17.721  0.00  0.00    +0.000 HD
ENDROOT
BRANCH   4   7
ATOM      7  C   UNL     1       5.820   3.877  16.221  0.00  0.00    +0.000 A 
ATOM      8  C   UNL     1       6.880   4.774  16.394  0.00  0.00    +0.000 A 
ATOM      9  C   UNL     1       7.588   5.271  15.300  0.00  0.00    +0.000 A 
ATOM     10  C   UNL     1       7.250   4.869  14.010  0.00  0.00    +0.000 A 
ATOM     11 CL   UNL     1       8.140   5.552  12.698  0.00  0.00    +0.000 Cl
ATOM     12  C   UNL     1       6.221   3.941  13.823  0.00  0.00    +0.000 A 
ATOM     13 CL   UNL     1       5.751   3.388  12.255  0.00  0.00    +0.000 Cl
ATOM     14  C   UNL     1       5.514   3.438  14.930  0.00  0.00    +0.000 A 
ENDBRANCH   4   7
BRANCH   1  15
ATOM     15  C   UNL     1       2.012   3.757  19.296  0.00  0.00    +0.000 C 
BRANCH  15  16
ATOM     16  C   UNL     1       1.098   2.596  19.679  0.00  0.00    +0.000 C 
ATOM     17  F   UNL     1       0.146   2.339  18.751  0.00  0.00    +0.000 F 
ATOM     18  F   UNL     1       1.798   1.449  19.845  0.00  0.00    +0.000 F 
ATOM     19  F   UNL     1       0.442   2.838  20.842  0.00  0.00    +0.000 F 
ENDBRANCH  15  16
BRANCH  15  20
ATOM     20  C   UNL     1       2.096   4.681  20.480  0.00  0.00    +0.000 C 
ATOM     21  O   UNL     1       2.510   4.353  21.588  0.00  0.00    +0.000 OA
BRANCH  20  22
ATOM     22  O   UNL     1       1.650   5.921  20.133  0.00  0.00    +0.000 OA
BRANCH  22  24
ATOM     23  C   UNL     1       2.189   7.652  18.543  0.00  0.00    +0.000 C 
ATOM     24  C   UNL     1       2.650   6.882  19.765  0.00  0.00    +0.000 C 
ENDBRANCH  22  24
ENDBRANCH  20  22
ENDBRANCH  15  20
ENDBRANCH   1  15
TORSDOF 6
ENDMDL
MODEL 5
REMARK VINA RESULT:      -6.7      6.662      7.643
REMARK  Name = 
REMARK  7 active torsions:
REMARK  status: ('A' for Active; 'I' for Inactive)
REMARK    1  A    between atoms: C_1  and  C_2
REMARK    2  A    between atoms: C_2  and  O_3
REMARK    3  A    between atoms: O_3  and  C_4
REMARK    4  A    between atoms: C_4  and  C_6
REMARK    5  A    between atoms: C_6  and  N_7
REMARK    6  A    between atoms: C_6  and  C_19
REMARK    7  A    between atoms: N_10  and  C_11
REMARK                            x       y       z     vdW  Elec       q    Type
REMARK                         _______ _______ _______ _____ _____    ______ ____
ROOT
ATOM      1  N   UNL     1       3.128   6.133  19.052  0.00  0.00    +0.000 N 
ATOM      2  C   UNL     1       2.171   6.659  19.879  0.00  0.00    +0.000 C 
ATOM      3  O   UNL     1       1.626   5.953  20.721  0.00  0.00    +0.000 OA
ATOM      4  N   UNL     1       1.951   8.001  19.678  0.00  0.00    +0.000 N 
ATOM      5  H   UNL     1       3.430   6.628  18.223  0.00  0.00    +0.000 HD
ATOM      6  H   UNL     1       2.196   8.369  18.772  0.00  0.00    +0.000 HD
ENDROOT
BRANCH   4   7
ATOM      7  C   UNL     1       1.170   8.819  20.524  0.00  0.00    +0.000 A 
ATOM      8  C   UNL     1       1.230   8.731  21.919  0.00  0.00    +0.000 A 
ATOM      9  C   UNL     1       0.415   9.524  22.727  0.00  0.00    +0.000 A 
ATOM     10  C   UNL     1      -0.471  10.429  22.148  0.00  0.00    +0.000 A 
ATOM     11 CL   UNL     1      -1.478  11.352  23.203  0.00  0.00    +0.000 Cl
ATOM     12  C   UNL     1      -0.514  10.560  20.756  0.00  0.00    +0.000 A 
ATOM     13 CL   UNL     1      -1.579  11.667  19.966  0.00  0.00    +0.000 Cl
ATOM     14  C   UNL     1       0.314   9.761  19.946  0.00  0.00    +0.000 A 
ENDBRANCH   4   7
BRANCH   1  15
ATOM     15  C   UNL     1       3.389   4.682  19.134  0.00  0.00    +0.000 C 
BRANCH  15  16
ATOM     16  C   UNL     1       2.450   3.802  18.312  0.00  0.00    +0.000 C 
ATOM     17  F   UNL     1       1.410   3.317  19.030  0.00  0.00    +0.000 F 
ATOM     18  F   UNL     1       1.919   4.483  17.270  0.00  0.00    +0.000 F 
ATOM     19  F   UNL     1       3.097   2.724  17.800  0.00  0.00    +0.000 F 
ENDBRANCH  15  16
BRANCH  15  20
ATOM     20  C   UNL     1       4.795   4.390  18.689  0.00  0.00    +0.000 C 
ATOM     21  O   UNL     1       5.598   3.715  19.326  0.00  0.00    +0.000 OA
BRANCH  20  22
ATOM     22  O   UNL     1       5.032   4.980  17.484  0.00  0.00    +0.000 OA
BRANCH  22  24
ATOM     23  C   UNL     1       5.593   4.771  15.148  0.00  0.00    +0.000 C 
ATOM     24  C   UNL     1       5.820   4.232  16.547  0.00  0.00    +0.000 C 
ENDBRANCH  22  24
ENDBRANCH  20  22
ENDBRANCH  15  20
ENDBRANCH   1  15
TORSDOF 6
ENDMDL
MODEL 6
REMARK VINA RESULT:      -6.7      2.145      3.056
REMARK  Name = 
REMARK  7 active torsions:
REMARK  status: ('A' for Active; 'I' for Inactive)
REMARK    1  A    between atoms: C_1  and  C_2
REMARK    2  A    between atoms: C_2  and  O_3
REMARK    3  A    between atoms: O_3  and  C_4
REMARK    4  A    between atoms: C_4  and  C_6
REMARK    5  A    between atoms: C_6  and  N_7
REMARK    6  A    between atoms: C_6  and  C_19
REMARK    7  A    between atoms: N_10  and  C_11
REMARK                            x       y       z     vdW  Elec       q    Type
REMARK                         _______ _______ _______ _____ _____    ______ ____
ROOT
ATOM      1  N   UNL     1       7.761   6.710  18.457  0.00  0.00    +0.000 N 
ATOM      2  C   UNL     1       7.937   8.042  18.193  0.00  0.00    +0.000 C 
ATOM      3  O   UNL     1       7.183   8.625  17.421  0.00  0.00    +0.000 OA
ATOM      4  N   UNL     1       8.975   8.606  18.897  0.00  0.00    +0.000 N 
ATOM      5  H   UNL     1       8.485   6.167  18.911  0.00  0.00    +0.000 HD
ATOM      6  H   UNL     1       9.699   7.980  19.215  0.00  0.00    +0.000 HD
ENDROOT
BRANCH   4   7
ATOM      7  C   UNL     1       9.239   9.993  18.959  0.00  0.00    +0.000 A 
ATOM      8  C   UNL     1       9.472  10.765  17.816  0.00  0.00    +0.000 A 
ATOM      9  C   UNL     1       9.771  12.124  17.913  0.00  0.00    +0.000 A 
ATOM     10  C   UNL     1       9.834  12.736  19.162  0.00  0.00    +0.000 A 
ATOM     11 CL   UNL     1      10.247  14.412  19.214  0.00  0.00    +0.000 Cl
ATOM     12  C   UNL     1       9.562  11.989  20.312  0.00  0.00    +0.000 A 
ATOM     13 CL   UNL     1       9.610  12.680  21.894  0.00  0.00    +0.000 Cl
ATOM     14  C   UNL     1       9.255  10.619  20.208  0.00  0.00    +0.000 A 
ENDBRANCH   4   7
BRANCH   1  15
ATOM     15  C   UNL     1       6.719   5.989  17.698  0.00  0.00    +0.000 C 
BRANCH  15  16
ATOM     16  C   UNL     1       7.217   4.814  16.859  0.00  0.00    +0.000 C 
ATOM     17  F   UNL     1       6.265   3.878  16.636  0.00  0.00    +0.000 F 
ATOM     18  F   UNL     1       7.654   5.222  15.645  0.00  0.00    +0.000 F 
ATOM     19  F   UNL     1       8.249   4.172  17.463  0.00  0.00    +0.000 F 
ENDBRANCH  15  16
BRANCH  15  20
ATOM     20  C   UNL     1       5.670   5.466  18.640  0.00  0.00    +0.000 C 
ATOM     21  O   UNL     1       5.911   4.852  19.674  0.00  0.00    +0.000 OA
BRANCH  20  22
ATOM     22  O   UNL     1       4.429   5.781  18.172  0.00  0.00    +0.000 OA
BRANCH  22  24
ATOM     23  C   UNL     1       2.889   4.048  17.509  0.00  0.00    +0.000 C 
ATOM     24  C   UNL     1       3.344   4.961  18.631  0.00  0.00    +0.000 C 
ENDBRANCH  22  24
ENDBRANCH  20  22
ENDBRANCH  15  20
ENDBRANCH   1  15
TORSDOF 6
ENDMDL
MODEL 7
REMARK VINA RESULT:      -6.6      6.939      7.785
REMARK  Name = 
REMARK  7 active torsions:
REMARK  status: ('A' for Active; 'I' for Inactive)
REMARK    1  A    between atoms: C_1  and  C_2
REMARK    2  A    between atoms: C_2  and  O_3
REMARK    3  A    between atoms: O_3  and  C_4
REMARK    4  A    between atoms: C_4  and  C_6
REMARK    5  A    between atoms: C_6  and  N_7
REMARK    6  A    between atoms: C_6  and  C_19
REMARK    7  A    between atoms: N_10  and  C_11
REMARK                            x       y       z     vdW  Elec       q    Type
REMARK                         _______ _______ _______ _____ _____    ______ ____
ROOT
ATOM      1  N   UNL     1       3.778   5.185  19.163  0.00  0.00    +0.000 N 
ATOM      2  C   UNL     1       2.792   6.108  18.933  0.00  0.00    +0.000 C 
ATOM      3  O   UNL     1       1.961   5.917  18.053  0.00  0.00    +0.000 OA
ATOM      4  N   UNL     1       2.836   7.180  19.792  0.00  0.00    +0.000 N 
ATOM      5  H   UNL     1       4.588   5.415  19.725  0.00  0.00    +0.000 HD
ATOM      6  H   UNL     1       3.727   7.382  20.220  0.00  0.00    +0.000 HD
ENDROOT
BRANCH   4   7
ATOM      7  C   UNL     1       1.826   8.162  19.898  0.00  0.00    +0.000 A 
ATOM      8  C   UNL     1       1.496   9.016  18.840  0.00  0.00    +0.000 A 
ATOM      9  C   UNL     1       0.522  10.004  18.988  0.00  0.00    +0.000 A 
ATOM     10  C   UNL     1      -0.147  10.146  20.202  0.00  0.00    +0.000 A 
ATOM     11 CL   UNL     1      -1.313  11.413  20.330  0.00  0.00    +0.000 Cl
ATOM     12  C   UNL     1       0.140   9.273  21.255  0.00  0.00    +0.000 A 
ATOM     13 CL   UNL     1      -0.654   9.382  22.785  0.00  0.00    +0.000 Cl
ATOM     14  C   UNL     1       1.120   8.275  21.099  0.00  0.00    +0.000 A 
ENDBRANCH   4   7
BRANCH   1  15
ATOM     15  C   UNL     1       3.867   4.029  18.248  0.00  0.00    +0.000 C 
BRANCH  15  16
ATOM     16  C   UNL     1       4.985   4.102  17.211  0.00  0.00    +0.000 C 
ATOM     17  F   UNL     1       5.086   2.983  16.457  0.00  0.00    +0.000 F 
ATOM     18  F   UNL     1       4.798   5.133  16.354  0.00  0.00    +0.000 F 
ATOM     19  F   UNL     1       6.198   4.279  17.795  0.00  0.00    +0.000 F 
ENDBRANCH  15  16
BRANCH  15  20
ATOM     20  C   UNL     1       4.061   2.764  19.040  0.00  0.00    +0.000 C 
ATOM     21  O   UNL     1       4.941   2.599  19.878  0.00  0.00    +0.000 OA
BRANCH  20  22
ATOM     22  O   UNL     1       3.116   1.848  18.687  0.00  0.00    +0.000 OA
BRANCH  22  24
ATOM     23  C   UNL     1       1.422   2.556  20.250  0.00  0.00    +0.000 C 
ATOM     24  C   UNL     1       1.747   2.262  18.798  0.00  0.00    +0.000 C 
ENDBRANCH  22  24
ENDBRANCH  20  22
ENDBRANCH  15  20
ENDBRANCH   1  15
TORSDOF 6
ENDMDL
MODEL 8
REMARK VINA RESULT:      -6.6      6.468      7.774
REMARK  Name = 
REMARK  7 active torsions:
REMARK  status: ('A' for Active; 'I' for Inactive)
REMARK    1  A    between atoms: C_1  and  C_2
REMARK    2  A    between atoms: C_2  and  O_3
REMARK    3  A    between atoms: O_3  and  C_4
REMARK    4  A    between atoms: C_4  and  C_6
REMARK    5  A    between atoms: C_6  and  N_7
REMARK    6  A    between atoms: C_6  and  C_19
REMARK    7  A    between atoms: N_10  and  C_11
REMARK                            x       y       z     vdW  Elec       q    Type
REMARK                         _______ _______ _______ _____ _____    ______ ____
ROOT
ATOM      1  N   UNL     1       3.565   5.600  19.811  0.00  0.00    +0.000 N 
ATOM      2  C   UNL     1       2.872   6.743  19.513  0.00  0.00    +0.000 C 
ATOM      3  O   UNL     1       2.779   7.124  18.352  0.00  0.00    +0.000 OA
ATOM      4  N   UNL     1       2.299   7.337  20.613  0.00  0.00    +0.000 N 
ATOM      5  H   UNL     1       3.835   5.386  20.762  0.00  0.00    +0.000 HD
ATOM      6  H   UNL     1       2.718   7.133  21.507  0.00  0.00    +0.000 HD
ENDROOT
BRANCH   4   7
ATOM      7  C   UNL     1       1.375   8.404  20.555  0.00  0.00    +0.000 A 
ATOM      8  C   UNL     1       1.119   9.113  19.376  0.00  0.00    +0.000 A 
ATOM      9  C   UNL     1       0.231  10.189  19.361  0.00  0.00    +0.000 A 
ATOM     10  C   UNL     1      -0.425  10.567  20.530  0.00  0.00    +0.000 A 
ATOM     11 CL   UNL     1      -1.481  11.931  20.450  0.00  0.00    +0.000 Cl
ATOM     12  C   UNL     1      -0.214   9.843  21.707  0.00  0.00    +0.000 A 
ATOM     13 CL   UNL     1      -0.999  10.246  23.191  0.00  0.00    +0.000 Cl
ATOM     14  C   UNL     1       0.679   8.755  21.715  0.00  0.00    +0.000 A 
ENDBRANCH   4   7
BRANCH   1  15
ATOM     15  C   UNL     1       4.282   4.922  18.712  0.00  0.00    +0.000 C 
BRANCH  15  16
ATOM     16  C   UNL     1       5.744   5.326  18.538  0.00  0.00    +0.000 C 
ATOM     17  F   UNL     1       6.478   4.401  17.878  0.00  0.00    +0.000 F 
ATOM     18  F   UNL     1       5.859   6.482  17.843  0.00  0.00    +0.000 F 
ATOM     19  F   UNL     1       6.355   5.515  19.736  0.00  0.00    +0.000 F 
ENDBRANCH  15  16
BRANCH  15  20
ATOM     20  C   UNL     1       4.241   3.433  18.916  0.00  0.00    +0.000 C 
ATOM     21  O   UNL     1       4.780   2.846  19.849  0.00  0.00    +0.000 OA
BRANCH  20  22
ATOM     22  O   UNL     1       3.518   2.848  17.920  0.00  0.00    +0.000 OA
BRANCH  22  24
ATOM     23  C   UNL     1       1.203   2.807  18.592  0.00  0.00    +0.000 C 
ATOM     24  C   UNL     1       2.448   1.984  18.327  0.00  0.00    +0.000 C 
ENDBRANCH  22  24
ENDBRANCH  20  22
ENDBRANCH  15  20
ENDBRANCH   1  15
TORSDOF 6
ENDMDL
MODEL 9
REMARK VINA RESULT:      -6.6      7.015      8.155
REMARK  Name = 
REMARK  7 active torsions:
REMARK  status: ('A' for Active; 'I' for Inactive)
REMARK    1  A    between atoms: C_1  and  C_2
REMARK    2  A    between atoms: C_2  and  O_3
REMARK    3  A    between atoms: O_3  and  C_4
REMARK    4  A    between atoms: C_4  and  C_6
REMARK    5  A    between atoms: C_6  and  N_7
REMARK    6  A    between atoms: C_6  and  C_19
REMARK    7  A    between atoms: N_10  and  C_11
REMARK                            x       y       z     vdW  Elec       q    Type
REMARK                         _______ _______ _______ _____ _____    ______ ____
ROOT
ATOM      1  N   UNL     1       3.015   5.785  19.891  0.00  0.00    +0.000 N 
ATOM      2  C   UNL     1       2.402   6.972  19.589  0.00  0.00    +0.000 C 
ATOM      3  O   UNL     1       2.272   7.319  18.420  0.00  0.00    +0.000 OA
ATOM      4  N   UNL     1       1.948   7.650  20.695  0.00  0.00    +0.000 N 
ATOM      5  H   UNL     1       3.324   5.582  20.833  0.00  0.00    +0.000 HD
ATOM      6  H   UNL     1       2.401   7.442  21.571  0.00  0.00    +0.000 HD
ENDROOT
BRANCH   4   7
ATOM      7  C   UNL     1       1.113   8.789  20.648  0.00  0.00    +0.000 A 
ATOM      8  C   UNL     1       0.969   9.566  19.494  0.00  0.00    +0.000 A 
ATOM      9  C   UNL     1       0.169  10.709  19.491  0.00  0.00    +0.000 A 
ATOM     10  C   UNL     1      -0.509  11.088  20.647  0.00  0.00    +0.000 A 
ATOM     11 CL   UNL     1      -1.451  12.534  20.587  0.00  0.00    +0.000 Cl
ATOM     12  C   UNL     1      -0.409  10.299  21.797  0.00  0.00    +0.000 A 
ATOM     13 CL   UNL     1      -1.228  10.699  23.264  0.00  0.00    +0.000 Cl
ATOM     14  C   UNL     1       0.395   9.144  21.793  0.00  0.00    +0.000 A 
ENDBRANCH   4   7
BRANCH   1  15
ATOM     15  C   UNL     1       3.606   5.011  18.780  0.00  0.00    +0.000 C 
BRANCH  15  16
ATOM     16  C   UNL     1       5.004   4.456  19.042  0.00  0.00    +0.000 C 
ATOM     17  F   UNL     1       5.801   5.315  19.718  0.00  0.00    +0.000 F 
ATOM     18  F   UNL     1       4.955   3.316  19.770  0.00  0.00    +0.000 F 
ATOM     19  F   UNL     1       5.651   4.166  17.884  0.00  0.00    +0.000 F 
ENDBRANCH  15  16
BRANCH  15  20
ATOM     20  C   UNL     1       2.712   3.853  18.432  0.00  0.00    +0.000 C 
ATOM     21  O   UNL     1       2.849   3.145  17.439  0.00  0.00    +0.000 OA
BRANCH  20  22
ATOM     22  O   UNL     1       1.743   3.714  19.380  0.00  0.00    +0.000 OA
BRANCH  22  24
ATOM     23  C   UNL     1       1.819   2.704  21.568  0.00  0.00    +0.000 C 
ATOM     24  C   UNL     1       1.702   2.460  20.076  0.00  0.00    +0.000 C 
ENDBRANCH  22  24
ENDBRANCH  20  22
ENDBRANCH  15  20
ENDBRANCH   1  15
TORSDOF 6
ENDMDL
