MODEL 1
REMARK VINA RESULT:      -8.1      0.000      0.000
REMARK  Name = 
REMARK  10 active torsions:
REMARK  status: ('A' for Active; 'I' for Inactive)
REMARK    1  A    between atoms: C_1  and  N_2
REMARK    2  A    between atoms: N_2  and  C_3
REMARK    3  A    between atoms: N_2  and  C_10
REMARK    4  A    between atoms: C_3  and  C_4
REMARK    5  A    between atoms: C_10  and  C_11
REMARK    6  A    between atoms: N_14  and  C_15
REMARK    7  A    between atoms: C_15  and  C_16
REMARK    8  A    between atoms: C_16  and  C_17
REMARK    9  A    between atoms: C_17  and  C_18
REMARK   10  A    between atoms: C_24  and  N_25
REMARK                            x       y       z     vdW  Elec       q    Type
REMARK                         _______ _______ _______ _____ _____    ______ ____
ROOT
ATOM      1  C   UNL     1       7.628   8.834  17.730  0.00  0.00    +0.000 C 
ENDROOT
BRANCH   1   5
ATOM      2  C   UNL     1       6.102   4.648  17.492  0.00  0.00    +0.000 C 
ATOM      3  C   UNL     1       7.526   4.976  17.987  0.00  0.00    +0.000 C 
ATOM      4  C   UNL     1       7.744   6.449  18.398  0.00  0.00    +0.000 C 
ATOM      5  N   UNL     1       7.411   7.404  17.322  0.00  0.00    +0.000 NA
ATOM      6  C   UNL     1       5.979   7.163  16.948  0.00  0.00    +0.000 C 
ATOM      7  C   UNL     1       5.722   5.720  16.460  0.00  0.00    +0.000 C 
BRANCH   2   8
ATOM      8  C   UNL     1       5.070   4.439  18.651  0.00  0.00    +0.000 C 
BRANCH   8  10
ATOM      9  C   UNL     1       2.777   3.958  17.905  0.00  0.00    +0.000 C 
ATOM     10  N   UNL     1       3.709   4.978  18.409  0.00  0.00    +0.000 NA
BRANCH  10  11
ATOM     11  C   UNL     1       3.127   5.590  19.636  0.00  0.00    +0.000 C 
BRANCH  11  12
ATOM     12  C   UNL     1       2.517   6.964  19.369  0.00  0.00    +0.000 A 
ATOM     13  C   UNL     1       1.801   7.666  20.355  0.00  0.00    +0.000 A 
ATOM     14  C   UNL     1       1.184   8.880  20.052  0.00  0.00    +0.000 A 
ATOM     15  C   UNL     1       1.278   9.406  18.763  0.00  0.00    +0.000 A 
ATOM     16  C   UNL     1       1.995   8.729  17.779  0.00  0.00    +0.000 A 
ATOM     17  C   UNL     1       2.623   7.523  18.089  0.00  0.00    +0.000 A 
ENDBRANCH  11  12
ENDBRANCH  10  11
ENDBRANCH   8  10
ENDBRANCH   2   8
ENDBRANCH   1   5
BRANCH   1  18
ATOM     18  C   UNL     1       8.974   9.375  18.419  0.00  0.00    +0.000 C 
BRANCH  18  19
ATOM     19  C   UNL     1       9.642  10.921  18.381  0.00  0.00    +0.000 C 
BRANCH  19  20
ATOM     20  C   UNL     1       9.348  11.876  19.607  0.00  0.00    +0.000 A 
ATOM     21  C   UNL     1       8.925  13.134  19.174  0.00  0.00    +0.000 A 
ATOM     22  N   UNL     1       9.738  13.876  19.998  0.00  0.00    +0.000 N 
ATOM     23  C   UNL     1       9.291  13.487  21.247  0.00  0.00    +0.000 A 
ATOM     24  C   UNL     1       9.183  14.311  22.360  0.00  0.00    +0.000 A 
ATOM     25  C   UNL     1       8.594  13.820  23.491  0.00  0.00    +0.000 A 
ATOM     26  C   UNL     1       8.188  12.488  23.585  0.00  0.00    +0.000 A 
ATOM     27  C   UNL     1       8.516  11.558  22.459  0.00  0.00    +0.000 A 
ATOM     28  C   UNL     1       8.999  12.109  21.142  0.00  0.00    +0.000 A 
ATOM     29  H   UNL     1      10.733  13.941  19.848  0.00  0.00    +0.000 HD
BRANCH  26  30
ATOM     30  N   UNL     1       7.418  12.236  24.815  0.00  0.00    +0.000 N 
ATOM     31  C   UNL     1       6.320  11.369  24.939  0.00  0.00    +0.000 A 
ATOM     32  N   UNL     1       5.831  11.366  26.154  0.00  0.00    +0.000 NA
ATOM     33  N   UNL     1       6.599  12.239  26.870  0.00  0.00    +0.000 NA
ATOM     34  C   UNL     1       7.516  12.724  26.089  0.00  0.00    +0.000 A 
ENDBRANCH  26  30
ENDBRANCH  19  20
ENDBRANCH  18  19
ENDBRANCH   1  18
TORSDOF 9
ENDMDL
MODEL 2
REMARK VINA RESULT:      -8.0      5.340      7.927
REMARK  Name = 
REMARK  10 active torsions:
REMARK  status: ('A' for Active; 'I' for Inactive)
REMARK    1  A    between atoms: C_1  and  N_2
REMARK    2  A    between atoms: N_2  and  C_3
REMARK    3  A    between atoms: N_2  and  C_10
REMARK    4  A    between atoms: C_3  and  C_4
REMARK    5  A    between atoms: C_10  and  C_11
REMARK    6  A    between atoms: N_14  and  C_15
REMARK    7  A    between atoms: C_15  and  C_16
REMARK    8  A    between atoms: C_16  and  C_17
REMARK    9  A    between atoms: C_17  and  C_18
REMARK   10  A    between atoms: C_24  and  N_25
REMARK                            x       y       z     vdW  Elec       q    Type
REMARK                         _______ _______ _______ _____ _____    ______ ____
ROOT
ATOM      1  C   UNL     1       1.255   5.390  20.289  0.00  0.00    +0.000 C 
ENDROOT
BRANCH   1   5
ATOM      2  C   UNL     1       4.071   3.291  17.537  0.00  0.00    +0.000 C 
ATOM      3  C   UNL     1       2.540   3.209  17.364  0.00  0.00    +0.000 C 
ATOM      4  C   UNL     1       1.745   4.299  18.116  0.00  0.00    +0.000 C 
ATOM      5  N   UNL     1       2.034   4.328  19.565  0.00  0.00    +0.000 NA
ATOM      6  C   UNL     1       3.510   4.546  19.715  0.00  0.00    +0.000 C 
ATOM      7  C   UNL     1       4.351   3.441  19.040  0.00  0.00    +0.000 C 
BRANCH   2   8
ATOM      8  C   UNL     1       4.746   4.365  16.619  0.00  0.00    +0.000 C 
BRANCH   8  10
ATOM      9  C   UNL     1       5.319   4.453  14.229  0.00  0.00    +0.000 C 
ATOM     10  N   UNL     1       5.607   3.835  15.532  0.00  0.00    +0.000 NA
BRANCH  10  11
ATOM     11  C   UNL     1       7.055   4.012  15.833  0.00  0.00    +0.000 C 
BRANCH  11  12
ATOM     12  C   UNL     1       7.307   5.126  16.847  0.00  0.00    +0.000 A 
ATOM     13  C   UNL     1       7.221   6.485  16.497  0.00  0.00    +0.000 A 
ATOM     14  C   UNL     1       7.540   7.477  17.426  0.00  0.00    +0.000 A 
ATOM     15  C   UNL     1       7.945   7.121  18.712  0.00  0.00    +0.000 A 
ATOM     16  C   UNL     1       8.022   5.779  19.079  0.00  0.00    +0.000 A 
ATOM     17  C   UNL     1       7.688   4.791  18.153  0.00  0.00    +0.000 A 
ENDBRANCH  11  12
ENDBRANCH  10  11
ENDBRANCH   8  10
ENDBRANCH   2   8
ENDBRANCH   1   5
BRANCH   1  18
ATOM     18  C   UNL     1       1.781   6.891  20.512  0.00  0.00    +0.000 C 
BRANCH  18  19
ATOM     19  C   UNL     1       2.061   8.102  19.375  0.00  0.00    +0.000 C 
BRANCH  19  20
ATOM     20  C   UNL     1       1.149   9.391  19.438  0.00  0.00    +0.000 A 
ATOM     21  C   UNL     1       0.739   9.781  18.161  0.00  0.00    +0.000 A 
ATOM     22  N   UNL     1       1.020  11.120  18.298  0.00  0.00    +0.000 N 
ATOM     23  C   UNL     1       0.177  11.473  19.334  0.00  0.00    +0.000 A 
ATOM     24  C   UNL     1      -0.501  12.679  19.449  0.00  0.00    +0.000 A 
ATOM     25  C   UNL     1      -1.409  12.834  20.460  0.00  0.00    +0.000 A 
ATOM     26  C   UNL     1      -1.598  11.848  21.429  0.00  0.00    +0.000 A 
ATOM     27  C   UNL     1      -0.698  10.652  21.420  0.00  0.00    +0.000 A 
ATOM     28  C   UNL     1       0.179  10.377  20.225  0.00  0.00    +0.000 A 
ATOM     29  H   UNL     1       1.966  11.467  18.314  0.00  0.00    +0.000 HD
BRANCH  26  30
ATOM     30  N   UNL     1      -2.745  12.151  22.301  0.00  0.00    +0.000 N 
ATOM     31  C   UNL     1      -3.937  12.783  21.909  0.00  0.00    +0.000 A 
ATOM     32  N   UNL     1      -4.767  12.930  22.910  0.00  0.00    +0.000 NA
ATOM     33  N   UNL     1      -4.141  12.398  24.000  0.00  0.00    +0.000 NA
ATOM     34  C   UNL     1      -2.982  11.943  23.632  0.00  0.00    +0.000 A 
ENDBRANCH  26  30
ENDBRANCH  19  20
ENDBRANCH  18  19
ENDBRANCH   1  18
TORSDOF 9
ENDMDL
MODEL 3
REMARK VINA RESULT:      -7.9      3.130      3.719
REMARK  Name = 
REMARK  10 active torsions:
REMARK  status: ('A' for Active; 'I' for Inactive)
REMARK    1  A    between atoms: C_1  and  N_2
REMARK    2  A    between atoms: N_2  and  C_3
REMARK    3  A    between atoms: N_2  and  C_10
REMARK    4  A    between atoms: C_3  and  C_4
REMARK    5  A    between atoms: C_10  and  C_11
REMARK    6  A    between atoms: N_14  and  C_15
REMARK    7  A    between atoms: C_15  and  C_16
REMARK    8  A    between atoms: C_16  and  C_17
REMARK    9  A    between atoms: C_17  and  C_18
REMARK   10  A    between atoms: C_24  and  N_25
REMARK                            x       y       z     vdW  Elec       q    Type
REMARK                         _______ _______ _______ _____ _____    ______ ____
ROOT
ATOM      1  C   UNL     1       8.233   7.897  18.534  0.00  0.00    +0.000 C 
ENDROOT
BRANCH   1   5
ATOM      2  C   UNL     1       5.404   4.936  16.762  0.00  0.00    +0.000 C 
ATOM      3  C   UNL     1       6.884   4.595  17.035  0.00  0.00    +0.000 C 
ATOM      4  C   UNL     1       7.599   5.557  18.011  0.00  0.00    +0.000 C 
ATOM      5  N   UNL     1       7.534   6.968  17.580  0.00  0.00    +0.000 NA
ATOM      6  C   UNL     1       6.083   7.323  17.452  0.00  0.00    +0.000 C 
ATOM      7  C   UNL     1       5.337   6.435  16.432  0.00  0.00    +0.000 C 
BRANCH   2   8
ATOM      8  C   UNL     1       4.433   4.454  17.892  0.00  0.00    +0.000 C 
BRANCH   8  10
ATOM      9  C   UNL     1       1.981   4.300  17.798  0.00  0.00    +0.000 C 
ATOM     10  N   UNL     1       3.142   5.181  17.987  0.00  0.00    +0.000 NA
BRANCH  10  11
ATOM     11  C   UNL     1       2.998   5.888  19.291  0.00  0.00    +0.000 C 
BRANCH  11  12
ATOM     12  C   UNL     1       2.334   7.255  19.141  0.00  0.00    +0.000 A 
ATOM     13  C   UNL     1       2.391   7.982  17.940  0.00  0.00    +0.000 A 
ATOM     14  C   UNL     1       1.847   9.265  17.863  0.00  0.00    +0.000 A 
ATOM     15  C   UNL     1       1.240   9.832  18.984  0.00  0.00    +0.000 A 
ATOM     16  C   UNL     1       1.164   9.118  20.178  0.00  0.00    +0.000 A 
ATOM     17  C   UNL     1       1.695   7.831  20.246  0.00  0.00    +0.000 A 
ENDBRANCH  11  12
ENDBRANCH  10  11
ENDBRANCH   8  10
ENDBRANCH   2   8
ENDBRANCH   1   5
BRANCH   1  18
ATOM     18  C   UNL     1       8.531   9.444  18.222  0.00  0.00    +0.000 C 
BRANCH  18  19
ATOM     19  C   UNL     1       9.401  10.564  19.130  0.00  0.00    +0.000 C 
BRANCH  19  20
ATOM     20  C   UNL     1       9.208  12.095  18.787  0.00  0.00    +0.000 A 
ATOM     21  C   UNL     1       9.160  12.298  17.406  0.00  0.00    +0.000 A 
ATOM     22  N   UNL     1      10.027  13.365  17.364  0.00  0.00    +0.000 N 
ATOM     23  C   UNL     1       9.354  14.295  18.133  0.00  0.00    +0.000 A 
ATOM     24  C   UNL     1       9.321  15.664  17.901  0.00  0.00    +0.000 A 
ATOM     25  C   UNL     1       8.500  16.445  18.667  0.00  0.00    +0.000 A 
ATOM     26  C   UNL     1       7.773  15.915  19.733  0.00  0.00    +0.000 A 
ATOM     27  C   UNL     1       7.994  14.483  20.110  0.00  0.00    +0.000 A 
ATOM     28  C   UNL     1       8.748  13.566  19.182  0.00  0.00    +0.000 A 
ATOM     29  H   UNL     1      11.017  13.252  17.511  0.00  0.00    +0.000 HD
BRANCH  26  30
ATOM     30  N   UNL     1       6.826  16.895  20.290  0.00  0.00    +0.000 N 
ATOM     31  C   UNL     1       5.699  17.421  19.636  0.00  0.00    +0.000 A 
ATOM     32  N   UNL     1       5.058  18.286  20.380  0.00  0.00    +0.000 NA
ATOM     33  N   UNL     1       5.750  18.357  21.556  0.00  0.00    +0.000 NA
ATOM     34  C   UNL     1       6.759  17.542  21.494  0.00  0.00    +0.000 A 
ENDBRANCH  26  30
ENDBRANCH  19  20
ENDBRANCH  18  19
ENDBRANCH   1  18
TORSDOF 9
ENDMDL
MODEL 4
REMARK VINA RESULT:      -7.9      6.081      9.183
REMARK  Name = 
REMARK  10 active torsions:
REMARK  status: ('A' for Active; 'I' for Inactive)
REMARK    1  A    between atoms: C_1  and  N_2
REMARK    2  A    between atoms: N_2  and  C_3
REMARK    3  A    between atoms: N_2  and  C_10
REMARK    4  A    between atoms: C_3  and  C_4
REMARK    5  A    between atoms: C_10  and  C_11
REMARK    6  A    between atoms: N_14  and  C_15
REMARK    7  A    between atoms: C_15  and  C_16
REMARK    8  A    between atoms: C_16  and  C_17
REMARK    9  A    between atoms: C_17  and  C_18
REMARK   10  A    between atoms: C_24  and  N_25
REMARK                            x       y       z     vdW  Elec       q    Type
REMARK                         _______ _______ _______ _____ _____    ______ ____
ROOT
ATOM      1  C   UNL     1       0.799   8.912  20.221  0.00  0.00    +0.000 C 
ENDROOT
BRANCH   1   5
ATOM      2  C   UNL     1       3.576   5.953  18.365  0.00  0.00    +0.000 C 
ATOM      3  C   UNL     1       3.331   6.006  19.887  0.00  0.00    +0.000 C 
ATOM      4  C   UNL     1       2.062   6.779  20.311  0.00  0.00    +0.000 C 
ATOM      5  N   UNL     1       2.035   8.166  19.802  0.00  0.00    +0.000 NA
ATOM      6  C   UNL     1       2.137   8.088  18.308  0.00  0.00    +0.000 C 
ATOM      7  C   UNL     1       3.427   7.386  17.832  0.00  0.00    +0.000 C 
BRANCH   2   8
ATOM      8  C   UNL     1       2.716   4.871  17.631  0.00  0.00    +0.000 C 
BRANCH   8  10
ATOM      9  C   UNL     1       4.794   4.271  16.462  0.00  0.00    +0.000 C 
ATOM     10  N   UNL     1       3.477   3.810  16.925  0.00  0.00    +0.000 NA
BRANCH  10  11
ATOM     11  C   UNL     1       3.668   2.603  17.778  0.00  0.00    +0.000 C 
BRANCH  11  12
ATOM     12  C   UNL     1       2.795   2.632  19.031  0.00  0.00    +0.000 A 
ATOM     13  C   UNL     1       1.402   2.803  18.964  0.00  0.00    +0.000 A 
ATOM     14  C   UNL     1       0.645   2.911  20.132  0.00  0.00    +0.000 A 
ATOM     15  C   UNL     1       1.272   2.845  21.376  0.00  0.00    +0.000 A 
ATOM     16  C   UNL     1       2.651   2.661  21.459  0.00  0.00    +0.000 A 
ATOM     17  C   UNL     1       3.402   2.540  20.290  0.00  0.00    +0.000 A 
ENDBRANCH  11  12
ENDBRANCH  10  11
ENDBRANCH   8  10
ENDBRANCH   2   8
ENDBRANCH   1   5
BRANCH   1  18
ATOM     18  C   UNL     1       0.020   8.653  21.602  0.00  0.00    +0.000 C 
BRANCH  18  19
ATOM     19  C   UNL     1      -0.114   9.652  22.951  0.00  0.00    +0.000 C 
BRANCH  19  20
ATOM     20  C   UNL     1      -0.947  10.987  22.793  0.00  0.00    +0.000 A 
ATOM     21  C   UNL     1      -0.670  11.612  21.576  0.00  0.00    +0.000 A 
ATOM     22  N   UNL     1      -0.504  12.883  22.076  0.00  0.00    +0.000 N 
ATOM     23  C   UNL     1      -1.754  13.133  22.610  0.00  0.00    +0.000 A 
ATOM     24  C   UNL     1      -2.409  14.357  22.596  0.00  0.00    +0.000 A 
ATOM     25  C   UNL     1      -3.700  14.421  23.040  0.00  0.00    +0.000 A 
ATOM     26  C   UNL     1      -4.339  13.310  23.593  0.00  0.00    +0.000 A 
ATOM     27  C   UNL     1      -3.545  12.060  23.807  0.00  0.00    +0.000 A 
ATOM     28  C   UNL     1      -2.188  11.910  23.169  0.00  0.00    +0.000 A 
ATOM     29  H   UNL     1       0.306  13.141  22.617  0.00  0.00    +0.000 HD
BRANCH  26  30
ATOM     30  N   UNL     1      -5.771  13.563  23.828  0.00  0.00    +0.000 N 
ATOM     31  C   UNL     1      -6.436  14.786  23.642  0.00  0.00    +0.000 A 
ATOM     32  N   UNL     1      -7.706  14.707  23.950  0.00  0.00    +0.000 NA
ATOM     33  N   UNL     1      -7.916  13.419  24.352  0.00  0.00    +0.000 NA
ATOM     34  C   UNL     1      -6.795  12.769  24.266  0.00  0.00    +0.000 A 
ENDBRANCH  26  30
ENDBRANCH  19  20
ENDBRANCH  18  19
ENDBRANCH   1  18
TORSDOF 9
ENDMDL
MODEL 5
REMARK VINA RESULT:      -7.9      1.155      1.486
REMARK  Name = 
REMARK  10 active torsions:
REMARK  status: ('A' for Active; 'I' for Inactive)
REMARK    1  A    between atoms: C_1  and  N_2
REMARK    2  A    between atoms: N_2  and  C_3
REMARK    3  A    between atoms: N_2  and  C_10
REMARK    4  A    between atoms: C_3  and  C_4
REMARK    5  A    between atoms: C_10  and  C_11
REMARK    6  A    between atoms: N_14  and  C_15
REMARK    7  A    between atoms: C_15  and  C_16
REMARK    8  A    between atoms: C_16  and  C_17
REMARK    9  A    between atoms: C_17  and  C_18
REMARK   10  A    between atoms: C_24  and  N_25
REMARK                            x       y       z     vdW  Elec       q    Type
REMARK                         _______ _______ _______ _____ _____    ______ ____
ROOT
ATOM      1  C   UNL     1       8.090   8.120  18.285  0.00  0.00    +0.000 C 
ENDROOT
BRANCH   1   5
ATOM      2  C   UNL     1       5.458   4.909  16.650  0.00  0.00    +0.000 C 
ATOM      3  C   UNL     1       6.934   4.652  17.019  0.00  0.00    +0.000 C 
ATOM      4  C   UNL     1       7.566   5.720  17.939  0.00  0.00    +0.000 C 
ATOM      5  N   UNL     1       7.471   7.087  17.384  0.00  0.00    +0.000 NA
ATOM      6  C   UNL     1       6.016   7.370  17.161  0.00  0.00    +0.000 C 
ATOM      7  C   UNL     1       5.353   6.370  16.189  0.00  0.00    +0.000 C 
BRANCH   2   8
ATOM      8  C   UNL     1       4.451   4.486  17.773  0.00  0.00    +0.000 C 
BRANCH   8  10
ATOM      9  C   UNL     1       1.993   4.560  17.790  0.00  0.00    +0.000 C 
ATOM     10  N   UNL     1       3.239   5.332  17.904  0.00  0.00    +0.000 NA
BRANCH  10  11
ATOM     11  C   UNL     1       3.220   6.079  19.193  0.00  0.00    +0.000 C 
BRANCH  11  12
ATOM     12  C   UNL     1       2.399   7.364  19.110  0.00  0.00    +0.000 A 
ATOM     13  C   UNL     1       2.405   8.178  17.964  0.00  0.00    +0.000 A 
ATOM     14  C   UNL     1       1.711   9.389  17.951  0.00  0.00    +0.000 A 
ATOM     15  C   UNL     1       1.003   9.796  19.082  0.00  0.00    +0.000 A 
ATOM     16  C   UNL     1       0.976   8.994  20.221  0.00  0.00    +0.000 A 
ATOM     17  C   UNL     1       1.659   7.778  20.224  0.00  0.00    +0.000 A 
ENDBRANCH  11  12
ENDBRANCH  10  11
ENDBRANCH   8  10
ENDBRANCH   2   8
ENDBRANCH   1   5
BRANCH   1  18
ATOM     18  C   UNL     1       8.243   9.671  17.896  0.00  0.00    +0.000 C 
BRANCH  18  19
ATOM     19  C   UNL     1       9.597  10.666  18.007  0.00  0.00    +0.000 C 
BRANCH  19  20
ATOM     20  C   UNL     1       9.581  11.806  19.102  0.00  0.00    +0.000 A 
ATOM     21  C   UNL     1       9.909  13.043  18.546  0.00  0.00    +0.000 A 
ATOM     22  N   UNL     1      10.810  13.426  19.511  0.00  0.00    +0.000 N 
ATOM     23  C   UNL     1      10.008  13.466  20.635  0.00  0.00    +0.000 A 
ATOM     24  C   UNL     1      10.108  14.389  21.668  0.00  0.00    +0.000 A 
ATOM     25  C   UNL     1       9.155  14.390  22.649  0.00  0.00    +0.000 A 
ATOM     26  C   UNL     1       8.146  13.428  22.688  0.00  0.00    +0.000 A 
ATOM     27  C   UNL     1       8.185  12.306  21.697  0.00  0.00    +0.000 A 
ATOM     28  C   UNL     1       9.110  12.383  20.509  0.00  0.00    +0.000 A 
ATOM     29  H   UNL     1      11.720  13.000  19.590  0.00  0.00    +0.000 HD
BRANCH  26  30
ATOM     30  N   UNL     1       7.137  13.734  23.716  0.00  0.00    +0.000 N 
ATOM     31  C   UNL     1       6.080  12.897  24.112  0.00  0.00    +0.000 A 
ATOM     32  N   UNL     1       5.336  13.450  25.037  0.00  0.00    +0.000 NA
ATOM     33  N   UNL     1       5.886  14.676  25.279  0.00  0.00    +0.000 NA
ATOM     34  C   UNL     1       6.928  14.822  24.519  0.00  0.00    +0.000 A 
ENDBRANCH  26  30
ENDBRANCH  19  20
ENDBRANCH  18  19
ENDBRANCH   1  18
TORSDOF 9
ENDMDL
MODEL 6
REMARK VINA RESULT:      -7.8      6.038      8.308
REMARK  Name = 
REMARK  10 active torsions:
REMARK  status: ('A' for Active; 'I' for Inactive)
REMARK    1  A    between atoms: C_1  and  N_2
REMARK    2  A    between atoms: N_2  and  C_3
REMARK    3  A    between atoms: N_2  and  C_10
REMARK    4  A    between atoms: C_3  and  C_4
REMARK    5  A    between atoms: C_10  and  C_11
REMARK    6  A    between atoms: N_14  and  C_15
REMARK    7  A    between atoms: C_15  and  C_16
REMARK    8  A    between atoms: C_16  and  C_17
REMARK    9  A    between atoms: C_17  and  C_18
REMARK   10  A    between atoms: C_24  and  N_25
REMARK                            x       y       z     vdW  Elec       q    Type
REMARK                         _______ _______ _______ _____ _____    ______ ____
ROOT
ATOM      1  C   UNL     1       1.142   5.274  20.188  0.00  0.00    +0.000 C 
ENDROOT
BRANCH   1   5
ATOM      2  C   UNL     1       4.539   3.405  17.981  0.00  0.00    +0.000 C 
ATOM      3  C   UNL     1       3.230   3.817  17.276  0.00  0.00    +0.000 C 
ATOM      4  C   UNL     1       2.350   4.805  18.073  0.00  0.00    +0.000 C 
ATOM      5  N   UNL     1       1.999   4.307  19.419  0.00  0.00    +0.000 NA
ATOM      6  C   UNL     1       3.288   4.042  20.139  0.00  0.00    +0.000 C 
ATOM      7  C   UNL     1       4.174   3.004  19.417  0.00  0.00    +0.000 C 
BRANCH   2   8
ATOM      8  C   UNL     1       5.680   4.469  17.851  0.00  0.00    +0.000 C 
BRANCH   8  10
ATOM      9  C   UNL     1       5.312   6.729  16.954  0.00  0.00    +0.000 C 
ATOM     10  N   UNL     1       5.628   5.328  16.641  0.00  0.00    +0.000 NA
BRANCH  10  11
ATOM     11  C   UNL     1       6.905   5.287  15.875  0.00  0.00    +0.000 C 
BRANCH  11  12
ATOM     12  C   UNL     1       6.715   4.759  14.455  0.00  0.00    +0.000 A 
ATOM     13  C   UNL     1       5.683   3.864  14.125  0.00  0.00    +0.000 A 
ATOM     14  C   UNL     1       5.589   3.335  12.837  0.00  0.00    +0.000 A 
ATOM     15  C   UNL     1       6.523   3.698  11.866  0.00  0.00    +0.000 A 
ATOM     16  C   UNL     1       7.544   4.594  12.174  0.00  0.00    +0.000 A 
ATOM     17  C   UNL     1       7.626   5.132  13.458  0.00  0.00    +0.000 A 
ENDBRANCH  11  12
ENDBRANCH  10  11
ENDBRANCH   8  10
ENDBRANCH   2   8
ENDBRANCH   1   5
BRANCH   1  18
ATOM     18  C   UNL     1       1.592   6.769  20.563  0.00  0.00    +0.000 C 
BRANCH  18  19
ATOM     19  C   UNL     1       2.016   8.041  19.543  0.00  0.00    +0.000 C 
BRANCH  19  20
ATOM     20  C   UNL     1       1.097   9.326  19.554  0.00  0.00    +0.000 A 
ATOM     21  C   UNL     1       0.697   9.669  18.261  0.00  0.00    +0.000 A 
ATOM     22  N   UNL     1       0.969  11.014  18.353  0.00  0.00    +0.000 N 
ATOM     23  C   UNL     1       0.115  11.398  19.369  0.00  0.00    +0.000 A 
ATOM     24  C   UNL     1      -0.571  12.603  19.437  0.00  0.00    +0.000 A 
ATOM     25  C   UNL     1      -1.489  12.788  20.433  0.00  0.00    +0.000 A 
ATOM     26  C   UNL     1      -1.681  11.835  21.434  0.00  0.00    +0.000 A 
ATOM     27  C   UNL     1      -0.775  10.644  21.475  0.00  0.00    +0.000 A 
ATOM     28  C   UNL     1       0.114  10.333  20.298  0.00  0.00    +0.000 A 
ATOM     29  H   UNL     1       1.913  11.367  18.365  0.00  0.00    +0.000 HD
BRANCH  26  30
ATOM     30  N   UNL     1      -2.838  12.161  22.285  0.00  0.00    +0.000 N 
ATOM     31  C   UNL     1      -4.082  12.639  21.840  0.00  0.00    +0.000 A 
ATOM     32  N   UNL     1      -4.909  12.854  22.833  0.00  0.00    +0.000 NA
ATOM     33  N   UNL     1      -4.227  12.523  23.969  0.00  0.00    +0.000 NA
ATOM     34  C   UNL     1      -3.040  12.115  23.637  0.00  0.00    +0.000 A 
ENDBRANCH  26  30
ENDBRANCH  19  20
ENDBRANCH  18  19
ENDBRANCH   1  18
TORSDOF 9
ENDMDL
MODEL 7
REMARK VINA RESULT:      -7.8      2.305      3.574
REMARK  Name = 
REMARK  10 active torsions:
REMARK  status: ('A' for Active; 'I' for Inactive)
REMARK    1  A    between atoms: C_1  and  N_2
REMARK    2  A    between atoms: N_2  and  C_3
REMARK    3  A    between atoms: N_2  and  C_10
REMARK    4  A    between atoms: C_3  and  C_4
REMARK    5  A    between atoms: C_10  and  C_11
REMARK    6  A    between atoms: N_14  and  C_15
REMARK    7  A    between atoms: C_15  and  C_16
REMARK    8  A    between atoms: C_16  and  C_17
REMARK    9  A    between atoms: C_17  and  C_18
REMARK   10  A    between atoms: C_24  and  N_25
REMARK                            x       y       z     vdW  Elec       q    Type
REMARK                         _______ _______ _______ _____ _____    ______ ____
ROOT
ATOM      1  C   UNL     1       7.892   7.811  18.153  0.00  0.00    +0.000 C 
ENDROOT
BRANCH   1   5
ATOM      2  C   UNL     1       5.267   4.778  16.200  0.00  0.00    +0.000 C 
ATOM      3  C   UNL     1       6.769   4.525  16.448  0.00  0.00    +0.000 C 
ATOM      4  C   UNL     1       7.421   5.470  17.482  0.00  0.00    +0.000 C 
ATOM      5  N   UNL     1       7.253   6.899  17.143  0.00  0.00    +0.000 NA
ATOM      6  C   UNL     1       5.780   7.157  17.041  0.00  0.00    +0.000 C 
ATOM      7  C   UNL     1       5.092   6.286  15.968  0.00  0.00    +0.000 C 
BRANCH   2   8
ATOM      8  C   UNL     1       4.340   4.156  17.298  0.00  0.00    +0.000 C 
BRANCH   8  10
ATOM      9  C   UNL     1       1.918   4.180  17.725  0.00  0.00    +0.000 C 
ATOM     10  N   UNL     1       3.158   4.969  17.679  0.00  0.00    +0.000 NA
BRANCH  10  11
ATOM     11  C   UNL     1       3.346   5.638  18.998  0.00  0.00    +0.000 C 
BRANCH  11  12
ATOM     12  C   UNL     1       2.523   6.918  19.124  0.00  0.00    +0.000 A 
ATOM     13  C   UNL     1       2.356   7.805  18.046  0.00  0.00    +0.000 A 
ATOM     14  C   UNL     1       1.669   9.007  18.218  0.00  0.00    +0.000 A 
ATOM     15  C   UNL     1       1.142   9.334  19.468  0.00  0.00    +0.000 A 
ATOM     16  C   UNL     1       1.287   8.459  20.542  0.00  0.00    +0.000 A 
ATOM     17  C   UNL     1       1.961   7.252  20.362  0.00  0.00    +0.000 A 
ENDBRANCH  11  12
ENDBRANCH  10  11
ENDBRANCH   8  10
ENDBRANCH   2   8
ENDBRANCH   1   5
BRANCH   1  18
ATOM     18  C   UNL     1       8.259   9.348  17.866  0.00  0.00    +0.000 C 
BRANCH  18  19
ATOM     19  C   UNL     1       9.658  10.200  18.260  0.00  0.00    +0.000 C 
BRANCH  19  20
ATOM     20  C   UNL     1       9.533  11.364  19.321  0.00  0.00    +0.000 A 
ATOM     21  C   UNL     1      10.662  11.421  20.140  0.00  0.00    +0.000 A 
ATOM     22  N   UNL     1       9.995  11.528  21.338  0.00  0.00    +0.000 N 
ATOM     23  C   UNL     1       9.315  12.719  21.167  0.00  0.00    +0.000 A 
ATOM     24  C   UNL     1       9.082  13.666  22.155  0.00  0.00    +0.000 A 
ATOM     25  C   UNL     1       8.514  14.860  21.807  0.00  0.00    +0.000 A 
ATOM     26  C   UNL     1       8.078  15.109  20.505  0.00  0.00    +0.000 A 
ATOM     27  C   UNL     1       8.130  13.996  19.506  0.00  0.00    +0.000 A 
ATOM     28  C   UNL     1       8.908  12.742  19.814  0.00  0.00    +0.000 A 
ATOM     29  H   UNL     1       9.499  10.750  21.743  0.00  0.00    +0.000 HD
BRANCH  26  30
ATOM     30  N   UNL     1       7.674  16.514  20.322  0.00  0.00    +0.000 N 
ATOM     31  C   UNL     1       6.691  17.194  21.060  0.00  0.00    +0.000 A 
ATOM     32  N   UNL     1       6.542  18.430  20.657  0.00  0.00    +0.000 NA
ATOM     33  N   UNL     1       7.428  18.602  19.632  0.00  0.00    +0.000 NA
ATOM     34  C   UNL     1       8.081  17.493  19.458  0.00  0.00    +0.000 A 
ENDBRANCH  26  30
ENDBRANCH  19  20
ENDBRANCH  18  19
ENDBRANCH   1  18
TORSDOF 9
ENDMDL
MODEL 8
REMARK VINA RESULT:      -7.6      5.992      9.881
REMARK  Name = 
REMARK  10 active torsions:
REMARK  status: ('A' for Active; 'I' for Inactive)
REMARK    1  A    between atoms: C_1  and  N_2
REMARK    2  A    between atoms: N_2  and  C_3
REMARK    3  A    between atoms: N_2  and  C_10
REMARK    4  A    between atoms: C_3  and  C_4
REMARK    5  A    between atoms: C_10  and  C_11
REMARK    6  A    between atoms: N_14  and  C_15
REMARK    7  A    between atoms: C_15  and  C_16
REMARK    8  A    between atoms: C_16  and  C_17
REMARK    9  A    between atoms: C_17  and  C_18
REMARK   10  A    between atoms: C_24  and  N_25
REMARK                            x       y       z     vdW  Elec       q    Type
REMARK                         _______ _______ _______ _____ _____    ______ ____
ROOT
ATOM      1  C   UNL     1       2.087   6.250  20.704  0.00  0.00    +0.000 C 
ENDROOT
BRANCH   1   5
ATOM      2  C   UNL     1       1.009   9.941  18.440  0.00  0.00    +0.000 C 
ATOM      3  C   UNL     1       1.973   8.880  17.869  0.00  0.00    +0.000 C 
ATOM      4  C   UNL     1       1.911   7.505  18.572  0.00  0.00    +0.000 C 
ATOM      5  N   UNL     1       2.147   7.592  20.028  0.00  0.00    +0.000 NA
ATOM      6  C   UNL     1       1.113   8.522  20.587  0.00  0.00    +0.000 C 
ATOM      7  C   UNL     1       1.180   9.934  19.966  0.00  0.00    +0.000 C 
BRANCH   2   8
ATOM      8  C   UNL     1      -0.463   9.786  17.929  0.00  0.00    +0.000 C 
BRANCH   8  10
ATOM      9  C   UNL     1      -2.494  10.893  17.093  0.00  0.00    +0.000 C 
ATOM     10  N   UNL     1      -1.267  11.033  17.891  0.00  0.00    +0.000 NA
BRANCH  10  11
ATOM     11  C   UNL     1      -1.638  11.497  19.258  0.00  0.00    +0.000 C 
BRANCH  11  12
ATOM     12  C   UNL     1      -1.298  12.968  19.485  0.00  0.00    +0.000 A 
ATOM     13  C   UNL     1      -1.951  13.740  20.462  0.00  0.00    +0.000 A 
ATOM     14  C   UNL     1      -1.678  15.103  20.587  0.00  0.00    +0.000 A 
ATOM     15  C   UNL     1      -0.749  15.707  19.739  0.00  0.00    +0.000 A 
ATOM     16  C   UNL     1      -0.084  14.952  18.775  0.00  0.00    +0.000 A 
ATOM     17  C   UNL     1      -0.349  13.588  18.663  0.00  0.00    +0.000 A 
ENDBRANCH  11  12
ENDBRANCH  10  11
ENDBRANCH   8  10
ENDBRANCH   2   8
ENDBRANCH   1   5
BRANCH   1  18
ATOM     18  C   UNL     1       1.359   4.963  20.077  0.00  0.00    +0.000 C 
BRANCH  18  19
ATOM     19  C   UNL     1       2.032   3.647  19.269  0.00  0.00    +0.000 C 
BRANCH  19  20
ATOM     20  C   UNL     1       3.485   3.820  18.672  0.00  0.00    +0.000 A 
ATOM     21  C   UNL     1       4.424   3.108  19.421  0.00  0.00    +0.000 A 
ATOM     22  N   UNL     1       5.360   4.112  19.511  0.00  0.00    +0.000 N 
ATOM     23  C   UNL     1       5.678   4.311  18.181  0.00  0.00    +0.000 A 
ATOM     24  C   UNL     1       6.940   4.614  17.688  0.00  0.00    +0.000 A 
ATOM     25  C   UNL     1       7.130   4.647  16.334  0.00  0.00    +0.000 A 
ATOM     26  C   UNL     1       6.070   4.479  15.443  0.00  0.00    +0.000 A 
ATOM     27  C   UNL     1       4.681   4.379  15.991  0.00  0.00    +0.000 A 
ATOM     28  C   UNL     1       4.467   4.162  17.467  0.00  0.00    +0.000 A 
ATOM     29  H   UNL     1       5.218   4.922  20.094  0.00  0.00    +0.000 HD
BRANCH  26  30
ATOM     30  N   UNL     1       6.538   4.369  14.051  0.00  0.00    +0.000 N 
ATOM     31  C   UNL     1       7.491   5.194  13.431  0.00  0.00    +0.000 A 
ATOM     32  N   UNL     1       7.689   4.862  12.180  0.00  0.00    +0.000 NA
ATOM     33  N   UNL     1       6.865   3.801  11.937  0.00  0.00    +0.000 NA
ATOM     34  C   UNL     1       6.216   3.521  13.026  0.00  0.00    +0.000 A 
ENDBRANCH  26  30
ENDBRANCH  19  20
ENDBRANCH  18  19
ENDBRANCH   1  18
TORSDOF 9
ENDMDL
MODEL 9
REMARK VINA RESULT:      -7.4      5.165      7.683
REMARK  Name = 
REMARK  10 active torsions:
REMARK  status: ('A' for Active; 'I' for Inactive)
REMARK    1  A    between atoms: C_1  and  N_2
REMARK    2  A    between atoms: N_2  and  C_3
REMARK    3  A    between atoms: N_2  and  C_10
REMARK    4  A    between atoms: C_3  and  C_4
REMARK    5  A    between atoms: C_10  and  C_11
REMARK    6  A    between atoms: N_14  and  C_15
REMARK    7  A    between atoms: C_15  and  C_16
REMARK    8  A    between atoms: C_16  and  C_17
REMARK    9  A    between atoms: C_17  and  C_18
REMARK   10  A    between atoms: C_24  and  N_25
REMARK                            x       y       z     vdW  Elec       q    Type
REMARK                         _______ _______ _______ _____ _____    ______ ____
ROOT
ATOM      1  C   UNL     1       1.673   5.670  20.335  0.00  0.00    +0.000 C 
ENDROOT
BRANCH   1   5
ATOM      2  C   UNL     1       4.155   3.451  17.365  0.00  0.00    +0.000 C 
ATOM      3  C   UNL     1       2.614   3.475  17.292  0.00  0.00    +0.000 C 
ATOM      4  C   UNL     1       1.945   4.599  18.115  0.00  0.00    +0.000 C 
ATOM      5  N   UNL     1       2.329   4.575  19.542  0.00  0.00    +0.000 NA
ATOM      6  C   UNL     1       3.823   4.691  19.598  0.00  0.00    +0.000 C 
ATOM      7  C   UNL     1       4.541   3.547  18.849  0.00  0.00    +0.000 C 
BRANCH   2   8
ATOM      8  C   UNL     1       4.841   4.498  16.424  0.00  0.00    +0.000 C 
BRANCH   8  10
ATOM      9  C   UNL     1       5.030   4.227  13.987  0.00  0.00    +0.000 C 
ATOM     10  N   UNL     1       5.628   3.935  15.299  0.00  0.00    +0.000 NA
BRANCH  10  11
ATOM     11  C   UNL     1       7.034   4.430  15.302  0.00  0.00    +0.000 C 
BRANCH  11  12
ATOM     12  C   UNL     1       7.370   5.219  16.566  0.00  0.00    +0.000 A 
ATOM     13  C   UNL     1       7.699   4.582  17.775  0.00  0.00    +0.000 A 
ATOM     14  C   UNL     1       7.918   5.330  18.933  0.00  0.00    +0.000 A 
ATOM     15  C   UNL     1       7.813   6.720  18.892  0.00  0.00    +0.000 A 
ATOM     16  C   UNL     1       7.501   7.367  17.698  0.00  0.00    +0.000 A 
ATOM     17  C   UNL     1       7.298   6.617  16.541  0.00  0.00    +0.000 A 
ENDBRANCH  11  12
ENDBRANCH  10  11
ENDBRANCH   8  10
ENDBRANCH   2   8
ENDBRANCH   1   5
BRANCH   1  18
ATOM     18  C   UNL     1       1.935   7.235  20.089  0.00  0.00    +0.000 C 
BRANCH  18  19
ATOM     19  C   UNL     1       1.552   8.547  21.074  0.00  0.00    +0.000 C 
BRANCH  19  20
ATOM     20  C   UNL     1       0.890   9.809  20.389  0.00  0.00    +0.000 A 
ATOM     21  C   UNL     1      -0.463   9.907  20.718  0.00  0.00    +0.000 A 
ATOM     22  N   UNL     1      -0.927  10.146  19.446  0.00  0.00    +0.000 N 
ATOM     23  C   UNL     1      -0.293  11.336  19.141  0.00  0.00    +0.000 A 
ATOM     24  C   UNL     1      -0.840  12.378  18.404  0.00  0.00    +0.000 A 
ATOM     25  C   UNL     1      -0.145  13.551  18.300  0.00  0.00    +0.000 A 
ATOM     26  C   UNL     1       1.136  13.690  18.835  0.00  0.00    +0.000 A 
ATOM     27  C   UNL     1       1.801  12.488  19.429  0.00  0.00    +0.000 A 
ATOM     28  C   UNL     1       0.996  11.245  19.713  0.00  0.00    +0.000 A 
ATOM     29  H   UNL     1      -0.949   9.424  18.743  0.00  0.00    +0.000 HD
BRANCH  26  30
ATOM     30  N   UNL     1       1.609  15.083  18.766  0.00  0.00    +0.000 N 
ATOM     31  C   UNL     1       0.800  16.227  18.662  0.00  0.00    +0.000 A 
ATOM     32  N   UNL     1       1.508  17.326  18.603  0.00  0.00    +0.000 NA
ATOM     33  N   UNL     1       2.815  16.936  18.665  0.00  0.00    +0.000 NA
ATOM     34  C   UNL     1       2.858  15.642  18.769  0.00  0.00    +0.000 A 
ENDBRANCH  26  30
ENDBRANCH  19  20
ENDBRANCH  18  19
ENDBRANCH   1  18
TORSDOF 9
ENDMDL
