MODEL 1
REMARK VINA RESULT:      -7.6      0.000      0.000
REMARK  Name = 
REMARK  6 active torsions:
REMARK  status: ('A' for Active; 'I' for Inactive)
REMARK    1  A    between atoms: N_9  and  C_10
REMARK    2  A    between atoms: C_10  and  C_11
REMARK    3  A    between atoms: C_11  and  C_12
REMARK    4  A    between atoms: C_12  and  C_13
REMARK    5  A    between atoms: C_13  and  O_14
REMARK    6  A    between atoms: O_14  and  C_15
REMARK                            x       y       z     vdW  Elec       q    Type
REMARK                         _______ _______ _______ _____ _____    ______ ____
ROOT
ATOM      1  C   UNL     1       1.323   3.788  19.582  0.00  0.00    +0.000 C 
ENDROOT
BRANCH   1   2
ATOM      2  C   UNL     1       1.488   3.823  18.059  0.00  0.00    +0.000 C 
BRANCH   2   3
ATOM      3  C   UNL     1       2.686   3.026  17.518  0.00  0.00    +0.000 C 
BRANCH   3  12
ATOM      4  C   UNL     1       6.559   6.590  17.301  0.00  0.00    +0.000 A 
ATOM      5  C   UNL     1       5.632   6.349  16.287  0.00  0.00    +0.000 A 
ATOM      6  C   UNL     1       4.681   5.324  16.389  0.00  0.00    +0.000 A 
ATOM      7  C   UNL     1       4.730   4.528  17.539  0.00  0.00    +0.000 A 
ATOM      8  C   UNL     1       5.691   4.718  18.537  0.00  0.00    +0.000 A 
ATOM      9  C   UNL     1       6.597   5.784  18.442  0.00  0.00    +0.000 A 
ATOM     10  N   UNL     1       5.570   3.776  19.525  0.00  0.00    +0.000 NA
ATOM     11  C   UNL     1       4.555   3.028  19.168  0.00  0.00    +0.000 A 
ATOM     12  N   UNL     1       3.963   3.494  18.023  0.00  0.00    +0.000 N 
ENDBRANCH   3  12
ENDBRANCH   2   3
ENDBRANCH   1   2
BRANCH   1  13
ATOM     13  C   UNL     1       1.267   5.158  20.245  0.00  0.00    +0.000 C 
BRANCH  13  14
ATOM     14  O   UNL     1       2.527   5.844  20.123  0.00  0.00    +0.000 OA
BRANCH  14  15
ATOM     15  C   UNL     1       2.337   7.141  19.698  0.00  0.00    +0.000 A 
ATOM     16  C   UNL     1       2.642   7.545  18.389  0.00  0.00    +0.000 A 
ATOM     17  C   UNL     1       2.030   8.659  17.831  0.00  0.00    +0.000 A 
ATOM     18  C   UNL     1       1.159   9.360  18.636  0.00  0.00    +0.000 A 
ATOM     19  C   UNL     1       1.070   9.123  20.015  0.00  0.00    +0.000 A 
ATOM     20  C   UNL     1       1.640   7.994  20.570  0.00  0.00    +0.000 A 
ATOM     21  C   UNL     1       0.096  10.085  20.622  0.00  0.00    +0.000 C 
ATOM     22  C   UNL     1      -0.871  10.157  19.437  0.00  0.00    +0.000 C 
ATOM     23  C   UNL     1       0.042  10.261  18.204  0.00  0.00    +0.000 C 
ENDBRANCH  14  15
ENDBRANCH  13  14
ENDBRANCH   1  13
TORSDOF 6
ENDMDL
MODEL 2
REMARK VINA RESULT:      -7.4      0.916      1.012
REMARK  Name = 
REMARK  6 active torsions:
REMARK  status: ('A' for Active; 'I' for Inactive)
REMARK    1  A    between atoms: N_9  and  C_10
REMARK    2  A    between atoms: C_10  and  C_11
REMARK    3  A    between atoms: C_11  and  C_12
REMARK    4  A    between atoms: C_12  and  C_13
REMARK    5  A    between atoms: C_13  and  O_14
REMARK    6  A    between atoms: O_14  and  C_15
REMARK                            x       y       z     vdW  Elec       q    Type
REMARK                         _______ _______ _______ _____ _____    ______ ____
ROOT
ATOM      1  C   UNL     1       0.830   3.273  19.117  0.00  0.00    +0.000 C 
ENDROOT
BRANCH   1   2
ATOM      2  C   UNL     1       2.052   2.347  19.141  0.00  0.00    +0.000 C 
BRANCH   2   3
ATOM      3  C   UNL     1       2.956   2.437  17.901  0.00  0.00    +0.000 C 
BRANCH   3  12
ATOM      4  C   UNL     1       6.633   5.810  16.212  0.00  0.00    +0.000 A 
ATOM      5  C   UNL     1       5.716   5.146  15.396  0.00  0.00    +0.000 A 
ATOM      6  C   UNL     1       4.822   4.199  15.914  0.00  0.00    +0.000 A 
ATOM      7  C   UNL     1       4.918   3.921  17.282  0.00  0.00    +0.000 A 
ATOM      8  C   UNL     1       5.870   4.534  18.102  0.00  0.00    +0.000 A 
ATOM      9  C   UNL     1       6.718   5.518  17.576  0.00  0.00    +0.000 A 
ATOM     10  N   UNL     1       5.804   4.051  19.384  0.00  0.00    +0.000 NA
ATOM     11  C   UNL     1       4.828   3.175  19.373  0.00  0.00    +0.000 A 
ATOM     12  N   UNL     1       4.209   3.126  18.152  0.00  0.00    +0.000 N 
ENDBRANCH   3  12
ENDBRANCH   2   3
ENDBRANCH   1   2
BRANCH   1  13
ATOM     13  C   UNL     1       0.854   4.380  20.162  0.00  0.00    +0.000 C 
BRANCH  13  14
ATOM     14  O   UNL     1       2.196   4.855  20.382  0.00  0.00    +0.000 OA
BRANCH  14  15
ATOM     15  C   UNL     1       2.340   6.144  19.919  0.00  0.00    +0.000 A 
ATOM     16  C   UNL     1       2.813   6.420  18.627  0.00  0.00    +0.000 A 
ATOM     17  C   UNL     1       2.513   7.624  18.005  0.00  0.00    +0.000 A 
ATOM     18  C   UNL     1       1.778   8.535  18.733  0.00  0.00    +0.000 A 
ATOM     19  C   UNL     1       1.549   8.374  20.106  0.00  0.00    +0.000 A 
ATOM     20  C   UNL     1       1.805   7.165  20.723  0.00  0.00    +0.000 A 
ATOM     21  C   UNL     1       0.788   9.556  20.623  0.00  0.00    +0.000 C 
ATOM     22  C   UNL     1      -0.058   9.806  19.372  0.00  0.00    +0.000 C 
ATOM     23  C   UNL     1       0.931   9.653  18.204  0.00  0.00    +0.000 C 
ENDBRANCH  14  15
ENDBRANCH  13  14
ENDBRANCH   1  13
TORSDOF 6
ENDMDL
MODEL 3
REMARK VINA RESULT:      -7.3      4.937      7.653
REMARK  Name = 
REMARK  6 active torsions:
REMARK  status: ('A' for Active; 'I' for Inactive)
REMARK    1  A    between atoms: N_9  and  C_10
REMARK    2  A    between atoms: C_10  and  C_11
REMARK    3  A    between atoms: C_11  and  C_12
REMARK    4  A    between atoms: C_12  and  C_13
REMARK    5  A    between atoms: C_13  and  O_14
REMARK    6  A    between atoms: O_14  and  C_15
REMARK                            x       y       z     vdW  Elec       q    Type
REMARK                         _______ _______ _______ _____ _____    ______ ____
ROOT
ATOM      1  C   UNL     1       7.741   7.615  17.364  0.00  0.00    +0.000 C 
ENDROOT
BRANCH   1   2
ATOM      2  C   UNL     1       7.482   6.603  18.486  0.00  0.00    +0.000 C 
BRANCH   2   3
ATOM      3  C   UNL     1       7.692   5.132  18.093  0.00  0.00    +0.000 C 
BRANCH   3  12
ATOM      4  C   UNL     1       2.639   3.687  18.455  0.00  0.00    +0.000 A 
ATOM      5  C   UNL     1       3.486   3.924  19.538  0.00  0.00    +0.000 A 
ATOM      6  C   UNL     1       4.844   4.225  19.357  0.00  0.00    +0.000 A 
ATOM      7  C   UNL     1       5.319   4.238  18.041  0.00  0.00    +0.000 A 
ATOM      8  C   UNL     1       4.497   3.944  16.949  0.00  0.00    +0.000 A 
ATOM      9  C   UNL     1       3.130   3.699  17.147  0.00  0.00    +0.000 A 
ATOM     10  N   UNL     1       5.207   3.960  15.777  0.00  0.00    +0.000 NA
ATOM     11  C   UNL     1       6.434   4.273  16.120  0.00  0.00    +0.000 A 
ATOM     12  N   UNL     1       6.531   4.534  17.462  0.00  0.00    +0.000 N 
ENDBRANCH   3  12
ENDBRANCH   2   3
ENDBRANCH   1   2
BRANCH   1  13
ATOM     13  C   UNL     1       7.944   9.048  17.837  0.00  0.00    +0.000 C 
BRANCH  13  14
ATOM     14  O   UNL     1       8.797   9.093  18.997  0.00  0.00    +0.000 OA
BRANCH  14  15
ATOM     15  C   UNL     1       9.266  10.371  19.210  0.00  0.00    +0.000 A 
ATOM     16  C   UNL     1       9.714  10.796  20.470  0.00  0.00    +0.000 A 
ATOM     17  C   UNL     1      10.600  11.859  20.584  0.00  0.00    +0.000 A 
ATOM     18  C   UNL     1      10.969  12.491  19.417  0.00  0.00    +0.000 A 
ATOM     19  C   UNL     1      10.311  12.249  18.203  0.00  0.00    +0.000 A 
ATOM     20  C   UNL     1       9.462  11.168  18.069  0.00  0.00    +0.000 A 
ATOM     21  C   UNL     1      10.888  13.134  17.141  0.00  0.00    +0.000 C 
ATOM     22  C   UNL     1      12.332  13.130  17.648  0.00  0.00    +0.000 C 
ATOM     23  C   UNL     1      12.204  13.303  19.171  0.00  0.00    +0.000 C 
ENDBRANCH  14  15
ENDBRANCH  13  14
ENDBRANCH   1  13
TORSDOF 6
ENDMDL
MODEL 4
REMARK VINA RESULT:      -7.2      1.214      1.978
REMARK  Name = 
REMARK  6 active torsions:
REMARK  status: ('A' for Active; 'I' for Inactive)
REMARK    1  A    between atoms: N_9  and  C_10
REMARK    2  A    between atoms: C_10  and  C_11
REMARK    3  A    between atoms: C_11  and  C_12
REMARK    4  A    between atoms: C_12  and  C_13
REMARK    5  A    between atoms: C_13  and  O_14
REMARK    6  A    between atoms: O_14  and  C_15
REMARK                            x       y       z     vdW  Elec       q    Type
REMARK                         _______ _______ _______ _____ _____    ______ ____
ROOT
ATOM      1  C   UNL     1       2.322   2.809  20.806  0.00  0.00    +0.000 C 
ENDROOT
BRANCH   1   2
ATOM      2  C   UNL     1       3.163   2.327  19.619  0.00  0.00    +0.000 C 
BRANCH   2   3
ATOM      3  C   UNL     1       4.594   2.888  19.569  0.00  0.00    +0.000 C 
BRANCH   3  12
ATOM      4  C   UNL     1       7.549   6.572  17.237  0.00  0.00    +0.000 A 
ATOM      5  C   UNL     1       7.479   6.351  18.613  0.00  0.00    +0.000 A 
ATOM      6  C   UNL     1       6.603   5.403  19.161  0.00  0.00    +0.000 A 
ATOM      7  C   UNL     1       5.774   4.717  18.267  0.00  0.00    +0.000 A 
ATOM      8  C   UNL     1       5.790   4.969  16.892  0.00  0.00    +0.000 A 
ATOM      9  C   UNL     1       6.711   5.881  16.358  0.00  0.00    +0.000 A 
ATOM     10  N   UNL     1       4.846   4.217  16.241  0.00  0.00    +0.000 NA
ATOM     11  C   UNL     1       4.268   3.502  17.175  0.00  0.00    +0.000 A 
ATOM     12  N   UNL     1       4.851   3.706  18.399  0.00  0.00    +0.000 N 
ENDBRANCH   3  12
ENDBRANCH   2   3
ENDBRANCH   1   2
BRANCH   1  13
ATOM     13  C   UNL     1       1.338   3.923  20.475  0.00  0.00    +0.000 C 
BRANCH  13  14
ATOM     14  O   UNL     1       1.610   4.484  19.177  0.00  0.00    +0.000 OA
BRANCH  14  15
ATOM     15  C   UNL     1       1.965   5.811  19.282  0.00  0.00    +0.000 A 
ATOM     16  C   UNL     1       2.413   6.549  18.176  0.00  0.00    +0.000 A 
ATOM     17  C   UNL     1       2.308   7.933  18.158  0.00  0.00    +0.000 A 
ATOM     18  C   UNL     1       1.791   8.533  19.286  0.00  0.00    +0.000 A 
ATOM     19  C   UNL     1       1.607   7.827  20.483  0.00  0.00    +0.000 A 
ATOM     20  C   UNL     1       1.668   6.447  20.499  0.00  0.00    +0.000 A 
ATOM     21  C   UNL     1       1.103   8.763  21.538  0.00  0.00    +0.000 C 
ATOM     22  C   UNL     1       0.254   9.649  20.623  0.00  0.00    +0.000 C 
ATOM     23  C   UNL     1       1.137   9.878  19.385  0.00  0.00    +0.000 C 
ENDBRANCH  14  15
ENDBRANCH  13  14
ENDBRANCH   1  13
TORSDOF 6
ENDMDL
MODEL 5
REMARK VINA RESULT:      -7.1      1.395      3.664
REMARK  Name = 
REMARK  6 active torsions:
REMARK  status: ('A' for Active; 'I' for Inactive)
REMARK    1  A    between atoms: N_9  and  C_10
REMARK    2  A    between atoms: C_10  and  C_11
REMARK    3  A    between atoms: C_11  and  C_12
REMARK    4  A    between atoms: C_12  and  C_13
REMARK    5  A    between atoms: C_13  and  O_14
REMARK    6  A    between atoms: O_14  and  C_15
REMARK                            x       y       z     vdW  Elec       q    Type
REMARK                         _______ _______ _______ _____ _____    ______ ____
ROOT
ATOM      1  C   UNL     1       5.127   6.373  16.411  0.00  0.00    +0.000 C 
ENDROOT
BRANCH   1   2
ATOM      2  C   UNL     1       4.987   4.852  16.291  0.00  0.00    +0.000 C 
BRANCH   2   3
ATOM      3  C   UNL     1       3.690   4.272  16.876  0.00  0.00    +0.000 C 
BRANCH   3  12
ATOM      4  C   UNL     1       1.346   2.777  21.351  0.00  0.00    +0.000 A 
ATOM      5  C   UNL     1       0.729   3.486  20.319  0.00  0.00    +0.000 A 
ATOM      6  C   UNL     1       1.446   3.919  19.195  0.00  0.00    +0.000 A 
ATOM      7  C   UNL     1       2.817   3.642  19.173  0.00  0.00    +0.000 A 
ATOM      8  C   UNL     1       3.461   2.985  20.226  0.00  0.00    +0.000 A 
ATOM      9  C   UNL     1       2.717   2.511  21.316  0.00  0.00    +0.000 A 
ATOM     10  N   UNL     1       4.810   2.888  19.998  0.00  0.00    +0.000 NA
ATOM     11  C   UNL     1       5.004   3.451  18.829  0.00  0.00    +0.000 A 
ATOM     12  N   UNL     1       3.822   3.843  18.256  0.00  0.00    +0.000 N 
ENDBRANCH   3  12
ENDBRANCH   2   3
ENDBRANCH   1   2
BRANCH   1  13
ATOM     13  C   UNL     1       4.370   6.989  17.580  0.00  0.00    +0.000 C 
BRANCH  13  14
ATOM     14  O   UNL     1       3.321   7.859  17.116  0.00  0.00    +0.000 OA
BRANCH  14  15
ATOM     15  C   UNL     1       2.371   8.047  18.096  0.00  0.00    +0.000 A 
ATOM     16  C   UNL     1       2.364   7.288  19.276  0.00  0.00    +0.000 A 
ATOM     17  C   UNL     1       1.752   7.771  20.425  0.00  0.00    +0.000 A 
ATOM     18  C   UNL     1       1.124   8.993  20.329  0.00  0.00    +0.000 A 
ATOM     19  C   UNL     1       0.892   9.612  19.093  0.00  0.00    +0.000 A 
ATOM     20  C   UNL     1       1.531   9.164  17.954  0.00  0.00    +0.000 A 
ATOM     21  C   UNL     1       0.130  10.883  19.310  0.00  0.00    +0.000 C 
ATOM     22  C   UNL     1       0.767  11.266  20.649  0.00  0.00    +0.000 C 
ATOM     23  C   UNL     1       0.814   9.949  21.441  0.00  0.00    +0.000 C 
ENDBRANCH  14  15
ENDBRANCH  13  14
ENDBRANCH   1  13
TORSDOF 6
ENDMDL
MODEL 6
REMARK VINA RESULT:      -7.1      5.838      8.383
REMARK  Name = 
REMARK  6 active torsions:
REMARK  status: ('A' for Active; 'I' for Inactive)
REMARK    1  A    between atoms: N_9  and  C_10
REMARK    2  A    between atoms: C_10  and  C_11
REMARK    3  A    between atoms: C_11  and  C_12
REMARK    4  A    between atoms: C_12  and  C_13
REMARK    5  A    between atoms: C_13  and  O_14
REMARK    6  A    between atoms: O_14  and  C_15
REMARK                            x       y       z     vdW  Elec       q    Type
REMARK                         _______ _______ _______ _____ _____    ______ ____
ROOT
ATOM      1  C   UNL     1       8.445   8.410  18.282  0.00  0.00    +0.000 C 
ENDROOT
BRANCH   1   2
ATOM      2  C   UNL     1       8.583   9.935  18.366  0.00  0.00    +0.000 C 
BRANCH   2   3
ATOM      3  C   UNL     1       9.432  10.444  19.542  0.00  0.00    +0.000 C 
BRANCH   3  12
ATOM      4  C   UNL     1      11.243  14.666  16.963  0.00  0.00    +0.000 A 
ATOM      5  C   UNL     1      11.612  13.346  16.702  0.00  0.00    +0.000 A 
ATOM      6  C   UNL     1      11.147  12.283  17.490  0.00  0.00    +0.000 A 
ATOM      7  C   UNL     1      10.327  12.612  18.575  0.00  0.00    +0.000 A 
ATOM      8  C   UNL     1       9.996  13.934  18.885  0.00  0.00    +0.000 A 
ATOM      9  C   UNL     1      10.425  14.977  18.053  0.00  0.00    +0.000 A 
ATOM     10  N   UNL     1       9.236  13.999  20.024  0.00  0.00    +0.000 NA
ATOM     11  C   UNL     1       9.079  12.755  20.408  0.00  0.00    +0.000 A 
ATOM     12  N   UNL     1       9.645  11.879  19.519  0.00  0.00    +0.000 N 
ENDBRANCH   3  12
ENDBRANCH   2   3
ENDBRANCH   1   2
BRANCH   1  13
ATOM     13  C   UNL     1       7.302   7.925  17.402  0.00  0.00    +0.000 C 
BRANCH  13  14
ATOM     14  O   UNL     1       7.653   6.705  16.723  0.00  0.00    +0.000 OA
BRANCH  14  15
ATOM     15  C   UNL     1       6.528   5.962  16.439  0.00  0.00    +0.000 A 
ATOM     16  C   UNL     1       6.602   4.732  15.767  0.00  0.00    +0.000 A 
ATOM     17  C   UNL     1       5.592   3.789  15.903  0.00  0.00    +0.000 A 
ATOM     18  C   UNL     1       4.511   4.142  16.682  0.00  0.00    +0.000 A 
ATOM     19  C   UNL     1       4.311   5.459  17.118  0.00  0.00    +0.000 A 
ATOM     20  C   UNL     1       5.326   6.391  17.026  0.00  0.00    +0.000 A 
ATOM     21  C   UNL     1       3.022   5.539  17.877  0.00  0.00    +0.000 C 
ATOM     22  C   UNL     1       3.086   4.148  18.516  0.00  0.00    +0.000 C 
ATOM     23  C   UNL     1       3.551   3.225  17.377  0.00  0.00    +0.000 C 
ENDBRANCH  14  15
ENDBRANCH  13  14
ENDBRANCH   1  13
TORSDOF 6
ENDMDL
MODEL 7
REMARK VINA RESULT:      -7.1      3.507      7.935
REMARK  Name = 
REMARK  6 active torsions:
REMARK  status: ('A' for Active; 'I' for Inactive)
REMARK    1  A    between atoms: N_9  and  C_10
REMARK    2  A    between atoms: C_10  and  C_11
REMARK    3  A    between atoms: C_11  and  C_12
REMARK    4  A    between atoms: C_12  and  C_13
REMARK    5  A    between atoms: C_13  and  O_14
REMARK    6  A    between atoms: O_14  and  C_15
REMARK                            x       y       z     vdW  Elec       q    Type
REMARK                         _______ _______ _______ _____ _____    ______ ____
ROOT
ATOM      1  C   UNL     1       2.149   8.989  17.641  0.00  0.00    +0.000 C 
ENDROOT
BRANCH   1   2
ATOM      2  C   UNL     1       1.535  10.205  18.343  0.00  0.00    +0.000 C 
BRANCH   2   3
ATOM      3  C   UNL     1       0.379   9.881  19.304  0.00  0.00    +0.000 C 
BRANCH   3  12
ATOM      4  C   UNL     1      -4.146  10.899  16.808  0.00  0.00    +0.000 A 
ATOM      5  C   UNL     1      -3.139  10.058  16.333  0.00  0.00    +0.000 A 
ATOM      6  C   UNL     1      -1.926   9.904  17.020  0.00  0.00    +0.000 A 
ATOM      7  C   UNL     1      -1.757  10.664  18.183  0.00  0.00    +0.000 A 
ATOM      8  C   UNL     1      -2.733  11.555  18.639  0.00  0.00    +0.000 A 
ATOM      9  C   UNL     1      -3.960  11.653  17.969  0.00  0.00    +0.000 A 
ATOM     10  N   UNL     1      -2.307  12.224  19.758  0.00  0.00    +0.000 NA
ATOM     11  C   UNL     1      -1.109  11.754  20.007  0.00  0.00    +0.000 A 
ATOM     12  N   UNL     1      -0.770  10.751  19.136  0.00  0.00    +0.000 N 
ENDBRANCH   3  12
ENDBRANCH   2   3
ENDBRANCH   1   2
BRANCH   1  13
ATOM     13  C   UNL     1       2.450   7.812  18.559  0.00  0.00    +0.000 C 
BRANCH  13  14
ATOM     14  O   UNL     1       3.672   7.154  18.173  0.00  0.00    +0.000 OA
BRANCH  14  15
ATOM     15  C   UNL     1       3.416   5.888  17.693  0.00  0.00    +0.000 A 
ATOM     16  C   UNL     1       4.386   5.147  17.002  0.00  0.00    +0.000 A 
ATOM     17  C   UNL     1       4.313   3.762  16.948  0.00  0.00    +0.000 A 
ATOM     18  C   UNL     1       3.229   3.171  17.560  0.00  0.00    +0.000 A 
ATOM     19  C   UNL     1       2.129   3.918  18.002  0.00  0.00    +0.000 A 
ATOM     20  C   UNL     1       2.209   5.294  18.099  0.00  0.00    +0.000 A 
ATOM     21  C   UNL     1       1.089   2.992  18.552  0.00  0.00    +0.000 C 
ATOM     22  C   UNL     1       2.047   1.956  19.148  0.00  0.00    +0.000 C 
ATOM     23  C   UNL     1       3.123   1.764  18.067  0.00  0.00    +0.000 C 
ENDBRANCH  14  15
ENDBRANCH  13  14
ENDBRANCH   1  13
TORSDOF 6
ENDMDL
MODEL 8
REMARK VINA RESULT:      -6.9      1.516      3.994
REMARK  Name = 
REMARK  6 active torsions:
REMARK  status: ('A' for Active; 'I' for Inactive)
REMARK    1  A    between atoms: N_9  and  C_10
REMARK    2  A    between atoms: C_10  and  C_11
REMARK    3  A    between atoms: C_11  and  C_12
REMARK    4  A    between atoms: C_12  and  C_13
REMARK    5  A    between atoms: C_13  and  O_14
REMARK    6  A    between atoms: O_14  and  C_15
REMARK                            x       y       z     vdW  Elec       q    Type
REMARK                         _______ _______ _______ _____ _____    ______ ____
ROOT
ATOM      1  C   UNL     1       5.996   5.222  17.722  0.00  0.00    +0.000 C 
ENDROOT
BRANCH   1   2
ATOM      2  C   UNL     1       5.125   4.400  16.766  0.00  0.00    +0.000 C 
BRANCH   2   3
ATOM      3  C   UNL     1       4.633   3.058  17.331  0.00  0.00    +0.000 C 
BRANCH   3  12
ATOM      4  C   UNL     1       1.384   3.020  21.477  0.00  0.00    +0.000 A 
ATOM      5  C   UNL     1       2.699   2.554  21.483  0.00  0.00    +0.000 A 
ATOM      6  C   UNL     1       3.473   2.523  20.315  0.00  0.00    +0.000 A 
ATOM      7  C   UNL     1       2.852   2.943  19.133  0.00  0.00    +0.000 A 
ATOM      8  C   UNL     1       1.516   3.356  19.099  0.00  0.00    +0.000 A 
ATOM      9  C   UNL     1       0.777   3.433  20.288  0.00  0.00    +0.000 A 
ATOM     10  N   UNL     1       1.124   3.657  17.821  0.00  0.00    +0.000 NA
ATOM     11  C   UNL     1       2.185   3.456  17.077  0.00  0.00    +0.000 A 
ATOM     12  N   UNL     1       3.273   3.109  17.835  0.00  0.00    +0.000 N 
ENDBRANCH   3  12
ENDBRANCH   2   3
ENDBRANCH   1   2
BRANCH   1  13
ATOM     13  C   UNL     1       5.474   6.623  18.010  0.00  0.00    +0.000 C 
BRANCH  13  14
ATOM     14  O   UNL     1       4.344   6.936  17.172  0.00  0.00    +0.000 OA
BRANCH  14  15
ATOM     15  C   UNL     1       3.221   7.170  17.935  0.00  0.00    +0.000 A 
ATOM     16  C   UNL     1       3.013   6.530  19.166  0.00  0.00    +0.000 A 
ATOM     17  C   UNL     1       2.180   7.091  20.125  0.00  0.00    +0.000 A 
ATOM     18  C   UNL     1       1.545   8.267  19.787  0.00  0.00    +0.000 A 
ATOM     19  C   UNL     1       1.534   8.751  18.472  0.00  0.00    +0.000 A 
ATOM     20  C   UNL     1       2.391   8.227  17.524  0.00  0.00    +0.000 A 
ATOM     21  C   UNL     1       0.707   9.999  18.411  0.00  0.00    +0.000 C 
ATOM     22  C   UNL     1       1.068  10.539  19.797  0.00  0.00    +0.000 C 
ATOM     23  C   UNL     1       1.002   9.309  20.717  0.00  0.00    +0.000 C 
ENDBRANCH  14  15
ENDBRANCH  13  14
ENDBRANCH   1  13
TORSDOF 6
ENDMDL
MODEL 9
REMARK VINA RESULT:      -6.8      2.228      5.546
REMARK  Name = 
REMARK  6 active torsions:
REMARK  status: ('A' for Active; 'I' for Inactive)
REMARK    1  A    between atoms: N_9  and  C_10
REMARK    2  A    between atoms: C_10  and  C_11
REMARK    3  A    between atoms: C_11  and  C_12
REMARK    4  A    between atoms: C_12  and  C_13
REMARK    5  A    between atoms: C_13  and  O_14
REMARK    6  A    between atoms: O_14  and  C_15
REMARK                            x       y       z     vdW  Elec       q    Type
REMARK                         _______ _______ _______ _____ _____    ______ ____
ROOT
ATOM      1  C   UNL     1       3.605   1.642  20.747  0.00  0.00    +0.000 C 
ENDROOT
BRANCH   1   2
ATOM      2  C   UNL     1       2.724   2.659  21.480  0.00  0.00    +0.000 C 
BRANCH   2   3
ATOM      3  C   UNL     1       1.318   2.843  20.887  0.00  0.00    +0.000 C 
BRANCH   3  12
ATOM      4  C   UNL     1       2.517   7.389  18.511  0.00  0.00    +0.000 A 
ATOM      5  C   UNL     1       2.403   7.210  19.890  0.00  0.00    +0.000 A 
ATOM      6  C   UNL     1       1.998   5.985  20.441  0.00  0.00    +0.000 A 
ATOM      7  C   UNL     1       1.675   4.963  19.541  0.00  0.00    +0.000 A 
ATOM      8  C   UNL     1       1.727   5.146  18.156  0.00  0.00    +0.000 A 
ATOM      9  C   UNL     1       2.187   6.360  17.626  0.00  0.00    +0.000 A 
ATOM     10  N   UNL     1       1.306   4.022  17.493  0.00  0.00    +0.000 NA
ATOM     11  C   UNL     1       1.016   3.155  18.432  0.00  0.00    +0.000 A 
ATOM     12  N   UNL     1       1.304   3.646  19.679  0.00  0.00    +0.000 N 
ENDBRANCH   3  12
ENDBRANCH   2   3
ENDBRANCH   1   2
BRANCH   1  13
ATOM     13  C   UNL     1       4.386   2.212  19.571  0.00  0.00    +0.000 C 
BRANCH  13  14
ATOM     14  O   UNL     1       5.128   3.384  19.962  0.00  0.00    +0.000 OA
BRANCH  14  15
ATOM     15  C   UNL     1       5.243   4.263  18.907  0.00  0.00    +0.000 A 
ATOM     16  C   UNL     1       5.921   5.486  19.033  0.00  0.00    +0.000 A 
ATOM     17  C   UNL     1       6.445   6.122  17.916  0.00  0.00    +0.000 A 
ATOM     18  C   UNL     1       6.227   5.521  16.696  0.00  0.00    +0.000 A 
ATOM     19  C   UNL     1       5.321   4.462  16.544  0.00  0.00    +0.000 A 
ATOM     20  C   UNL     1       4.829   3.796  17.649  0.00  0.00    +0.000 A 
ATOM     21  C   UNL     1       5.249   4.075  15.099  0.00  0.00    +0.000 C 
ATOM     22  C   UNL     1       6.715   4.350  14.750  0.00  0.00    +0.000 C 
ATOM     23  C   UNL     1       7.027   5.688  15.440  0.00  0.00    +0.000 C 
ENDBRANCH  14  15
ENDBRANCH  13  14
ENDBRANCH   1  13
TORSDOF 6
ENDMDL
