MODEL 1
REMARK VINA RESULT:      -7.2      0.000      0.000
REMARK  Name = 
REMARK  11 active torsions:
REMARK  status: ('A' for Active; 'I' for Inactive)
REMARK    1  A    between atoms: C_1  and  C_2
REMARK    2  A    between atoms: C_4  and  C_5
REMARK    3  A    between atoms: C_6  and  N_7
REMARK    4  A    between atoms: C_8  and  C_10
REMARK    5  A    between atoms: C_14  and  O_16
REMARK    6  A    between atoms: O_16  and  C_17
REMARK    7  A    between atoms: C_17  and  C_18
REMARK    8  A    between atoms: C_17  and  C_19
REMARK    9  A    between atoms: C_17  and  C_20
REMARK   10  A    between atoms: C_22  and  C_23
REMARK   11  A    between atoms: C_29  and  C_30
REMARK                            x       y       z     vdW  Elec       q    Type
REMARK                         _______ _______ _______ _____ _____    ______ ____
ROOT
ATOM      1  C   UNL     1      -0.978  11.489  20.246  0.00  0.00    +0.000 A 
ATOM      2  S   UNL     1       0.392  10.825  21.088  0.00  0.00    +0.000 S 
ATOM      3  C   UNL     1       0.541   9.629  19.882  0.00  0.00    +0.000 A 
ATOM      4  N   UNL     1       1.650   8.818  19.902  0.00  0.00    +0.000 N 
ATOM      5  C   UNL     1       1.974   8.127  18.755  0.00  0.00    +0.000 C 
ATOM      6  O   UNL     1       1.400   8.232  17.683  0.00  0.00    +0.000 OA
ATOM      7  N   UNL     1      -0.416   9.607  18.996  0.00  0.00    +0.000 NA
ATOM      8  C   UNL     1      -1.259  10.692  19.143  0.00  0.00    +0.000 A 
ATOM      9  H   UNL     1       2.290   8.830  20.678  0.00  0.00    +0.000 HD
ENDROOT
BRANCH   8  10
ATOM     10  C   UNL     1      -2.256  10.942  18.103  0.00  0.00    +0.000 A 
ATOM     11  C   UNL     1      -3.518  11.446  18.453  0.00  0.00    +0.000 A 
ATOM     12  C   UNL     1      -4.506  11.632  17.481  0.00  0.00    +0.000 A 
ATOM     13  C   UNL     1      -4.244  11.324  16.147  0.00  0.00    +0.000 A 
ATOM     14  C   UNL     1      -3.004  10.810  15.789  0.00  0.00    +0.000 A 
ATOM     15  C   UNL     1      -2.029  10.602  16.766  0.00  0.00    +0.000 A 
ENDBRANCH   8  10
BRANCH   1  17
ATOM     16  N   UNL     1      -2.387  12.537  21.866  0.00  0.00    +0.000 N 
ATOM     17  C   UNL     1      -1.651  12.702  20.699  0.00  0.00    +0.000 C 
ATOM     18  O   UNL     1      -1.554  13.776  20.115  0.00  0.00    +0.000 OA
ATOM     19  H   UNL     1      -2.726  11.593  21.994  0.00  0.00    +0.000 HD
BRANCH  16  25
ATOM     20  C   UNL     1      -5.705  16.509  24.348  0.00  0.00    +0.000 C 
ATOM     21  C   UNL     1      -4.831  15.499  23.663  0.00  0.00    +0.000 A 
ATOM     22  C   UNL     1      -5.369  14.535  22.810  0.00  0.00    +0.000 A 
ATOM     23  C   UNL     1      -4.551  13.567  22.201  0.00  0.00    +0.000 A 
ATOM     24  C   UNL     1      -5.182  12.590  21.245  0.00  0.00    +0.000 C 
ATOM     25  C   UNL     1      -3.164  13.571  22.447  0.00  0.00    +0.000 A 
ATOM     26  C   UNL     1      -2.612  14.523  23.332  0.00  0.00    +0.000 A 
ATOM     27  C   UNL     1      -1.172  14.542  23.763  0.00  0.00    +0.000 C 
ATOM     28  C   UNL     1      -3.455  15.493  23.905  0.00  0.00    +0.000 A 
ENDBRANCH  16  25
ENDBRANCH   1  17
BRANCH   5  29
ATOM     29  O   UNL     1       3.077   7.330  18.930  0.00  0.00    +0.000 OA
BRANCH  29  30
ATOM     30  C   UNL     1       2.831   5.913  19.199  0.00  0.00    +0.000 C 
ATOM     31  C   UNL     1       2.268   5.200  17.956  0.00  0.00    +0.000 C 
ATOM     32  C   UNL     1       4.189   5.268  19.526  0.00  0.00    +0.000 C 
ATOM     33  C   UNL     1       1.932   5.716  20.435  0.00  0.00    +0.000 C 
ENDBRANCH  29  30
ENDBRANCH   5  29
TORSDOF 5
ENDMDL
MODEL 2
REMARK VINA RESULT:      -7.2      0.159      1.569
REMARK  Name = 
REMARK  11 active torsions:
REMARK  status: ('A' for Active; 'I' for Inactive)
REMARK    1  A    between atoms: C_1  and  C_2
REMARK    2  A    between atoms: C_4  and  C_5
REMARK    3  A    between atoms: C_6  and  N_7
REMARK    4  A    between atoms: C_8  and  C_10
REMARK    5  A    between atoms: C_14  and  O_16
REMARK    6  A    between atoms: O_16  and  C_17
REMARK    7  A    between atoms: C_17  and  C_18
REMARK    8  A    between atoms: C_17  and  C_19
REMARK    9  A    between atoms: C_17  and  C_20
REMARK   10  A    between atoms: C_22  and  C_23
REMARK   11  A    between atoms: C_29  and  C_30
REMARK                            x       y       z     vdW  Elec       q    Type
REMARK                         _______ _______ _______ _____ _____    ______ ____
ROOT
ATOM      1  C   UNL     1      -1.118  11.438  20.283  0.00  0.00    +0.000 A 
ATOM      2  S   UNL     1       0.248  10.779  21.136  0.00  0.00    +0.000 S 
ATOM      3  C   UNL     1       0.455   9.627  19.896  0.00  0.00    +0.000 A 
ATOM      4  N   UNL     1       1.582   8.842  19.917  0.00  0.00    +0.000 N 
ATOM      5  C   UNL     1       1.950   8.197  18.757  0.00  0.00    +0.000 C 
ATOM      6  O   UNL     1       1.399   8.323  17.675  0.00  0.00    +0.000 OA
ATOM      7  N   UNL     1      -0.480   9.611  18.986  0.00  0.00    +0.000 NA
ATOM      8  C   UNL     1      -1.353  10.670  19.148  0.00  0.00    +0.000 A 
ATOM      9  H   UNL     1       2.203   8.844  20.708  0.00  0.00    +0.000 HD
ENDROOT
BRANCH   8  10
ATOM     10  C   UNL     1      -2.330  10.931  18.092  0.00  0.00    +0.000 A 
ATOM     11  C   UNL     1      -3.611  11.398  18.427  0.00  0.00    +0.000 A 
ATOM     12  C   UNL     1      -4.580  11.593  17.438  0.00  0.00    +0.000 A 
ATOM     13  C   UNL     1      -4.281  11.330  16.102  0.00  0.00    +0.000 A 
ATOM     14  C   UNL     1      -3.023  10.852  15.758  0.00  0.00    +0.000 A 
ATOM     15  C   UNL     1      -2.066  10.635  16.751  0.00  0.00    +0.000 A 
ENDBRANCH   8  10
BRANCH   1  17
ATOM     16  N   UNL     1      -2.551  12.410  21.928  0.00  0.00    +0.000 N 
ATOM     17  C   UNL     1      -1.831  12.618  20.758  0.00  0.00    +0.000 C 
ATOM     18  O   UNL     1      -1.778  13.704  20.188  0.00  0.00    +0.000 OA
ATOM     19  H   UNL     1      -2.854  11.454  22.046  0.00  0.00    +0.000 HD
BRANCH  16  25
ATOM     20  C   UNL     1      -5.636  16.658  24.248  0.00  0.00    +0.000 C 
ATOM     21  C   UNL     1      -4.840  15.521  23.678  0.00  0.00    +0.000 A 
ATOM     22  C   UNL     1      -3.482  15.372  23.961  0.00  0.00    +0.000 A 
ATOM     23  C   UNL     1      -2.732  14.328  23.393  0.00  0.00    +0.000 A 
ATOM     24  C   UNL     1      -1.285  14.185  23.784  0.00  0.00    +0.000 C 
ATOM     25  C   UNL     1      -3.359  13.407  22.529  0.00  0.00    +0.000 A 
ATOM     26  C   UNL     1      -4.725  13.565  22.212  0.00  0.00    +0.000 A 
ATOM     27  C   UNL     1      -5.464  12.722  21.210  0.00  0.00    +0.000 C 
ATOM     28  C   UNL     1      -5.453  14.607  22.817  0.00  0.00    +0.000 A 
ENDBRANCH  16  25
ENDBRANCH   1  17
BRANCH   5  29
ATOM     29  O   UNL     1       3.067   7.421  18.933  0.00  0.00    +0.000 OA
BRANCH  29  30
ATOM     30  C   UNL     1       2.849   5.995  19.176  0.00  0.00    +0.000 C 
ATOM     31  C   UNL     1       2.272   5.299  17.930  0.00  0.00    +0.000 C 
ATOM     32  C   UNL     1       4.223   5.364  19.461  0.00  0.00    +0.000 C 
ATOM     33  C   UNL     1       1.979   5.757  20.425  0.00  0.00    +0.000 C 
ENDBRANCH  29  30
ENDBRANCH   5  29
TORSDOF 5
ENDMDL
MODEL 3
REMARK VINA RESULT:      -7.1      2.607      4.768
REMARK  Name = 
REMARK  11 active torsions:
REMARK  status: ('A' for Active; 'I' for Inactive)
REMARK    1  A    between atoms: C_1  and  C_2
REMARK    2  A    between atoms: C_4  and  C_5
REMARK    3  A    between atoms: C_6  and  N_7
REMARK    4  A    between atoms: C_8  and  C_10
REMARK    5  A    between atoms: C_14  and  O_16
REMARK    6  A    between atoms: O_16  and  C_17
REMARK    7  A    between atoms: C_17  and  C_18
REMARK    8  A    between atoms: C_17  and  C_19
REMARK    9  A    between atoms: C_17  and  C_20
REMARK   10  A    between atoms: C_22  and  C_23
REMARK   11  A    between atoms: C_29  and  C_30
REMARK                            x       y       z     vdW  Elec       q    Type
REMARK                         _______ _______ _______ _____ _____    ______ ____
ROOT
ATOM      1  C   UNL     1       0.134  10.131  18.574  0.00  0.00    +0.000 A 
ATOM      2  S   UNL     1       1.028   9.317  17.322  0.00  0.00    +0.000 S 
ATOM      3  C   UNL     1       1.873   8.435  18.513  0.00  0.00    +0.000 A 
ATOM      4  N   UNL     1       2.689   7.407  18.106  0.00  0.00    +0.000 N 
ATOM      5  C   UNL     1       3.065   6.465  19.037  0.00  0.00    +0.000 C 
ATOM      6  O   UNL     1       2.671   6.418  20.192  0.00  0.00    +0.000 OA
ATOM      7  N   UNL     1       1.640   8.795  19.745  0.00  0.00    +0.000 NA
ATOM      8  C   UNL     1       0.611   9.714  19.811  0.00  0.00    +0.000 A 
ATOM      9  H   UNL     1       2.894   7.260  17.132  0.00  0.00    +0.000 HD
ENDROOT
BRANCH   8  10
ATOM     10  C   UNL     1       0.073  10.061  21.126  0.00  0.00    +0.000 A 
ATOM     11  C   UNL     1      -0.217   9.046  22.051  0.00  0.00    +0.000 A 
ATOM     12  C   UNL     1      -0.790   9.352  23.289  0.00  0.00    +0.000 A 
ATOM     13  C   UNL     1      -1.075  10.675  23.622  0.00  0.00    +0.000 A 
ATOM     14  C   UNL     1      -0.807  11.688  22.710  0.00  0.00    +0.000 A 
ATOM     15  C   UNL     1      -0.258  11.376  21.465  0.00  0.00    +0.000 A 
ENDBRANCH   8  10
BRANCH   1  17
ATOM     16  N   UNL     1      -2.212  10.553  18.425  0.00  0.00    +0.000 N 
ATOM     17  C   UNL     1      -0.935  11.076  18.271  0.00  0.00    +0.000 C 
ATOM     18  O   UNL     1      -0.723  12.237  17.933  0.00  0.00    +0.000 OA
ATOM     19  H   UNL     1      -2.254   9.553  18.285  0.00  0.00    +0.000 HD
BRANCH  16  25
ATOM     20  C   UNL     1      -7.124  13.240  17.163  0.00  0.00    +0.000 C 
ATOM     21  C   UNL     1      -5.817  12.574  17.477  0.00  0.00    +0.000 A 
ATOM     22  C   UNL     1      -5.185  11.744  16.550  0.00  0.00    +0.000 A 
ATOM     23  C   UNL     1      -3.979  11.092  16.862  0.00  0.00    +0.000 A 
ATOM     24  C   UNL     1      -3.316  10.257  15.800  0.00  0.00    +0.000 C 
ATOM     25  C   UNL     1      -3.391  11.282  18.129  0.00  0.00    +0.000 A 
ATOM     26  C   UNL     1      -4.037  12.095  19.085  0.00  0.00    +0.000 A 
ATOM     27  C   UNL     1      -3.567  12.268  20.504  0.00  0.00    +0.000 C 
ATOM     28  C   UNL     1      -5.229  12.754  18.731  0.00  0.00    +0.000 A 
ENDBRANCH  16  25
ENDBRANCH   1  17
BRANCH   5  29
ATOM     29  O   UNL     1       3.907   5.523  18.504  0.00  0.00    +0.000 OA
BRANCH  29  30
ATOM     30  C   UNL     1       3.337   4.201  18.242  0.00  0.00    +0.000 C 
ATOM     31  C   UNL     1       1.862   4.305  17.814  0.00  0.00    +0.000 C 
ATOM     32  C   UNL     1       4.116   3.592  17.064  0.00  0.00    +0.000 C 
ATOM     33  C   UNL     1       3.524   3.253  19.442  0.00  0.00    +0.000 C 
ENDBRANCH  29  30
ENDBRANCH   5  29
TORSDOF 5
ENDMDL
MODEL 4
REMARK VINA RESULT:      -7.0      3.388      6.636
REMARK  Name = 
REMARK  11 active torsions:
REMARK  status: ('A' for Active; 'I' for Inactive)
REMARK    1  A    between atoms: C_1  and  C_2
REMARK    2  A    between atoms: C_4  and  C_5
REMARK    3  A    between atoms: C_6  and  N_7
REMARK    4  A    between atoms: C_8  and  C_10
REMARK    5  A    between atoms: C_14  and  O_16
REMARK    6  A    between atoms: O_16  and  C_17
REMARK    7  A    between atoms: C_17  and  C_18
REMARK    8  A    between atoms: C_17  and  C_19
REMARK    9  A    between atoms: C_17  and  C_20
REMARK   10  A    between atoms: C_22  and  C_23
REMARK   11  A    between atoms: C_29  and  C_30
REMARK                            x       y       z     vdW  Elec       q    Type
REMARK                         _______ _______ _______ _____ _____    ______ ____
ROOT
ATOM      1  C   UNL     1       2.249   7.348  19.194  0.00  0.00    +0.000 A 
ATOM      2  S   UNL     1       3.123   8.268  18.003  0.00  0.00    +0.000 S 
ATOM      3  C   UNL     1       3.915   6.844  17.498  0.00  0.00    +0.000 A 
ATOM      4  N   UNL     1       4.691   6.896  16.366  0.00  0.00    +0.000 N 
ATOM      5  C   UNL     1       5.015   5.712  15.742  0.00  0.00    +0.000 C 
ATOM      6  O   UNL     1       4.606   4.608  16.066  0.00  0.00    +0.000 OA
ATOM      7  N   UNL     1       3.682   5.787  18.227  0.00  0.00    +0.000 NA
ATOM      8  C   UNL     1       2.692   6.031  19.159  0.00  0.00    +0.000 A 
ATOM      9  H   UNL     1       4.902   7.773  15.920  0.00  0.00    +0.000 HD
ENDROOT
BRANCH   8  10
ATOM     10  C   UNL     1       2.154   4.899  19.912  0.00  0.00    +0.000 A 
ATOM     11  C   UNL     1       2.664   4.602  21.186  0.00  0.00    +0.000 A 
ATOM     12  C   UNL     1       2.207   3.486  21.895  0.00  0.00    +0.000 A 
ATOM     13  C   UNL     1       1.232   2.656  21.343  0.00  0.00    +0.000 A 
ATOM     14  C   UNL     1       0.730   2.929  20.077  0.00  0.00    +0.000 A 
ATOM     15  C   UNL     1       1.207   4.030  19.362  0.00  0.00    +0.000 A 
ENDBRANCH   8  10
BRANCH   1  17
ATOM     16  N   UNL     1       1.159   9.336  19.944  0.00  0.00    +0.000 N 
ATOM     17  C   UNL     1       1.226   7.952  20.039  0.00  0.00    +0.000 C 
ATOM     18  O   UNL     1       0.475   7.293  20.752  0.00  0.00    +0.000 OA
ATOM     19  H   UNL     1       2.040   9.762  19.692  0.00  0.00    +0.000 HD
BRANCH  16  25
ATOM     20  C   UNL     1      -2.655  12.382  22.964  0.00  0.00    +0.000 C 
ATOM     21  C   UNL     1      -1.631  11.623  22.173  0.00  0.00    +0.000 A 
ATOM     22  C   UNL     1      -1.681  11.574  20.779  0.00  0.00    +0.000 A 
ATOM     23  C   UNL     1      -0.742  10.830  20.044  0.00  0.00    +0.000 A 
ATOM     24  C   UNL     1      -0.814  10.865  18.541  0.00  0.00    +0.000 C 
ATOM     25  C   UNL     1       0.274  10.127  20.720  0.00  0.00    +0.000 A 
ATOM     26  C   UNL     1       0.318  10.144  22.131  0.00  0.00    +0.000 A 
ATOM     27  C   UNL     1       1.277   9.333  22.958  0.00  0.00    +0.000 C 
ATOM     28  C   UNL     1      -0.622  10.919  22.836  0.00  0.00    +0.000 A 
ENDBRANCH  16  25
ENDBRANCH   1  17
BRANCH   5  29
ATOM     29  O   UNL     1       5.823   5.911  14.651  0.00  0.00    +0.000 OA
BRANCH  29  30
ATOM     30  C   UNL     1       6.785   4.852  14.341  0.00  0.00    +0.000 C 
ATOM     31  C   UNL     1       6.138   3.744  13.491  0.00  0.00    +0.000 C 
ATOM     32  C   UNL     1       7.905   5.486  13.497  0.00  0.00    +0.000 C 
ATOM     33  C   UNL     1       7.445   4.292  15.615  0.00  0.00    +0.000 C 
ENDBRANCH  29  30
ENDBRANCH   5  29
TORSDOF 5
ENDMDL
MODEL 5
REMARK VINA RESULT:      -6.9      0.144      1.167
REMARK  Name = 
REMARK  11 active torsions:
REMARK  status: ('A' for Active; 'I' for Inactive)
REMARK    1  A    between atoms: C_1  and  C_2
REMARK    2  A    between atoms: C_4  and  C_5
REMARK    3  A    between atoms: C_6  and  N_7
REMARK    4  A    between atoms: C_8  and  C_10
REMARK    5  A    between atoms: C_14  and  O_16
REMARK    6  A    between atoms: O_16  and  C_17
REMARK    7  A    between atoms: C_17  and  C_18
REMARK    8  A    between atoms: C_17  and  C_19
REMARK    9  A    between atoms: C_17  and  C_20
REMARK   10  A    between atoms: C_22  and  C_23
REMARK   11  A    between atoms: C_29  and  C_30
REMARK                            x       y       z     vdW  Elec       q    Type
REMARK                         _______ _______ _______ _____ _____    ______ ____
ROOT
ATOM      1  C   UNL     1      -0.964  11.401  20.235  0.00  0.00    +0.000 A 
ATOM      2  S   UNL     1       0.435  10.790  21.070  0.00  0.00    +0.000 S 
ATOM      3  C   UNL     1       0.591   9.567  19.892  0.00  0.00    +0.000 A 
ATOM      4  N   UNL     1       1.718   8.781  19.914  0.00  0.00    +0.000 N 
ATOM      5  C   UNL     1       2.039   8.068  18.780  0.00  0.00    +0.000 C 
ATOM      6  O   UNL     1       1.445   8.132  17.715  0.00  0.00    +0.000 OA
ATOM      7  N   UNL     1      -0.379   9.501  19.024  0.00  0.00    +0.000 NA
ATOM      8  C   UNL     1      -1.244  10.569  19.158  0.00  0.00    +0.000 A 
ATOM      9  H   UNL     1       2.370   8.827  20.679  0.00  0.00    +0.000 HD
ENDROOT
BRANCH   8  10
ATOM     10  C   UNL     1      -2.264  10.771  18.129  0.00  0.00    +0.000 A 
ATOM     11  C   UNL     1      -2.023  10.344  16.814  0.00  0.00    +0.000 A 
ATOM     12  C   UNL     1      -2.958  10.585  15.803  0.00  0.00    +0.000 A 
ATOM     13  C   UNL     1      -4.148  11.249  16.093  0.00  0.00    +0.000 A 
ATOM     14  C   UNL     1      -4.393  11.691  17.387  0.00  0.00    +0.000 A 
ATOM     15  C   UNL     1      -3.446  11.471  18.389  0.00  0.00    +0.000 A 
ENDBRANCH   8  10
BRANCH   1  17
ATOM     16  N   UNL     1      -2.420  12.442  21.818  0.00  0.00    +0.000 N 
ATOM     17  C   UNL     1      -1.656  12.610  20.669  0.00  0.00    +0.000 C 
ATOM     18  O   UNL     1      -1.554  13.684  20.084  0.00  0.00    +0.000 OA
ATOM     19  H   UNL     1      -2.754  11.496  21.941  0.00  0.00    +0.000 HD
BRANCH  16  25
ATOM     20  C   UNL     1      -5.828  16.395  24.205  0.00  0.00    +0.000 C 
ATOM     21  C   UNL     1      -4.929  15.391  23.546  0.00  0.00    +0.000 A 
ATOM     22  C   UNL     1      -5.435  14.430  22.670  0.00  0.00    +0.000 A 
ATOM     23  C   UNL     1      -4.596  13.466  22.084  0.00  0.00    +0.000 A 
ATOM     24  C   UNL     1      -5.191  12.493  21.102  0.00  0.00    +0.000 C 
ATOM     25  C   UNL     1      -3.217  13.472  22.377  0.00  0.00    +0.000 A 
ATOM     26  C   UNL     1      -2.698  14.420  23.285  0.00  0.00    +0.000 A 
ATOM     27  C   UNL     1      -1.273  14.440  23.766  0.00  0.00    +0.000 C 
ATOM     28  C   UNL     1      -3.562  15.386  23.834  0.00  0.00    +0.000 A 
ENDBRANCH  16  25
ENDBRANCH   1  17
BRANCH   5  29
ATOM     29  O   UNL     1       3.162   7.301  18.956  0.00  0.00    +0.000 OA
BRANCH  29  30
ATOM     30  C   UNL     1       2.957   5.864  19.144  0.00  0.00    +0.000 C 
ATOM     31  C   UNL     1       4.277   5.155  19.498  0.00  0.00    +0.000 C 
ATOM     32  C   UNL     1       2.007   5.692  20.342  0.00  0.00    +0.000 C 
ATOM     33  C   UNL     1       2.265   5.223  17.927  0.00  0.00    +0.000 C 
ENDBRANCH  29  30
ENDBRANCH   5  29
TORSDOF 5
ENDMDL
MODEL 6
REMARK VINA RESULT:      -6.8      4.097      7.565
REMARK  Name = 
REMARK  11 active torsions:
REMARK  status: ('A' for Active; 'I' for Inactive)
REMARK    1  A    between atoms: C_1  and  C_2
REMARK    2  A    between atoms: C_4  and  C_5
REMARK    3  A    between atoms: C_6  and  N_7
REMARK    4  A    between atoms: C_8  and  C_10
REMARK    5  A    between atoms: C_14  and  O_16
REMARK    6  A    between atoms: O_16  and  C_17
REMARK    7  A    between atoms: C_17  and  C_18
REMARK    8  A    between atoms: C_17  and  C_19
REMARK    9  A    between atoms: C_17  and  C_20
REMARK   10  A    between atoms: C_22  and  C_23
REMARK   11  A    between atoms: C_29  and  C_30
REMARK                            x       y       z     vdW  Elec       q    Type
REMARK                         _______ _______ _______ _____ _____    ______ ____
ROOT
ATOM      1  C   UNL     1       0.355  12.292  19.261  0.00  0.00    +0.000 A 
ATOM      2  S   UNL     1      -1.000  13.302  18.844  0.00  0.00    +0.000 S 
ATOM      3  C   UNL     1      -1.792  11.947  18.177  0.00  0.00    +0.000 A 
ATOM      4  N   UNL     1      -3.103  12.084  17.791  0.00  0.00    +0.000 N 
ATOM      5  C   UNL     1      -3.854  10.943  17.617  0.00  0.00    +0.000 C 
ATOM      6  O   UNL     1      -3.475   9.806  17.851  0.00  0.00    +0.000 OA
ATOM      7  N   UNL     1      -1.080  10.856  18.121  0.00  0.00    +0.000 NA
ATOM      8  C   UNL     1       0.121  11.007  18.786  0.00  0.00    +0.000 A 
ATOM      9  H   UNL     1      -3.549  12.985  17.771  0.00  0.00    +0.000 HD
ENDROOT
BRANCH   8  10
ATOM     10  C   UNL     1       0.946   9.820  19.008  0.00  0.00    +0.000 A 
ATOM     11  C   UNL     1       1.727   9.306  17.962  0.00  0.00    +0.000 A 
ATOM     12  C   UNL     1       2.472   8.136  18.136  0.00  0.00    +0.000 A 
ATOM     13  C   UNL     1       2.453   7.468  19.359  0.00  0.00    +0.000 A 
ATOM     14  C   UNL     1       1.672   7.957  20.399  0.00  0.00    +0.000 A 
ATOM     15  C   UNL     1       0.909   9.111  20.213  0.00  0.00    +0.000 A 
ENDBRANCH   8  10
BRANCH   1  17
ATOM     16  N   UNL     1       1.907  14.073  19.611  0.00  0.00    +0.000 N 
ATOM     17  C   UNL     1       1.501  12.804  20.003  0.00  0.00    +0.000 C 
ATOM     18  O   UNL     1       2.043  12.178  20.910  0.00  0.00    +0.000 OA
ATOM     19  H   UNL     1       1.691  14.281  18.646  0.00  0.00    +0.000 HD
BRANCH  16  25
ATOM     20  C   UNL     1       6.474  16.927  21.596  0.00  0.00    +0.000 C 
ATOM     21  C   UNL     1       5.297  16.143  21.097  0.00  0.00    +0.000 A 
ATOM     22  C   UNL     1       5.317  15.519  19.849  0.00  0.00    +0.000 A 
ATOM     23  C   UNL     1       4.197  14.818  19.369  0.00  0.00    +0.000 A 
ATOM     24  C   UNL     1       4.302  14.116  18.041  0.00  0.00    +0.000 C 
ATOM     25  C   UNL     1       3.035  14.733  20.162  0.00  0.00    +0.000 A 
ATOM     26  C   UNL     1       2.992  15.385  21.413  0.00  0.00    +0.000 A 
ATOM     27  C   UNL     1       1.767  15.467  22.282  0.00  0.00    +0.000 C 
ATOM     28  C   UNL     1       4.139  16.058  21.874  0.00  0.00    +0.000 A 
ENDBRANCH  16  25
ENDBRANCH   1  17
BRANCH   5  29
ATOM     29  O   UNL     1      -5.129  11.225  17.196  0.00  0.00    +0.000 OA
BRANCH  29  30
ATOM     30  C   UNL     1      -6.109  11.551  18.232  0.00  0.00    +0.000 C 
ATOM     31  C   UNL     1      -5.453  12.308  19.401  0.00  0.00    +0.000 C 
ATOM     32  C   UNL     1      -7.148  12.493  17.598  0.00  0.00    +0.000 C 
ATOM     33  C   UNL     1      -6.871  10.300  18.709  0.00  0.00    +0.000 C 
ENDBRANCH  29  30
ENDBRANCH   5  29
TORSDOF 5
ENDMDL
MODEL 7
REMARK VINA RESULT:      -6.7      4.117      8.701
REMARK  Name = 
REMARK  11 active torsions:
REMARK  status: ('A' for Active; 'I' for Inactive)
REMARK    1  A    between atoms: C_1  and  C_2
REMARK    2  A    between atoms: C_4  and  C_5
REMARK    3  A    between atoms: C_6  and  N_7
REMARK    4  A    between atoms: C_8  and  C_10
REMARK    5  A    between atoms: C_14  and  O_16
REMARK    6  A    between atoms: O_16  and  C_17
REMARK    7  A    between atoms: C_17  and  C_18
REMARK    8  A    between atoms: C_17  and  C_19
REMARK    9  A    between atoms: C_17  and  C_20
REMARK   10  A    between atoms: C_22  and  C_23
REMARK   11  A    between atoms: C_29  and  C_30
REMARK                            x       y       z     vdW  Elec       q    Type
REMARK                         _______ _______ _______ _____ _____    ______ ____
ROOT
ATOM      1  C   UNL     1      -0.709  13.752  20.924  0.00  0.00    +0.000 A 
ATOM      2  S   UNL     1      -1.890  15.021  20.781  0.00  0.00    +0.000 S 
ATOM      3  C   UNL     1      -3.129  13.891  21.094  0.00  0.00    +0.000 A 
ATOM      4  N   UNL     1      -4.405  14.361  21.290  0.00  0.00    +0.000 N 
ATOM      5  C   UNL     1      -5.317  13.533  21.907  0.00  0.00    +0.000 C 
ATOM      6  O   UNL     1      -5.069  12.430  22.370  0.00  0.00    +0.000 OA
ATOM      7  N   UNL     1      -2.745  12.646  21.158  0.00  0.00    +0.000 NA
ATOM      8  C   UNL     1      -1.368  12.545  21.127  0.00  0.00    +0.000 A 
ATOM      9  H   UNL     1      -4.637  15.325  21.121  0.00  0.00    +0.000 HD
ENDROOT
BRANCH   8  10
ATOM     10  C   UNL     1      -0.761  11.244  21.408  0.00  0.00    +0.000 A 
ATOM     11  C   UNL     1      -0.726  10.760  22.724  0.00  0.00    +0.000 A 
ATOM     12  C   UNL     1      -0.094   9.549  23.022  0.00  0.00    +0.000 A 
ATOM     13  C   UNL     1       0.505   8.803  22.009  0.00  0.00    +0.000 A 
ATOM     14  C   UNL     1       0.491   9.278  20.703  0.00  0.00    +0.000 A 
ATOM     15  C   UNL     1      -0.118  10.499  20.414  0.00  0.00    +0.000 A 
ENDBRANCH   8  10
BRANCH   1  17
ATOM     16  N   UNL     1       1.123  14.598  19.646  0.00  0.00    +0.000 N 
ATOM     17  C   UNL     1       0.723  14.015  20.842  0.00  0.00    +0.000 C 
ATOM     18  O   UNL     1       1.501  13.766  21.758  0.00  0.00    +0.000 OA
ATOM     19  H   UNL     1       0.522  14.365  18.868  0.00  0.00    +0.000 HD
BRANCH  16  25
ATOM     20  C   UNL     1       6.529  15.742  18.094  0.00  0.00    +0.000 C 
ATOM     21  C   UNL     1       5.132  15.422  18.537  0.00  0.00    +0.000 A 
ATOM     22  C   UNL     1       4.489  14.255  18.122  0.00  0.00    +0.000 A 
ATOM     23  C   UNL     1       3.166  13.977  18.509  0.00  0.00    +0.000 A 
ATOM     24  C   UNL     1       2.548  12.674  18.078  0.00  0.00    +0.000 C 
ATOM     25  C   UNL     1       2.476  14.886  19.336  0.00  0.00    +0.000 A 
ATOM     26  C   UNL     1       3.105  16.083  19.738  0.00  0.00    +0.000 A 
ATOM     27  C   UNL     1       2.424  17.178  20.512  0.00  0.00    +0.000 C 
ATOM     28  C   UNL     1       4.438  16.319  19.354  0.00  0.00    +0.000 A 
ENDBRANCH  16  25
ENDBRANCH   1  17
BRANCH   5  29
ATOM     29  O   UNL     1      -6.555  14.114  22.003  0.00  0.00    +0.000 OA
BRANCH  29  30
ATOM     30  C   UNL     1      -6.909  14.705  23.294  0.00  0.00    +0.000 C 
ATOM     31  C   UNL     1      -5.680  15.338  23.972  0.00  0.00    +0.000 C 
ATOM     32  C   UNL     1      -7.917  15.835  23.019  0.00  0.00    +0.000 C 
ATOM     33  C   UNL     1      -7.615  13.688  24.211  0.00  0.00    +0.000 C 
ENDBRANCH  29  30
ENDBRANCH   5  29
TORSDOF 5
ENDMDL
MODEL 8
REMARK VINA RESULT:      -6.7      4.098      8.744
REMARK  Name = 
REMARK  11 active torsions:
REMARK  status: ('A' for Active; 'I' for Inactive)
REMARK    1  A    between atoms: C_1  and  C_2
REMARK    2  A    between atoms: C_4  and  C_5
REMARK    3  A    between atoms: C_6  and  N_7
REMARK    4  A    between atoms: C_8  and  C_10
REMARK    5  A    between atoms: C_14  and  O_16
REMARK    6  A    between atoms: O_16  and  C_17
REMARK    7  A    between atoms: C_17  and  C_18
REMARK    8  A    between atoms: C_17  and  C_19
REMARK    9  A    between atoms: C_17  and  C_20
REMARK   10  A    between atoms: C_22  and  C_23
REMARK   11  A    between atoms: C_29  and  C_30
REMARK                            x       y       z     vdW  Elec       q    Type
REMARK                         _______ _______ _______ _____ _____    ______ ____
ROOT
ATOM      1  C   UNL     1      -0.868  13.731  20.882  0.00  0.00    +0.000 A 
ATOM      2  S   UNL     1      -2.064  14.985  20.717  0.00  0.00    +0.000 S 
ATOM      3  C   UNL     1      -3.284  13.859  21.106  0.00  0.00    +0.000 A 
ATOM      4  N   UNL     1      -4.559  14.326  21.315  0.00  0.00    +0.000 N 
ATOM      5  C   UNL     1      -5.448  13.517  21.987  0.00  0.00    +0.000 C 
ATOM      6  O   UNL     1      -5.179  12.436  22.488  0.00  0.00    +0.000 OA
ATOM      7  N   UNL     1      -2.888  12.620  21.211  0.00  0.00    +0.000 NA
ATOM      8  C   UNL     1      -1.511  12.528  21.150  0.00  0.00    +0.000 A 
ATOM      9  H   UNL     1      -4.804  15.280  21.113  0.00  0.00    +0.000 HD
ENDROOT
BRANCH   8  10
ATOM     10  C   UNL     1      -0.886  11.245  21.468  0.00  0.00    +0.000 A 
ATOM     11  C   UNL     1      -0.826  10.809  22.800  0.00  0.00    +0.000 A 
ATOM     12  C   UNL     1      -0.176   9.616  23.132  0.00  0.00    +0.000 A 
ATOM     13  C   UNL     1       0.415   8.840  22.136  0.00  0.00    +0.000 A 
ATOM     14  C   UNL     1       0.377   9.267  20.815  0.00  0.00    +0.000 A 
ATOM     15  C   UNL     1      -0.251  10.472  20.491  0.00  0.00    +0.000 A 
ENDBRANCH   8  10
BRANCH   1  17
ATOM     16  N   UNL     1       0.902  14.686  19.594  0.00  0.00    +0.000 N 
ATOM     17  C   UNL     1       0.559  14.002  20.754  0.00  0.00    +0.000 C 
ATOM     18  O   UNL     1       1.379  13.676  21.606  0.00  0.00    +0.000 OA
ATOM     19  H   UNL     1       0.264  14.519  18.828  0.00  0.00    +0.000 HD
BRANCH  16  25
ATOM     20  C   UNL     1       6.379  15.990  18.477  0.00  0.00    +0.000 C 
ATOM     21  C   UNL     1       4.935  15.669  18.729  0.00  0.00    +0.000 A 
ATOM     22  C   UNL     1       4.114  16.539  19.448  0.00  0.00    +0.000 A 
ATOM     23  C   UNL     1       2.772  16.217  19.715  0.00  0.00    +0.000 A 
ATOM     24  C   UNL     1       1.921  17.223  20.444  0.00  0.00    +0.000 C 
ATOM     25  C   UNL     1       2.239  15.000  19.244  0.00  0.00    +0.000 A 
ATOM     26  C   UNL     1       3.068  14.099  18.542  0.00  0.00    +0.000 A 
ATOM     27  C   UNL     1       2.643  12.724  18.104  0.00  0.00    +0.000 C 
ATOM     28  C   UNL     1       4.400  14.463  18.270  0.00  0.00    +0.000 A 
ENDBRANCH  16  25
ENDBRANCH   1  17
BRANCH   5  29
ATOM     29  O   UNL     1      -6.689  14.091  22.091  0.00  0.00    +0.000 OA
BRANCH  29  30
ATOM     30  C   UNL     1      -6.966  14.850  23.311  0.00  0.00    +0.000 C 
ATOM     31  C   UNL     1      -7.916  16.028  23.031  0.00  0.00    +0.000 C 
ATOM     32  C   UNL     1      -7.685  13.900  24.286  0.00  0.00    +0.000 C 
ATOM     33  C   UNL     1      -5.669  15.306  24.004  0.00  0.00    +0.000 C 
ENDBRANCH  29  30
ENDBRANCH   5  29
TORSDOF 5
ENDMDL
MODEL 9
REMARK VINA RESULT:      -6.7      2.681      4.924
REMARK  Name = 
REMARK  11 active torsions:
REMARK  status: ('A' for Active; 'I' for Inactive)
REMARK    1  A    between atoms: C_1  and  C_2
REMARK    2  A    between atoms: C_4  and  C_5
REMARK    3  A    between atoms: C_6  and  N_7
REMARK    4  A    between atoms: C_8  and  C_10
REMARK    5  A    between atoms: C_14  and  O_16
REMARK    6  A    between atoms: O_16  and  C_17
REMARK    7  A    between atoms: C_17  and  C_18
REMARK    8  A    between atoms: C_17  and  C_19
REMARK    9  A    between atoms: C_17  and  C_20
REMARK   10  A    between atoms: C_22  and  C_23
REMARK   11  A    between atoms: C_29  and  C_30
REMARK                            x       y       z     vdW  Elec       q    Type
REMARK                         _______ _______ _______ _____ _____    ______ ____
ROOT
ATOM      1  C   UNL     1       0.056  10.093  18.532  0.00  0.00    +0.000 A 
ATOM      2  S   UNL     1       0.950   9.238  17.308  0.00  0.00    +0.000 S 
ATOM      3  C   UNL     1       1.824   8.427  18.528  0.00  0.00    +0.000 A 
ATOM      4  N   UNL     1       2.654   7.396  18.158  0.00  0.00    +0.000 N 
ATOM      5  C   UNL     1       3.058   6.505  19.128  0.00  0.00    +0.000 C 
ATOM      6  O   UNL     1       2.679   6.505  20.289  0.00  0.00    +0.000 OA
ATOM      7  N   UNL     1       1.599   8.840  19.744  0.00  0.00    +0.000 NA
ATOM      8  C   UNL     1       0.554   9.743  19.781  0.00  0.00    +0.000 A 
ATOM      9  H   UNL     1       2.851   7.208  17.190  0.00  0.00    +0.000 HD
ENDROOT
BRANCH   8  10
ATOM     10  C   UNL     1       0.027  10.141  21.085  0.00  0.00    +0.000 A 
ATOM     11  C   UNL     1      -0.293   9.161  22.038  0.00  0.00    +0.000 A 
ATOM     12  C   UNL     1      -0.859   9.517  23.266  0.00  0.00    +0.000 A 
ATOM     13  C   UNL     1      -1.106  10.857  23.562  0.00  0.00    +0.000 A 
ATOM     14  C   UNL     1      -0.808  11.836  22.622  0.00  0.00    +0.000 A 
ATOM     15  C   UNL     1      -0.268  11.474  21.387  0.00  0.00    +0.000 A 
ENDBRANCH   8  10
BRANCH   1  17
ATOM     16  N   UNL     1      -2.298  10.444  18.329  0.00  0.00    +0.000 N 
ATOM     17  C   UNL     1      -1.033  11.005  18.199  0.00  0.00    +0.000 C 
ATOM     18  O   UNL     1      -0.848  12.169  17.858  0.00  0.00    +0.000 OA
ATOM     19  H   UNL     1      -2.307   9.443  18.194  0.00  0.00    +0.000 HD
BRANCH  16  25
ATOM     20  C   UNL     1      -6.991  13.506  17.086  0.00  0.00    +0.000 C 
ATOM     21  C   UNL     1      -5.791  12.671  17.423  0.00  0.00    +0.000 A 
ATOM     22  C   UNL     1      -5.217  12.706  18.695  0.00  0.00    +0.000 A 
ATOM     23  C   UNL     1      -4.070  11.951  18.996  0.00  0.00    +0.000 A 
ATOM     24  C   UNL     1      -3.534  11.986  20.402  0.00  0.00    +0.000 C 
ATOM     25  C   UNL     1      -3.491  11.136  18.002  0.00  0.00    +0.000 A 
ATOM     26  C   UNL     1      -4.045  11.115  16.704  0.00  0.00    +0.000 A 
ATOM     27  C   UNL     1      -3.439  10.384  15.538  0.00  0.00    +0.000 C 
ATOM     28  C   UNL     1      -5.208  11.864  16.443  0.00  0.00    +0.000 A 
ENDBRANCH  16  25
ENDBRANCH   1  17
BRANCH   5  29
ATOM     29  O   UNL     1       3.911   5.554  18.628  0.00  0.00    +0.000 OA
BRANCH  29  30
ATOM     30  C   UNL     1       3.309   4.298  18.180  0.00  0.00    +0.000 C 
ATOM     31  C   UNL     1       4.060   3.723  16.965  0.00  0.00    +0.000 C 
ATOM     32  C   UNL     1       3.451   3.286  19.331  0.00  0.00    +0.000 C 
ATOM     33  C   UNL     1       1.801   4.455  17.905  0.00  0.00    +0.000 C 
ENDBRANCH  29  30
ENDBRANCH   5  29
TORSDOF 5
ENDMDL
