MODEL 1
REMARK VINA RESULT:      -7.4      0.000      0.000
REMARK  Name = 
REMARK  6 active torsions:
REMARK  status: ('A' for Active; 'I' for Inactive)
REMARK    1  A    between atoms: C_1  and  O_2
REMARK    2  A    between atoms: O_2  and  C_3
REMARK    3  A    between atoms: C_3  and  C_4
REMARK    4  A    between atoms: C_4  and  N_5
REMARK    5  A    between atoms: N_14  and  C_15
REMARK    6  A    between atoms: C_19  and  C_20
REMARK                            x       y       z     vdW  Elec       q    Type
REMARK                         _______ _______ _______ _____ _____    ______ ____
ROOT
ATOM      1  N   UNL     1       3.989   5.062  18.876  0.00  0.00    +0.000 NA
ATOM      2  C   UNL     1       2.595   5.472  18.631  0.00  0.00    +0.000 C 
ATOM      3  C   UNL     1       2.419   6.986  18.615  0.00  0.00    +0.000 C 
ATOM      4  C   UNL     1       3.340   7.628  17.599  0.00  0.00    +0.000 C 
ATOM      5  C   UNL     1       4.776   7.196  17.882  0.00  0.00    +0.000 C 
ATOM      6  C   UNL     1       4.957   5.645  17.896  0.00  0.00    +0.000 C 
ATOM      7  C   UNL     1       6.423   5.369  18.307  0.00  0.00    +0.000 C 
ATOM      8  C   UNL     1       7.073   4.727  17.116  0.00  0.00    +0.000 C 
ATOM      9  O   UNL     1       8.192   4.233  17.163  0.00  0.00    +0.000 OA
ATOM     10  N   UNL     1       6.223   4.844  16.020  0.00  0.00    +0.000 N 
ATOM     11  C   UNL     1       4.871   5.127  16.434  0.00  0.00    +0.000 C 
ENDROOT
BRANCH  10  12
ATOM     12  C   UNL     1       6.603   4.656  14.663  0.00  0.00    +0.000 A 
ATOM     13  C   UNL     1       7.524   5.514  14.048  0.00  0.00    +0.000 A 
ATOM     14  C   UNL     1       7.898   5.352  12.711  0.00  0.00    +0.000 A 
ATOM     15  C   UNL     1       7.341   4.320  11.955  0.00  0.00    +0.000 A 
ATOM     16  C   UNL     1       6.403   3.469  12.536  0.00  0.00    +0.000 A 
ATOM     17  C   UNL     1       6.034   3.640  13.881  0.00  0.00    +0.000 A 
BRANCH  16  18
ATOM     18  C   UNL     1       5.809   2.414  11.761  0.00  0.00    +0.000 C 
ATOM     19  N   UNL     1       5.341   1.563  11.132  0.00  0.00    +0.000 NA
ENDBRANCH  16  18
ENDBRANCH  10  12
BRANCH   1  20
ATOM     20  C   UNL     1       4.079   3.587  19.048  0.00  0.00    +0.000 C 
BRANCH  20  21
ATOM     21  C   UNL     1       2.726   2.938  19.410  0.00  0.00    +0.000 C 
BRANCH  21  23
ATOM     22  C   UNL     1       1.976   3.230  21.613  0.00  0.00    +0.000 C 
ATOM     23  O   UNL     1       2.756   2.415  20.741  0.00  0.00    +0.000 OA
ENDBRANCH  21  23
ENDBRANCH  20  21
ENDBRANCH   1  20
TORSDOF 5
ENDMDL
MODEL 2
REMARK VINA RESULT:      -6.9      1.557      1.714
REMARK  Name = 
REMARK  6 active torsions:
REMARK  status: ('A' for Active; 'I' for Inactive)
REMARK    1  A    between atoms: C_1  and  O_2
REMARK    2  A    between atoms: O_2  and  C_3
REMARK    3  A    between atoms: C_3  and  C_4
REMARK    4  A    between atoms: C_4  and  N_5
REMARK    5  A    between atoms: N_14  and  C_15
REMARK    6  A    between atoms: C_19  and  C_20
REMARK                            x       y       z     vdW  Elec       q    Type
REMARK                         _______ _______ _______ _____ _____    ______ ____
ROOT
ATOM      1  N   UNL     1       4.015   3.813  19.367  0.00  0.00    +0.000 NA
ATOM      2  C   UNL     1       2.546   3.758  19.253  0.00  0.00    +0.000 C 
ATOM      3  C   UNL     1       1.897   5.135  19.323  0.00  0.00    +0.000 C 
ATOM      4  C   UNL     1       2.469   6.058  18.268  0.00  0.00    +0.000 C 
ATOM      5  C   UNL     1       3.987   6.106  18.416  0.00  0.00    +0.000 C 
ATOM      6  C   UNL     1       4.653   4.695  18.343  0.00  0.00    +0.000 C 
ATOM      7  C   UNL     1       6.162   4.897  18.622  0.00  0.00    +0.000 C 
ATOM      8  C   UNL     1       6.872   4.522  17.354  0.00  0.00    +0.000 C 
ATOM      9  O   UNL     1       8.089   4.413  17.288  0.00  0.00    +0.000 OA
ATOM     10  N   UNL     1       5.934   4.381  16.335  0.00  0.00    +0.000 N 
ATOM     11  C   UNL     1       4.605   4.206  16.869  0.00  0.00    +0.000 C 
ENDROOT
BRANCH  10  12
ATOM     12  C   UNL     1       6.229   4.351  14.946  0.00  0.00    +0.000 A 
ATOM     13  C   UNL     1       7.420   4.899  14.451  0.00  0.00    +0.000 A 
ATOM     14  C   UNL     1       7.721   4.890  13.086  0.00  0.00    +0.000 A 
ATOM     15  C   UNL     1       6.817   4.334  12.180  0.00  0.00    +0.000 A 
ATOM     16  C   UNL     1       5.613   3.806  12.644  0.00  0.00    +0.000 A 
ATOM     17  C   UNL     1       5.322   3.819  14.018  0.00  0.00    +0.000 A 
BRANCH  16  18
ATOM     18  C   UNL     1       4.668   3.247  11.718  0.00  0.00    +0.000 C 
ATOM     19  N   UNL     1       3.898   2.796  10.980  0.00  0.00    +0.000 NA
ENDBRANCH  16  18
ENDBRANCH  10  12
BRANCH   1  20
ATOM     20  C   UNL     1       4.584   2.442  19.461  0.00  0.00    +0.000 C 
BRANCH  20  21
ATOM     21  C   UNL     1       4.321   1.771  20.826  0.00  0.00    +0.000 C 
BRANCH  21  23
ATOM     22  C   UNL     1       5.813   0.195  21.717  0.00  0.00    +0.000 C 
ATOM     23  O   UNL     1       5.546   1.584  21.542  0.00  0.00    +0.000 OA
ENDBRANCH  21  23
ENDBRANCH  20  21
ENDBRANCH   1  20
TORSDOF 5
ENDMDL
MODEL 3
REMARK VINA RESULT:      -6.8      1.907      2.402
REMARK  Name = 
REMARK  6 active torsions:
REMARK  status: ('A' for Active; 'I' for Inactive)
REMARK    1  A    between atoms: C_1  and  O_2
REMARK    2  A    between atoms: O_2  and  C_3
REMARK    3  A    between atoms: C_3  and  C_4
REMARK    4  A    between atoms: C_4  and  N_5
REMARK    5  A    between atoms: N_14  and  C_15
REMARK    6  A    between atoms: C_19  and  C_20
REMARK                            x       y       z     vdW  Elec       q    Type
REMARK                         _______ _______ _______ _____ _____    ______ ____
ROOT
ATOM      1  N   UNL     1       3.656   2.885  19.637  0.00  0.00    +0.000 NA
ATOM      2  C   UNL     1       2.327   2.340  19.305  0.00  0.00    +0.000 C 
ATOM      3  C   UNL     1       1.245   3.412  19.253  0.00  0.00    +0.000 C 
ATOM      4  C   UNL     1       1.618   4.512  18.281  0.00  0.00    +0.000 C 
ATOM      5  C   UNL     1       2.990   5.065  18.653  0.00  0.00    +0.000 C 
ATOM      6  C   UNL     1       4.099   3.967  18.704  0.00  0.00    +0.000 C 
ATOM      7  C   UNL     1       5.391   4.657  19.204  0.00  0.00    +0.000 C 
ATOM      8  C   UNL     1       6.365   4.589  18.062  0.00  0.00    +0.000 C 
ATOM      9  O   UNL     1       7.542   4.901  18.182  0.00  0.00    +0.000 OA
ATOM     10  N   UNL     1       5.690   4.175  16.918  0.00  0.00    +0.000 N 
ATOM     11  C   UNL     1       4.437   3.542  17.248  0.00  0.00    +0.000 C 
ENDROOT
BRANCH  10  12
ATOM     12  C   UNL     1       6.179   4.296  15.588  0.00  0.00    +0.000 A 
ATOM     13  C   UNL     1       7.272   5.121  15.296  0.00  0.00    +0.000 A 
ATOM     14  C   UNL     1       7.758   5.262  13.993  0.00  0.00    +0.000 A 
ATOM     15  C   UNL     1       7.141   4.578  12.945  0.00  0.00    +0.000 A 
ATOM     16  C   UNL     1       6.034   3.772  13.206  0.00  0.00    +0.000 A 
ATOM     17  C   UNL     1       5.555   3.636  14.519  0.00  0.00    +0.000 A 
BRANCH  16  18
ATOM     18  C   UNL     1       5.380   3.078  12.132  0.00  0.00    +0.000 C 
ATOM     19  N   UNL     1       4.847   2.527  11.263  0.00  0.00    +0.000 NA
ENDBRANCH  16  18
ENDBRANCH  10  12
BRANCH   1  20
ATOM     20  C   UNL     1       4.637   1.785  19.838  0.00  0.00    +0.000 C 
BRANCH  20  21
ATOM     21  C   UNL     1       4.637   1.232  21.279  0.00  0.00    +0.000 C 
BRANCH  21  23
ATOM     22  C   UNL     1       6.257  -0.112  22.314  0.00  0.00    +0.000 C 
ATOM     23  O   UNL     1       5.967   1.187  21.803  0.00  0.00    +0.000 OA
ENDBRANCH  21  23
ENDBRANCH  20  21
ENDBRANCH   1  20
TORSDOF 5
ENDMDL
MODEL 4
REMARK VINA RESULT:      -6.6      1.056      1.099
REMARK  Name = 
REMARK  6 active torsions:
REMARK  status: ('A' for Active; 'I' for Inactive)
REMARK    1  A    between atoms: C_1  and  O_2
REMARK    2  A    between atoms: O_2  and  C_3
REMARK    3  A    between atoms: C_3  and  C_4
REMARK    4  A    between atoms: C_4  and  N_5
REMARK    5  A    between atoms: N_14  and  C_15
REMARK    6  A    between atoms: C_19  and  C_20
REMARK                            x       y       z     vdW  Elec       q    Type
REMARK                         _______ _______ _______ _____ _____    ______ ____
ROOT
ATOM      1  N   UNL     1       3.948   4.679  18.735  0.00  0.00    +0.000 NA
ATOM      2  C   UNL     1       2.544   5.058  18.493  0.00  0.00    +0.000 C 
ATOM      3  C   UNL     1       2.322   6.564  18.542  0.00  0.00    +0.000 C 
ATOM      4  C   UNL     1       3.232   7.279  17.565  0.00  0.00    +0.000 C 
ATOM      5  C   UNL     1       4.678   6.879  17.845  0.00  0.00    +0.000 C 
ATOM      6  C   UNL     1       4.907   5.335  17.793  0.00  0.00    +0.000 C 
ATOM      7  C   UNL     1       6.377   5.086  18.208  0.00  0.00    +0.000 C 
ATOM      8  C   UNL     1       7.058   4.518  16.997  0.00  0.00    +0.000 C 
ATOM      9  O   UNL     1       8.191   4.057  17.035  0.00  0.00    +0.000 OA
ATOM     10  N   UNL     1       6.216   4.658  15.898  0.00  0.00    +0.000 N 
ATOM     11  C   UNL     1       4.852   4.880  16.309  0.00  0.00    +0.000 C 
ENDROOT
BRANCH  10  12
ATOM     12  C   UNL     1       6.615   4.542  14.538  0.00  0.00    +0.000 A 
ATOM     13  C   UNL     1       7.442   5.506  13.947  0.00  0.00    +0.000 A 
ATOM     14  C   UNL     1       7.833   5.414  12.607  0.00  0.00    +0.000 A 
ATOM     15  C   UNL     1       7.388   4.347  11.826  0.00  0.00    +0.000 A 
ATOM     16  C   UNL     1       6.542   3.390  12.384  0.00  0.00    +0.000 A 
ATOM     17  C   UNL     1       6.157   3.490  13.731  0.00  0.00    +0.000 A 
BRANCH  16  18
ATOM     18  C   UNL     1       6.063   2.298  11.583  0.00  0.00    +0.000 C 
ATOM     19  N   UNL     1       5.682   1.410  10.945  0.00  0.00    +0.000 NA
ENDBRANCH  16  18
ENDBRANCH  10  12
BRANCH   1  20
ATOM     20  C   UNL     1       4.082   3.202  18.843  0.00  0.00    +0.000 C 
BRANCH  20  21
ATOM     21  C   UNL     1       4.326   2.721  20.289  0.00  0.00    +0.000 C 
BRANCH  21  23
ATOM     22  C   UNL     1       5.239   1.006  21.603  0.00  0.00    +0.000 C 
ATOM     23  O   UNL     1       5.208   1.595  20.305  0.00  0.00    +0.000 OA
ENDBRANCH  21  23
ENDBRANCH  20  21
ENDBRANCH   1  20
TORSDOF 5
ENDMDL
MODEL 5
REMARK VINA RESULT:      -6.4      3.383      7.035
REMARK  Name = 
REMARK  6 active torsions:
REMARK  status: ('A' for Active; 'I' for Inactive)
REMARK    1  A    between atoms: C_1  and  O_2
REMARK    2  A    between atoms: O_2  and  C_3
REMARK    3  A    between atoms: C_3  and  C_4
REMARK    4  A    between atoms: C_4  and  N_5
REMARK    5  A    between atoms: N_14  and  C_15
REMARK    6  A    between atoms: C_19  and  C_20
REMARK                            x       y       z     vdW  Elec       q    Type
REMARK                         _______ _______ _______ _____ _____    ______ ____
ROOT
ATOM      1  N   UNL     1       5.502   4.008  18.559  0.00  0.00    +0.000 NA
ATOM      2  C   UNL     1       6.849   4.466  18.944  0.00  0.00    +0.000 C 
ATOM      3  C   UNL     1       7.639   5.032  17.770  0.00  0.00    +0.000 C 
ATOM      4  C   UNL     1       6.878   6.154  17.095  0.00  0.00    +0.000 C 
ATOM      5  C   UNL     1       5.494   5.650  16.697  0.00  0.00    +0.000 C 
ATOM      6  C   UNL     1       4.683   5.073  17.901  0.00  0.00    +0.000 C 
ATOM      7  C   UNL     1       3.366   4.504  17.322  0.00  0.00    +0.000 C 
ATOM      8  C   UNL     1       2.264   5.347  17.896  0.00  0.00    +0.000 C 
ATOM      9  O   UNL     1       1.081   5.061  17.767  0.00  0.00    +0.000 OA
ATOM     10  N   UNL     1       2.823   6.461  18.515  0.00  0.00    +0.000 N 
ATOM     11  C   UNL     1       4.223   6.256  18.796  0.00  0.00    +0.000 C 
ENDROOT
BRANCH  10  12
ATOM     12  C   UNL     1       2.114   7.636  18.885  0.00  0.00    +0.000 A 
ATOM     13  C   UNL     1       1.714   8.569  17.920  0.00  0.00    +0.000 A 
ATOM     14  C   UNL     1       1.027   9.736  18.268  0.00  0.00    +0.000 A 
ATOM     15  C   UNL     1       0.737   9.997  19.607  0.00  0.00    +0.000 A 
ATOM     16  C   UNL     1       1.149   9.098  20.589  0.00  0.00    +0.000 A 
ATOM     17  C   UNL     1       1.836   7.927  20.229  0.00  0.00    +0.000 A 
BRANCH  16  18
ATOM     18  C   UNL     1       0.871   9.366  21.973  0.00  0.00    +0.000 C 
ATOM     19  N   UNL     1       0.636   9.579  23.087  0.00  0.00    +0.000 NA
ENDBRANCH  16  18
ENDBRANCH  10  12
BRANCH   1  20
ATOM     20  C   UNL     1       4.839   3.317  19.697  0.00  0.00    +0.000 C 
BRANCH  20  21
ATOM     21  C   UNL     1       4.087   2.038  19.271  0.00  0.00    +0.000 C 
BRANCH  21  23
ATOM     22  C   UNL     1       2.543   2.966  20.773  0.00  0.00    +0.000 C 
ATOM     23  O   UNL     1       2.707   2.117  19.639  0.00  0.00    +0.000 OA
ENDBRANCH  21  23
ENDBRANCH  20  21
ENDBRANCH   1  20
TORSDOF 5
ENDMDL
MODEL 6
REMARK VINA RESULT:      -6.2      2.668      7.398
REMARK  Name = 
REMARK  6 active torsions:
REMARK  status: ('A' for Active; 'I' for Inactive)
REMARK    1  A    between atoms: C_1  and  O_2
REMARK    2  A    between atoms: O_2  and  C_3
REMARK    3  A    between atoms: C_3  and  C_4
REMARK    4  A    between atoms: C_4  and  N_5
REMARK    5  A    between atoms: N_14  and  C_15
REMARK    6  A    between atoms: C_19  and  C_20
REMARK                            x       y       z     vdW  Elec       q    Type
REMARK                         _______ _______ _______ _____ _____    ______ ____
ROOT
ATOM      1  N   UNL     1       6.154   4.345  17.968  0.00  0.00    +0.000 NA
ATOM      2  C   UNL     1       6.859   4.700  16.723  0.00  0.00    +0.000 C 
ATOM      3  C   UNL     1       6.252   4.040  15.492  0.00  0.00    +0.000 C 
ATOM      4  C   UNL     1       4.778   4.368  15.371  0.00  0.00    +0.000 C 
ATOM      5  C   UNL     1       4.072   3.980  16.667  0.00  0.00    +0.000 C 
ATOM      6  C   UNL     1       4.693   4.658  17.929  0.00  0.00    +0.000 C 
ATOM      7  C   UNL     1       3.951   4.081  19.158  0.00  0.00    +0.000 C 
ATOM      8  C   UNL     1       3.209   5.233  19.773  0.00  0.00    +0.000 C 
ATOM      9  O   UNL     1       2.651   5.152  20.858  0.00  0.00    +0.000 OA
ATOM     10  N   UNL     1       3.246   6.313  18.896  0.00  0.00    +0.000 N 
ATOM     11  C   UNL     1       4.299   6.161  17.922  0.00  0.00    +0.000 C 
ENDROOT
BRANCH  10  12
ATOM     12  C   UNL     1       2.403   7.456  18.966  0.00  0.00    +0.000 A 
ATOM     13  C   UNL     1       2.055   8.164  17.809  0.00  0.00    +0.000 A 
ATOM     14  C   UNL     1       1.238   9.298  17.861  0.00  0.00    +0.000 A 
ATOM     15  C   UNL     1       0.760   9.753  19.090  0.00  0.00    +0.000 A 
ATOM     16  C   UNL     1       1.115   9.081  20.258  0.00  0.00    +0.000 A 
ATOM     17  C   UNL     1       1.934   7.942  20.195  0.00  0.00    +0.000 A 
BRANCH  16  18
ATOM     18  C   UNL     1       0.643   9.551  21.531  0.00  0.00    +0.000 C 
ATOM     19  N   UNL     1       0.273   9.932  22.561  0.00  0.00    +0.000 NA
ENDBRANCH  16  18
ENDBRANCH  10  12
BRANCH   1  20
ATOM     20  C   UNL     1       6.881   4.876  19.152  0.00  0.00    +0.000 C 
BRANCH  20  21
ATOM     21  C   UNL     1       8.023   5.844  18.775  0.00  0.00    +0.000 C 
BRANCH  21  23
ATOM     22  C   UNL     1       7.865   7.896  17.649  0.00  0.00    +0.000 C 
ATOM     23  O   UNL     1       7.585   7.203  18.863  0.00  0.00    +0.000 OA
ENDBRANCH  21  23
ENDBRANCH  20  21
ENDBRANCH   1  20
TORSDOF 5
ENDMDL
MODEL 7
REMARK VINA RESULT:      -6.1      1.914      3.286
REMARK  Name = 
REMARK  6 active torsions:
REMARK  status: ('A' for Active; 'I' for Inactive)
REMARK    1  A    between atoms: C_1  and  O_2
REMARK    2  A    between atoms: O_2  and  C_3
REMARK    3  A    between atoms: C_3  and  C_4
REMARK    4  A    between atoms: C_4  and  N_5
REMARK    5  A    between atoms: N_14  and  C_15
REMARK    6  A    between atoms: C_19  and  C_20
REMARK                            x       y       z     vdW  Elec       q    Type
REMARK                         _______ _______ _______ _____ _____    ______ ____
ROOT
ATOM      1  N   UNL     1       4.661   4.524  18.953  0.00  0.00    +0.000 NA
ATOM      2  C   UNL     1       4.672   3.165  19.525  0.00  0.00    +0.000 C 
ATOM      3  C   UNL     1       3.355   2.427  19.320  0.00  0.00    +0.000 C 
ATOM      4  C   UNL     1       2.986   2.374  17.852  0.00  0.00    +0.000 C 
ATOM      5  C   UNL     1       2.970   3.792  17.289  0.00  0.00    +0.000 C 
ATOM      6  C   UNL     1       4.321   4.548  17.497  0.00  0.00    +0.000 C 
ATOM      7  C   UNL     1       4.110   5.992  16.984  0.00  0.00    +0.000 C 
ATOM      8  C   UNL     1       5.017   6.147  15.797  0.00  0.00    +0.000 C 
ATOM      9  O   UNL     1       5.214   7.226  15.255  0.00  0.00    +0.000 OA
ATOM     10  N   UNL     1       5.512   4.896  15.441  0.00  0.00    +0.000 N 
ATOM     11  C   UNL     1       5.373   3.951  16.522  0.00  0.00    +0.000 C 
ENDROOT
BRANCH  10  12
ATOM     12  C   UNL     1       6.131   4.581  14.201  0.00  0.00    +0.000 A 
ATOM     13  C   UNL     1       7.111   5.419  13.653  0.00  0.00    +0.000 A 
ATOM     14  C   UNL     1       7.721   5.132  12.429  0.00  0.00    +0.000 A 
ATOM     15  C   UNL     1       7.348   3.990  11.719  0.00  0.00    +0.000 A 
ATOM     16  C   UNL     1       6.357   3.154  12.230  0.00  0.00    +0.000 A 
ATOM     17  C   UNL     1       5.751   3.451  13.462  0.00  0.00    +0.000 A 
BRANCH  16  18
ATOM     18  C   UNL     1       5.952   1.986  11.498  0.00  0.00    +0.000 C 
ATOM     19  N   UNL     1       5.615   1.048  10.907  0.00  0.00    +0.000 NA
ENDBRANCH  16  18
ENDBRANCH  10  12
BRANCH   1  20
ATOM     20  C   UNL     1       5.900   5.258  19.323  0.00  0.00    +0.000 C 
BRANCH  20  21
ATOM     21  C   UNL     1       7.182   4.595  18.775  0.00  0.00    +0.000 C 
BRANCH  21  23
ATOM     22  C   UNL     1       7.565   6.857  18.288  0.00  0.00    +0.000 C 
ATOM     23  O   UNL     1       7.921   5.514  17.966  0.00  0.00    +0.000 OA
ENDBRANCH  21  23
ENDBRANCH  20  21
ENDBRANCH   1  20
TORSDOF 5
ENDMDL
MODEL 8
REMARK VINA RESULT:      -6.1      1.949      3.346
REMARK  Name = 
REMARK  6 active torsions:
REMARK  status: ('A' for Active; 'I' for Inactive)
REMARK    1  A    between atoms: C_1  and  O_2
REMARK    2  A    between atoms: O_2  and  C_3
REMARK    3  A    between atoms: C_3  and  C_4
REMARK    4  A    between atoms: C_4  and  N_5
REMARK    5  A    between atoms: N_14  and  C_15
REMARK    6  A    between atoms: C_19  and  C_20
REMARK                            x       y       z     vdW  Elec       q    Type
REMARK                         _______ _______ _______ _____ _____    ______ ____
ROOT
ATOM      1  N   UNL     1       4.681   4.754  19.150  0.00  0.00    +0.000 NA
ATOM      2  C   UNL     1       4.522   3.432  19.782  0.00  0.00    +0.000 C 
ATOM      3  C   UNL     1       3.081   2.936  19.759  0.00  0.00    +0.000 C 
ATOM      4  C   UNL     1       2.540   2.909  18.344  0.00  0.00    +0.000 C 
ATOM      5  C   UNL     1       2.706   4.290  17.719  0.00  0.00    +0.000 C 
ATOM      6  C   UNL     1       4.183   4.798  17.740  0.00  0.00    +0.000 C 
ATOM      7  C   UNL     1       4.169   6.241  17.184  0.00  0.00    +0.000 C 
ATOM      8  C   UNL     1       4.945   6.198  15.899  0.00  0.00    +0.000 C 
ATOM      9  O   UNL     1       5.263   7.209  15.287  0.00  0.00    +0.000 OA
ATOM     10  N   UNL     1       5.169   4.869  15.552  0.00  0.00    +0.000 N 
ATOM     11  C   UNL     1       4.994   3.995  16.686  0.00  0.00    +0.000 C 
ENDROOT
BRANCH  10  12
ATOM     12  C   UNL     1       5.575   4.413  14.268  0.00  0.00    +0.000 A 
ATOM     13  C   UNL     1       6.927   4.411  13.900  0.00  0.00    +0.000 A 
ATOM     14  C   UNL     1       7.343   3.979  12.637  0.00  0.00    +0.000 A 
ATOM     15  C   UNL     1       6.398   3.546  11.706  0.00  0.00    +0.000 A 
ATOM     16  C   UNL     1       5.045   3.564  12.039  0.00  0.00    +0.000 A 
ATOM     17  C   UNL     1       4.637   3.998  13.311  0.00  0.00    +0.000 A 
BRANCH  16  18
ATOM     18  C   UNL     1       4.062   3.137  11.081  0.00  0.00    +0.000 C 
ATOM     19  N   UNL     1       3.278   2.792  10.302  0.00  0.00    +0.000 NA
ENDBRANCH  16  18
ENDBRANCH  10  12
BRANCH   1  20
ATOM     20  C   UNL     1       6.064   5.264  19.345  0.00  0.00    +0.000 C 
BRANCH  20  21
ATOM     21  C   UNL     1       7.105   4.544  18.461  0.00  0.00    +0.000 C 
BRANCH  21  23
ATOM     22  C   UNL     1       7.743   6.791  18.241  0.00  0.00    +0.000 C 
ATOM     23  O   UNL     1       7.836   5.487  17.672  0.00  0.00    +0.000 OA
ENDBRANCH  21  23
ENDBRANCH  20  21
ENDBRANCH   1  20
TORSDOF 5
ENDMDL
MODEL 9
REMARK VINA RESULT:      -6.0      2.146      3.099
REMARK  Name = 
REMARK  6 active torsions:
REMARK  status: ('A' for Active; 'I' for Inactive)
REMARK    1  A    between atoms: C_1  and  O_2
REMARK    2  A    between atoms: O_2  and  C_3
REMARK    3  A    between atoms: C_3  and  C_4
REMARK    4  A    between atoms: C_4  and  N_5
REMARK    5  A    between atoms: N_14  and  C_15
REMARK    6  A    between atoms: C_19  and  C_20
REMARK                            x       y       z     vdW  Elec       q    Type
REMARK                         _______ _______ _______ _____ _____    ______ ____
ROOT
ATOM      1  N   UNL     1       3.712   3.019  19.863  0.00  0.00    +0.000 NA
ATOM      2  C   UNL     1       2.378   2.415  19.697  0.00  0.00    +0.000 C 
ATOM      3  C   UNL     1       1.259   3.450  19.673  0.00  0.00    +0.000 C 
ATOM      4  C   UNL     1       1.503   4.486  18.594  0.00  0.00    +0.000 C 
ATOM      5  C   UNL     1       2.884   5.103  18.796  0.00  0.00    +0.000 C 
ATOM      6  C   UNL     1       4.030   4.042  18.819  0.00  0.00    +0.000 C 
ATOM      7  C   UNL     1       5.338   4.803  19.144  0.00  0.00    +0.000 C 
ATOM      8  C   UNL     1       6.204   4.678  17.923  0.00  0.00    +0.000 C 
ATOM      9  O   UNL     1       7.375   5.031  17.909  0.00  0.00    +0.000 OA
ATOM     10  N   UNL     1       5.441   4.163  16.879  0.00  0.00    +0.000 N 
ATOM     11  C   UNL     1       4.246   3.521  17.371  0.00  0.00    +0.000 C 
ENDROOT
BRANCH  10  12
ATOM     12  C   UNL     1       5.800   4.200  15.505  0.00  0.00    +0.000 A 
ATOM     13  C   UNL     1       5.057   3.496  14.548  0.00  0.00    +0.000 A 
ATOM     14  C   UNL     1       5.404   3.511  13.194  0.00  0.00    +0.000 A 
ATOM     15  C   UNL     1       6.522   4.231  12.772  0.00  0.00    +0.000 A 
ATOM     16  C   UNL     1       7.293   4.917  13.708  0.00  0.00    +0.000 A 
ATOM     17  C   UNL     1       6.935   4.897  15.066  0.00  0.00    +0.000 A 
BRANCH  16  18
ATOM     18  C   UNL     1       8.457   5.647  13.287  0.00  0.00    +0.000 C 
ATOM     19  N   UNL     1       9.402   6.226  12.950  0.00  0.00    +0.000 NA
ENDBRANCH  16  18
ENDBRANCH  10  12
BRANCH   1  20
ATOM     20  C   UNL     1       4.745   1.965  20.047  0.00  0.00    +0.000 C 
BRANCH  20  21
ATOM     21  C   UNL     1       4.694   1.308  21.443  0.00  0.00    +0.000 C 
BRANCH  21  23
ATOM     22  C   UNL     1       6.280  -0.201  22.286  0.00  0.00    +0.000 C 
ATOM     23  O   UNL     1       6.011   1.166  21.983  0.00  0.00    +0.000 OA
ENDBRANCH  21  23
ENDBRANCH  20  21
ENDBRANCH   1  20
TORSDOF 5
ENDMDL
