MODEL 1
REMARK VINA RESULT:      -8.3      0.000      0.000
REMARK  Name = 
REMARK  9 active torsions:
REMARK  status: ('A' for Active; 'I' for Inactive)
REMARK    1  A    between atoms: C_1  and  O_2
REMARK    2  A    between atoms: O_2  and  C_3
REMARK    3  A    between atoms: C_6  and  C_7
REMARK    4  A    between atoms: C_10  and  C_12
REMARK    5  A    between atoms: C_12  and  C_13
REMARK    6  A    between atoms: C_13  and  C_14
REMARK    7  A    between atoms: C_14  and  O_16
REMARK    8  A    between atoms: C_17  and  C_18
REMARK    9  A    between atoms: C_21  and  N_22
REMARK                            x       y       z     vdW  Elec       q    Type
REMARK                         _______ _______ _______ _____ _____    ______ ____
ROOT
ATOM      1  C   UNL     1       2.871   6.600  18.913  0.00  0.00    +0.000 C 
ATOM      2  N   UNL     1       2.328   5.446  18.682  0.00  0.00    +0.000 NA
ATOM      3  N   UNL     1       3.333   4.579  18.359  0.00  0.00    +0.000 N 
ATOM      4  C   UNL     1       3.081   3.229  18.197  0.00  0.00    +0.000 C 
ATOM      5  O   UNL     1       3.949   2.389  17.937  0.00  0.00    +0.000 OA
ATOM      6  C   UNL     1       4.660   5.196  18.391  0.00  0.00    +0.000 C 
ATOM      7  C   UNL     1       4.369   6.648  18.775  0.00  0.00    +0.000 C 
ENDROOT
BRANCH   1  11
ATOM      8  C   UNL     1       0.419   9.956  19.929  0.00  0.00    +0.000 A 
ATOM      9  C   UNL     1       0.738   8.992  20.885  0.00  0.00    +0.000 A 
ATOM     10  C   UNL     1       1.569   7.922  20.556  0.00  0.00    +0.000 A 
ATOM     11  C   UNL     1       2.070   7.797  19.256  0.00  0.00    +0.000 A 
ATOM     12  C   UNL     1       1.758   8.764  18.298  0.00  0.00    +0.000 A 
ATOM     13  C   UNL     1       0.928   9.839  18.635  0.00  0.00    +0.000 A 
BRANCH   8  15
ATOM     14  C   UNL     1       0.064  11.776  21.393  0.00  0.00    +0.000 C 
ATOM     15  O   UNL     1      -0.432  10.938  20.357  0.00  0.00    +0.000 OA
ENDBRANCH   8  15
ENDBRANCH   1  11
BRANCH   6  16
ATOM     16  C   UNL     1       5.428   5.123  17.085  0.00  0.00    +0.000 A 
ATOM     17  C   UNL     1       6.720   4.566  17.018  0.00  0.00    +0.000 A 
ATOM     18  C   UNL     1       7.410   4.516  15.808  0.00  0.00    +0.000 A 
ATOM     19  C   UNL     1       6.805   5.004  14.640  0.00  0.00    +0.000 A 
ATOM     20  C   UNL     1       5.509   5.522  14.680  0.00  0.00    +0.000 A 
ATOM     21  C   UNL     1       4.823   5.577  15.899  0.00  0.00    +0.000 A 
BRANCH  19  22
ATOM     22  N   UNL     1       7.545   4.965  13.375  0.00  0.00    +0.000 N 
ATOM     23  O   UNL     1       7.147   4.191  12.492  0.00  0.00    +0.000 OA
ATOM     24  O   UNL     1       8.530   5.709  13.263  0.00  0.00    +0.000 OA
ENDBRANCH  19  22
ENDBRANCH   6  16
BRANCH   4  25
ATOM     25  C   UNL     1       1.621   2.821  18.350  0.00  0.00    +0.000 C 
BRANCH  25  26
ATOM     26  C   UNL     1       1.397   2.001  19.609  0.00  0.00    +0.000 C 
BRANCH  26  27
ATOM     27  C   UNL     1       1.225   2.903  20.806  0.00  0.00    +0.000 C 
ATOM     28  O   UNL     1       1.628   2.629  21.926  0.00  0.00    +0.000 OA
BRANCH  27  29
ATOM     29  O   UNL     1       0.541   4.037  20.536  0.00  0.00    +0.000 OA
ATOM     30  H   UNL     1      -0.278   4.128  21.079  0.00  0.00    +0.000 HD
ENDBRANCH  27  29
ENDBRANCH  26  27
ENDBRANCH  25  26
ENDBRANCH   4  25
TORSDOF 8
ENDMDL
MODEL 2
REMARK VINA RESULT:      -8.2      0.371      1.131
REMARK  Name = 
REMARK  9 active torsions:
REMARK  status: ('A' for Active; 'I' for Inactive)
REMARK    1  A    between atoms: C_1  and  O_2
REMARK    2  A    between atoms: O_2  and  C_3
REMARK    3  A    between atoms: C_6  and  C_7
REMARK    4  A    between atoms: C_10  and  C_12
REMARK    5  A    between atoms: C_12  and  C_13
REMARK    6  A    between atoms: C_13  and  C_14
REMARK    7  A    between atoms: C_14  and  O_16
REMARK    8  A    between atoms: C_17  and  C_18
REMARK    9  A    between atoms: C_21  and  N_22
REMARK                            x       y       z     vdW  Elec       q    Type
REMARK                         _______ _______ _______ _____ _____    ______ ____
ROOT
ATOM      1  C   UNL     1       2.890   6.383  19.136  0.00  0.00    +0.000 C 
ATOM      2  N   UNL     1       2.336   5.247  18.847  0.00  0.00    +0.000 NA
ATOM      3  N   UNL     1       3.329   4.399  18.446  0.00  0.00    +0.000 N 
ATOM      4  C   UNL     1       3.068   3.062  18.208  0.00  0.00    +0.000 C 
ATOM      5  O   UNL     1       3.925   2.238  17.874  0.00  0.00    +0.000 OA
ATOM      6  C   UNL     1       4.660   5.010  18.483  0.00  0.00    +0.000 C 
ATOM      7  C   UNL     1       4.384   6.435  18.963  0.00  0.00    +0.000 C 
ENDROOT
BRANCH   1  11
ATOM      8  C   UNL     1       0.474   9.679  20.405  0.00  0.00    +0.000 A 
ATOM      9  C   UNL     1       0.721   8.606  21.261  0.00  0.00    +0.000 A 
ATOM     10  C   UNL     1       1.541   7.554  20.854  0.00  0.00    +0.000 A 
ATOM     11  C   UNL     1       2.103   7.558  19.572  0.00  0.00    +0.000 A 
ATOM     12  C   UNL     1       1.862   8.634  18.715  0.00  0.00    +0.000 A 
ATOM     13  C   UNL     1       1.043   9.690  19.131  0.00  0.00    +0.000 A 
BRANCH   8  15
ATOM     14  C   UNL     1      -0.358  11.883  20.224  0.00  0.00    +0.000 C 
ATOM     15  O   UNL     1      -0.373  10.633  20.900  0.00  0.00    +0.000 OA
ENDBRANCH   8  15
ENDBRANCH   1  11
BRANCH   6  16
ATOM     16  C   UNL     1       5.393   5.015  17.155  0.00  0.00    +0.000 A 
ATOM     17  C   UNL     1       4.831   5.600  16.003  0.00  0.00    +0.000 A 
ATOM     18  C   UNL     1       5.519   5.586  14.792  0.00  0.00    +0.000 A 
ATOM     19  C   UNL     1       6.795   5.006  14.721  0.00  0.00    +0.000 A 
ATOM     20  C   UNL     1       7.385   4.459  15.862  0.00  0.00    +0.000 A 
ATOM     21  C   UNL     1       6.687   4.468  17.075  0.00  0.00    +0.000 A 
BRANCH  19  22
ATOM     22  N   UNL     1       7.505   4.980  13.439  0.00  0.00    +0.000 N 
ATOM     23  O   UNL     1       8.486   5.726  13.301  0.00  0.00    +0.000 OA
ATOM     24  O   UNL     1       7.079   4.213  12.563  0.00  0.00    +0.000 OA
ENDBRANCH  19  22
ENDBRANCH   6  16
BRANCH   4  25
ATOM     25  C   UNL     1       1.611   2.649  18.373  0.00  0.00    +0.000 C 
BRANCH  25  26
ATOM     26  C   UNL     1       1.394   1.859  19.651  0.00  0.00    +0.000 C 
BRANCH  26  27
ATOM     27  C   UNL     1       1.238   2.788  20.829  0.00  0.00    +0.000 C 
ATOM     28  O   UNL     1       1.682   2.553  21.942  0.00  0.00    +0.000 OA
BRANCH  27  29
ATOM     29  O   UNL     1       0.520   3.899  20.552  0.00  0.00    +0.000 OA
ATOM     30  H   UNL     1       0.590   4.586  21.257  0.00  0.00    +0.000 HD
ENDBRANCH  27  29
ENDBRANCH  26  27
ENDBRANCH  25  26
ENDBRANCH   4  25
TORSDOF 8
ENDMDL
MODEL 3
REMARK VINA RESULT:      -8.2      0.609      1.223
REMARK  Name = 
REMARK  9 active torsions:
REMARK  status: ('A' for Active; 'I' for Inactive)
REMARK    1  A    between atoms: C_1  and  O_2
REMARK    2  A    between atoms: O_2  and  C_3
REMARK    3  A    between atoms: C_6  and  C_7
REMARK    4  A    between atoms: C_10  and  C_12
REMARK    5  A    between atoms: C_12  and  C_13
REMARK    6  A    between atoms: C_13  and  C_14
REMARK    7  A    between atoms: C_14  and  O_16
REMARK    8  A    between atoms: C_17  and  C_18
REMARK    9  A    between atoms: C_21  and  N_22
REMARK                            x       y       z     vdW  Elec       q    Type
REMARK                         _______ _______ _______ _____ _____    ______ ____
ROOT
ATOM      1  C   UNL     1       2.953   6.404  18.609  0.00  0.00    +0.000 C 
ATOM      2  N   UNL     1       2.394   5.241  18.483  0.00  0.00    +0.000 NA
ATOM      3  N   UNL     1       3.371   4.353  18.135  0.00  0.00    +0.000 N 
ATOM      4  C   UNL     1       3.108   2.997  18.068  0.00  0.00    +0.000 C 
ATOM      5  O   UNL     1       3.954   2.141  17.791  0.00  0.00    +0.000 OA
ATOM      6  C   UNL     1       4.698   4.965  18.035  0.00  0.00    +0.000 C 
ATOM      7  C   UNL     1       4.436   6.437  18.358  0.00  0.00    +0.000 C 
ENDROOT
BRANCH   1  11
ATOM      8  C   UNL     1       0.859  10.017  19.541  0.00  0.00    +0.000 A 
ATOM      9  C   UNL     1       1.304   9.766  18.243  0.00  0.00    +0.000 A 
ATOM     10  C   UNL     1       1.951   8.569  17.939  0.00  0.00    +0.000 A 
ATOM     11  C   UNL     1       2.180   7.621  18.943  0.00  0.00    +0.000 A 
ATOM     12  C   UNL     1       1.730   7.867  20.242  0.00  0.00    +0.000 A 
ATOM     13  C   UNL     1       1.076   9.068  20.540  0.00  0.00    +0.000 A 
BRANCH   8  15
ATOM     14  C   UNL     1       0.561  11.884  20.958  0.00  0.00    +0.000 C 
ATOM     15  O   UNL     1       0.271  11.239  19.726  0.00  0.00    +0.000 OA
ENDBRANCH   8  15
ENDBRANCH   1  11
BRANCH   6  16
ATOM     16  C   UNL     1       5.367   4.817  16.681  0.00  0.00    +0.000 A 
ATOM     17  C   UNL     1       6.763   4.932  16.530  0.00  0.00    +0.000 A 
ATOM     18  C   UNL     1       7.354   4.800  15.276  0.00  0.00    +0.000 A 
ATOM     19  C   UNL     1       6.557   4.526  14.154  0.00  0.00    +0.000 A 
ATOM     20  C   UNL     1       5.177   4.369  14.291  0.00  0.00    +0.000 A 
ATOM     21  C   UNL     1       4.586   4.510  15.552  0.00  0.00    +0.000 A 
BRANCH  19  22
ATOM     22  N   UNL     1       7.186   4.407  12.836  0.00  0.00    +0.000 N 
ATOM     23  O   UNL     1       8.029   5.257  12.514  0.00  0.00    +0.000 OA
ATOM     24  O   UNL     1       6.835   3.460  12.116  0.00  0.00    +0.000 OA
ENDBRANCH  19  22
ENDBRANCH   6  16
BRANCH   4  25
ATOM     25  C   UNL     1       1.664   2.605  18.351  0.00  0.00    +0.000 C 
BRANCH  25  26
ATOM     26  C   UNL     1       1.529   1.882  19.680  0.00  0.00    +0.000 C 
BRANCH  26  27
ATOM     27  C   UNL     1       1.289   2.867  20.797  0.00  0.00    +0.000 C 
ATOM     28  O   UNL     1       1.702   2.716  21.936  0.00  0.00    +0.000 OA
BRANCH  27  29
ATOM     29  O   UNL     1       0.531   3.926  20.432  0.00  0.00    +0.000 OA
ATOM     30  H   UNL     1       0.116   4.383  21.202  0.00  0.00    +0.000 HD
ENDBRANCH  27  29
ENDBRANCH  26  27
ENDBRANCH  25  26
ENDBRANCH   4  25
TORSDOF 8
ENDMDL
MODEL 4
REMARK VINA RESULT:      -7.8      0.707      1.083
REMARK  Name = 
REMARK  9 active torsions:
REMARK  status: ('A' for Active; 'I' for Inactive)
REMARK    1  A    between atoms: C_1  and  O_2
REMARK    2  A    between atoms: O_2  and  C_3
REMARK    3  A    between atoms: C_6  and  C_7
REMARK    4  A    between atoms: C_10  and  C_12
REMARK    5  A    between atoms: C_12  and  C_13
REMARK    6  A    between atoms: C_13  and  C_14
REMARK    7  A    between atoms: C_14  and  O_16
REMARK    8  A    between atoms: C_17  and  C_18
REMARK    9  A    between atoms: C_21  and  N_22
REMARK                            x       y       z     vdW  Elec       q    Type
REMARK                         _______ _______ _______ _____ _____    ______ ____
ROOT
ATOM      1  C   UNL     1       3.055   6.507  18.472  0.00  0.00    +0.000 C 
ATOM      2  N   UNL     1       2.469   5.354  18.384  0.00  0.00    +0.000 NA
ATOM      3  N   UNL     1       3.420   4.437  18.039  0.00  0.00    +0.000 N 
ATOM      4  C   UNL     1       3.127   3.086  18.008  0.00  0.00    +0.000 C 
ATOM      5  O   UNL     1       3.948   2.205  17.736  0.00  0.00    +0.000 OA
ATOM      6  C   UNL     1       4.757   5.018  17.898  0.00  0.00    +0.000 C 
ATOM      7  C   UNL     1       4.534   6.502  18.192  0.00  0.00    +0.000 C 
ENDROOT
BRANCH   1  11
ATOM      8  C   UNL     1       0.773  10.000  19.423  0.00  0.00    +0.000 A 
ATOM      9  C   UNL     1       1.032   9.032  20.393  0.00  0.00    +0.000 A 
ATOM     10  C   UNL     1       1.809   7.916  20.086  0.00  0.00    +0.000 A 
ATOM     11  C   UNL     1       2.315   7.748  18.792  0.00  0.00    +0.000 A 
ATOM     12  C   UNL     1       2.063   8.718  17.820  0.00  0.00    +0.000 A 
ATOM     13  C   UNL     1       1.287   9.840  18.135  0.00  0.00    +0.000 A 
BRANCH   8  15
ATOM     14  C   UNL     1       0.569  11.963  20.721  0.00  0.00    +0.000 C 
ATOM     15  O   UNL     1      -0.029  11.030  19.831  0.00  0.00    +0.000 OA
ENDBRANCH   8  15
ENDBRANCH   1  11
BRANCH   6  16
ATOM     16  C   UNL     1       5.395   4.823  16.536  0.00  0.00    +0.000 A 
ATOM     17  C   UNL     1       6.782   4.977  16.341  0.00  0.00    +0.000 A 
ATOM     18  C   UNL     1       7.346   4.801  15.079  0.00  0.00    +0.000 A 
ATOM     19  C   UNL     1       6.529   4.445  13.995  0.00  0.00    +0.000 A 
ATOM     20  C   UNL     1       5.160   4.249  14.177  0.00  0.00    +0.000 A 
ATOM     21  C   UNL     1       4.597   4.434  15.445  0.00  0.00    +0.000 A 
BRANCH  19  22
ATOM     22  N   UNL     1       7.128   4.281  12.667  0.00  0.00    +0.000 N 
ATOM     23  O   UNL     1       7.905   5.160  12.265  0.00  0.00    +0.000 OA
ATOM     24  O   UNL     1       6.819   3.269  12.019  0.00  0.00    +0.000 OA
ENDBRANCH  19  22
ENDBRANCH   6  16
BRANCH   4  25
ATOM     25  C   UNL     1       1.680   2.732  18.328  0.00  0.00    +0.000 C 
BRANCH  25  26
ATOM     26  C   UNL     1       1.566   1.968  19.637  0.00  0.00    +0.000 C 
BRANCH  26  27
ATOM     27  C   UNL     1       1.360   2.919  20.790  0.00  0.00    +0.000 C 
ATOM     28  O   UNL     1       0.801   4.000  20.687  0.00  0.00    +0.000 OA
BRANCH  27  29
ATOM     29  O   UNL     1       1.891   2.481  21.953  0.00  0.00    +0.000 OA
ATOM     30  H   UNL     1       1.259   1.940  22.483  0.00  0.00    +0.000 HD
ENDBRANCH  27  29
ENDBRANCH  26  27
ENDBRANCH  25  26
ENDBRANCH   4  25
TORSDOF 8
ENDMDL
MODEL 5
REMARK VINA RESULT:      -7.8      1.281      1.855
REMARK  Name = 
REMARK  9 active torsions:
REMARK  status: ('A' for Active; 'I' for Inactive)
REMARK    1  A    between atoms: C_1  and  O_2
REMARK    2  A    between atoms: O_2  and  C_3
REMARK    3  A    between atoms: C_6  and  C_7
REMARK    4  A    between atoms: C_10  and  C_12
REMARK    5  A    between atoms: C_12  and  C_13
REMARK    6  A    between atoms: C_13  and  C_14
REMARK    7  A    between atoms: C_14  and  O_16
REMARK    8  A    between atoms: C_17  and  C_18
REMARK    9  A    between atoms: C_21  and  N_22
REMARK                            x       y       z     vdW  Elec       q    Type
REMARK                         _______ _______ _______ _____ _____    ______ ____
ROOT
ATOM      1  C   UNL     1       3.219   6.862  18.786  0.00  0.00    +0.000 C 
ATOM      2  N   UNL     1       3.068   5.647  19.213  0.00  0.00    +0.000 NA
ATOM      3  N   UNL     1       4.185   4.947  18.856  0.00  0.00    +0.000 N 
ATOM      4  C   UNL     1       4.383   3.652  19.298  0.00  0.00    +0.000 C 
ATOM      5  O   UNL     1       5.384   2.977  19.038  0.00  0.00    +0.000 OA
ATOM      6  C   UNL     1       5.173   5.761  18.144  0.00  0.00    +0.000 C 
ATOM      7  C   UNL     1       4.511   7.137  18.066  0.00  0.00    +0.000 C 
ENDROOT
BRANCH   1  11
ATOM      8  C   UNL     1       0.323   9.977  19.257  0.00  0.00    +0.000 A 
ATOM      9  C   UNL     1       0.870   9.697  18.005  0.00  0.00    +0.000 A 
ATOM     10  C   UNL     1       1.784   8.655  17.853  0.00  0.00    +0.000 A 
ATOM     11  C   UNL     1       2.176   7.898  18.963  0.00  0.00    +0.000 A 
ATOM     12  C   UNL     1       1.625   8.171  20.216  0.00  0.00    +0.000 A 
ATOM     13  C   UNL     1       0.703   9.215  20.362  0.00  0.00    +0.000 A 
BRANCH   8  15
ATOM     14  C   UNL     1      -1.580  11.023  18.327  0.00  0.00    +0.000 C 
ATOM     15  O   UNL     1      -0.535  11.043  19.289  0.00  0.00    +0.000 OA
ENDBRANCH   8  15
ENDBRANCH   1  11
BRANCH   6  16
ATOM     16  C   UNL     1       5.537   5.253  16.761  0.00  0.00    +0.000 A 
ATOM     17  C   UNL     1       6.823   5.445  16.219  0.00  0.00    +0.000 A 
ATOM     18  C   UNL     1       7.133   4.978  14.944  0.00  0.00    +0.000 A 
ATOM     19  C   UNL     1       6.164   4.289  14.199  0.00  0.00    +0.000 A 
ATOM     20  C   UNL     1       4.897   4.054  14.736  0.00  0.00    +0.000 A 
ATOM     21  C   UNL     1       4.588   4.532  16.015  0.00  0.00    +0.000 A 
BRANCH  19  22
ATOM     22  N   UNL     1       6.493   3.817  12.851  0.00  0.00    +0.000 N 
ATOM     23  O   UNL     1       7.433   4.364  12.256  0.00  0.00    +0.000 OA
ATOM     24  O   UNL     1       5.807   2.897  12.381  0.00  0.00    +0.000 OA
ENDBRANCH  19  22
ENDBRANCH   6  16
BRANCH   4  25
ATOM     25  C   UNL     1       3.253   3.079  20.144  0.00  0.00    +0.000 C 
BRANCH  25  26
ATOM     26  C   UNL     1       2.389   2.117  19.348  0.00  0.00    +0.000 C 
BRANCH  26  27
ATOM     27  C   UNL     1       0.975   2.634  19.246  0.00  0.00    +0.000 C 
ATOM     28  O   UNL     1       0.166   2.238  18.422  0.00  0.00    +0.000 OA
BRANCH  27  29
ATOM     29  O   UNL     1       0.692   3.614  20.132  0.00  0.00    +0.000 OA
ATOM     30  H   UNL     1       1.499   4.079  20.459  0.00  0.00    +0.000 HD
ENDBRANCH  27  29
ENDBRANCH  26  27
ENDBRANCH  25  26
ENDBRANCH   4  25
TORSDOF 8
ENDMDL
MODEL 6
REMARK VINA RESULT:      -7.8      0.700      1.052
REMARK  Name = 
REMARK  9 active torsions:
REMARK  status: ('A' for Active; 'I' for Inactive)
REMARK    1  A    between atoms: C_1  and  O_2
REMARK    2  A    between atoms: O_2  and  C_3
REMARK    3  A    between atoms: C_6  and  C_7
REMARK    4  A    between atoms: C_10  and  C_12
REMARK    5  A    between atoms: C_12  and  C_13
REMARK    6  A    between atoms: C_13  and  C_14
REMARK    7  A    between atoms: C_14  and  O_16
REMARK    8  A    between atoms: C_17  and  C_18
REMARK    9  A    between atoms: C_21  and  N_22
REMARK                            x       y       z     vdW  Elec       q    Type
REMARK                         _______ _______ _______ _____ _____    ______ ____
ROOT
ATOM      1  C   UNL     1       2.873   6.658  18.572  0.00  0.00    +0.000 C 
ATOM      2  N   UNL     1       2.247   5.527  18.475  0.00  0.00    +0.000 NA
ATOM      3  N   UNL     1       3.166   4.581  18.121  0.00  0.00    +0.000 N 
ATOM      4  C   UNL     1       2.826   3.241  18.079  0.00  0.00    +0.000 C 
ATOM      5  O   UNL     1       3.616   2.335  17.798  0.00  0.00    +0.000 OA
ATOM      6  C   UNL     1       4.522   5.116  17.984  0.00  0.00    +0.000 C 
ATOM      7  C   UNL     1       4.350   6.605  18.290  0.00  0.00    +0.000 C 
ENDROOT
BRANCH   1  11
ATOM      8  C   UNL     1       0.714  10.219  19.556  0.00  0.00    +0.000 A 
ATOM      9  C   UNL     1       0.948   9.239  20.520  0.00  0.00    +0.000 A 
ATOM     10  C   UNL     1       1.685   8.100  20.202  0.00  0.00    +0.000 A 
ATOM     11  C   UNL     1       2.176   7.922  18.904  0.00  0.00    +0.000 A 
ATOM     12  C   UNL     1       1.950   8.905  17.938  0.00  0.00    +0.000 A 
ATOM     13  C   UNL     1       1.214  10.049  18.265  0.00  0.00    +0.000 A 
BRANCH   8  15
ATOM     14  C   UNL     1      -0.751  11.081  21.197  0.00  0.00    +0.000 C 
ATOM     15  O   UNL     1      -0.051  11.274  19.975  0.00  0.00    +0.000 OA
ENDBRANCH   8  15
ENDBRANCH   1  11
BRANCH   6  16
ATOM     16  C   UNL     1       5.152   4.911  16.619  0.00  0.00    +0.000 A 
ATOM     17  C   UNL     1       5.102   5.909  15.625  0.00  0.00    +0.000 A 
ATOM     18  C   UNL     1       5.681   5.696  14.376  0.00  0.00    +0.000 A 
ATOM     19  C   UNL     1       6.340   4.486  14.110  0.00  0.00    +0.000 A 
ATOM     20  C   UNL     1       6.434   3.502  15.095  0.00  0.00    +0.000 A 
ATOM     21  C   UNL     1       5.845   3.717  16.347  0.00  0.00    +0.000 A 
BRANCH  19  22
ATOM     22  N   UNL     1       6.929   4.263  12.786  0.00  0.00    +0.000 N 
ATOM     23  O   UNL     1       6.570   3.260  12.151  0.00  0.00    +0.000 OA
ATOM     24  O   UNL     1       7.757   5.091  12.380  0.00  0.00    +0.000 OA
ENDBRANCH  19  22
ENDBRANCH   6  16
BRANCH   4  25
ATOM     25  C   UNL     1       1.368   2.934  18.398  0.00  0.00    +0.000 C 
BRANCH  25  26
ATOM     26  C   UNL     1       1.233   2.120  19.673  0.00  0.00    +0.000 C 
BRANCH  26  27
ATOM     27  C   UNL     1       1.290   3.016  20.884  0.00  0.00    +0.000 C 
ATOM     28  O   UNL     1       1.670   2.648  21.984  0.00  0.00    +0.000 OA
BRANCH  27  29
ATOM     29  O   UNL     1       0.839   4.270  20.652  0.00  0.00    +0.000 OA
ATOM     30  H   UNL     1       1.287   4.702  19.887  0.00  0.00    +0.000 HD
ENDBRANCH  27  29
ENDBRANCH  26  27
ENDBRANCH  25  26
ENDBRANCH   4  25
TORSDOF 8
ENDMDL
MODEL 7
REMARK VINA RESULT:      -7.8      0.883      1.452
REMARK  Name = 
REMARK  9 active torsions:
REMARK  status: ('A' for Active; 'I' for Inactive)
REMARK    1  A    between atoms: C_1  and  O_2
REMARK    2  A    between atoms: O_2  and  C_3
REMARK    3  A    between atoms: C_6  and  C_7
REMARK    4  A    between atoms: C_10  and  C_12
REMARK    5  A    between atoms: C_12  and  C_13
REMARK    6  A    between atoms: C_13  and  C_14
REMARK    7  A    between atoms: C_14  and  O_16
REMARK    8  A    between atoms: C_17  and  C_18
REMARK    9  A    between atoms: C_21  and  N_22
REMARK                            x       y       z     vdW  Elec       q    Type
REMARK                         _______ _______ _______ _____ _____    ______ ____
ROOT
ATOM      1  C   UNL     1       3.068   6.529  18.438  0.00  0.00    +0.000 C 
ATOM      2  N   UNL     1       2.474   5.378  18.386  0.00  0.00    +0.000 NA
ATOM      3  N   UNL     1       3.411   4.450  18.029  0.00  0.00    +0.000 N 
ATOM      4  C   UNL     1       3.111   3.101  18.029  0.00  0.00    +0.000 C 
ATOM      5  O   UNL     1       3.919   2.211  17.748  0.00  0.00    +0.000 OA
ATOM      6  C   UNL     1       4.746   5.022  17.839  0.00  0.00    +0.000 C 
ATOM      7  C   UNL     1       4.538   6.512  18.114  0.00  0.00    +0.000 C 
ENDROOT
BRANCH   1  11
ATOM      8  C   UNL     1       0.829  10.050  19.385  0.00  0.00    +0.000 A 
ATOM      9  C   UNL     1       1.050   9.066  20.349  0.00  0.00    +0.000 A 
ATOM     10  C   UNL     1       1.813   7.940  20.043  0.00  0.00    +0.000 A 
ATOM     11  C   UNL     1       2.344   7.779  18.758  0.00  0.00    +0.000 A 
ATOM     12  C   UNL     1       2.130   8.766  17.793  0.00  0.00    +0.000 A 
ATOM     13  C   UNL     1       1.367   9.897  18.107  0.00  0.00    +0.000 A 
BRANCH   8  15
ATOM     14  C   UNL     1      -1.305  11.061  19.323  0.00  0.00    +0.000 C 
ATOM     15  O   UNL     1       0.037  11.089  19.790  0.00  0.00    +0.000 OA
ENDBRANCH   8  15
ENDBRANCH   1  11
BRANCH   6  16
ATOM     16  C   UNL     1       5.343   4.801  16.462  0.00  0.00    +0.000 A 
ATOM     17  C   UNL     1       4.543   4.442  15.359  0.00  0.00    +0.000 A 
ATOM     18  C   UNL     1       5.114   4.236  14.105  0.00  0.00    +0.000 A 
ATOM     19  C   UNL     1       6.496   4.411  13.931  0.00  0.00    +0.000 A 
ATOM     20  C   UNL     1       7.297   4.806  15.002  0.00  0.00    +0.000 A 
ATOM     21  C   UNL     1       6.721   5.004  16.263  0.00  0.00    +0.000 A 
BRANCH  19  22
ATOM     22  N   UNL     1       7.090   4.174  12.612  0.00  0.00    +0.000 N 
ATOM     23  O   UNL     1       7.882   5.020  12.171  0.00  0.00    +0.000 OA
ATOM     24  O   UNL     1       6.764   3.140  12.012  0.00  0.00    +0.000 OA
ENDBRANCH  19  22
ENDBRANCH   6  16
BRANCH   4  25
ATOM     25  C   UNL     1       1.672   2.759  18.398  0.00  0.00    +0.000 C 
BRANCH  25  26
ATOM     26  C   UNL     1       1.593   2.023  19.724  0.00  0.00    +0.000 C 
BRANCH  26  27
ATOM     27  C   UNL     1       1.573   3.001  20.873  0.00  0.00    +0.000 C 
ATOM     28  O   UNL     1       0.963   4.058  20.855  0.00  0.00    +0.000 OA
BRANCH  27  29
ATOM     29  O   UNL     1       2.334   2.618  21.923  0.00  0.00    +0.000 OA
ATOM     30  H   UNL     1       2.980   3.310  22.200  0.00  0.00    +0.000 HD
ENDBRANCH  27  29
ENDBRANCH  26  27
ENDBRANCH  25  26
ENDBRANCH   4  25
TORSDOF 8
ENDMDL
MODEL 8
REMARK VINA RESULT:      -7.7      1.291      1.542
REMARK  Name = 
REMARK  9 active torsions:
REMARK  status: ('A' for Active; 'I' for Inactive)
REMARK    1  A    between atoms: C_1  and  O_2
REMARK    2  A    between atoms: O_2  and  C_3
REMARK    3  A    between atoms: C_6  and  C_7
REMARK    4  A    between atoms: C_10  and  C_12
REMARK    5  A    between atoms: C_12  and  C_13
REMARK    6  A    between atoms: C_13  and  C_14
REMARK    7  A    between atoms: C_14  and  O_16
REMARK    8  A    between atoms: C_17  and  C_18
REMARK    9  A    between atoms: C_21  and  N_22
REMARK                            x       y       z     vdW  Elec       q    Type
REMARK                         _______ _______ _______ _____ _____    ______ ____
ROOT
ATOM      1  C   UNL     1       3.260   6.932  18.736  0.00  0.00    +0.000 C 
ATOM      2  N   UNL     1       3.090   5.725  19.177  0.00  0.00    +0.000 NA
ATOM      3  N   UNL     1       4.192   5.001  18.822  0.00  0.00    +0.000 N 
ATOM      4  C   UNL     1       4.370   3.708  19.277  0.00  0.00    +0.000 C 
ATOM      5  O   UNL     1       5.357   3.012  19.019  0.00  0.00    +0.000 OA
ATOM      6  C   UNL     1       5.191   5.790  18.097  0.00  0.00    +0.000 C 
ATOM      7  C   UNL     1       4.554   7.177  18.008  0.00  0.00    +0.000 C 
ENDROOT
BRANCH   1  11
ATOM      8  C   UNL     1       0.186   9.860  19.270  0.00  0.00    +0.000 A 
ATOM      9  C   UNL     1       0.653   9.113  20.351  0.00  0.00    +0.000 A 
ATOM     10  C   UNL     1       1.681   8.189  20.176  0.00  0.00    +0.000 A 
ATOM     11  C   UNL     1       2.236   7.988  18.907  0.00  0.00    +0.000 A 
ATOM     12  C   UNL     1       1.776   8.739  17.824  0.00  0.00    +0.000 A 
ATOM     13  C   UNL     1       0.747   9.670  18.007  0.00  0.00    +0.000 A 
BRANCH   8  15
ATOM     14  C   UNL     1      -1.794  10.905  18.512  0.00  0.00    +0.000 C 
ATOM     15  O   UNL     1      -0.849  10.709  19.556  0.00  0.00    +0.000 OA
ENDBRANCH   8  15
ENDBRANCH   1  11
BRANCH   6  16
ATOM     16  C   UNL     1       5.540   5.262  16.718  0.00  0.00    +0.000 A 
ATOM     17  C   UNL     1       6.821   5.442  16.160  0.00  0.00    +0.000 A 
ATOM     18  C   UNL     1       7.117   4.956  14.889  0.00  0.00    +0.000 A 
ATOM     19  C   UNL     1       6.138   4.259  14.164  0.00  0.00    +0.000 A 
ATOM     20  C   UNL     1       4.876   4.036  14.716  0.00  0.00    +0.000 A 
ATOM     21  C   UNL     1       4.581   4.533  15.991  0.00  0.00    +0.000 A 
BRANCH  19  22
ATOM     22  N   UNL     1       6.451   3.767  12.819  0.00  0.00    +0.000 N 
ATOM     23  O   UNL     1       5.757   2.848  12.359  0.00  0.00    +0.000 OA
ATOM     24  O   UNL     1       7.397   4.299  12.219  0.00  0.00    +0.000 OA
ENDBRANCH  19  22
ENDBRANCH   6  16
BRANCH   4  25
ATOM     25  C   UNL     1       3.235   3.163  20.134  0.00  0.00    +0.000 C 
BRANCH  25  26
ATOM     26  C   UNL     1       2.383   2.164  19.369  0.00  0.00    +0.000 C 
BRANCH  26  27
ATOM     27  C   UNL     1       0.961   2.655  19.257  0.00  0.00    +0.000 C 
ATOM     28  O   UNL     1       0.158   2.227  18.444  0.00  0.00    +0.000 OA
BRANCH  27  29
ATOM     29  O   UNL     1       0.663   3.651  20.121  0.00  0.00    +0.000 OA
ATOM     30  H   UNL     1       0.380   4.480  19.666  0.00  0.00    +0.000 HD
ENDBRANCH  27  29
ENDBRANCH  26  27
ENDBRANCH  25  26
ENDBRANCH   4  25
TORSDOF 8
ENDMDL
MODEL 9
REMARK VINA RESULT:      -7.7      1.278      1.757
REMARK  Name = 
REMARK  9 active torsions:
REMARK  status: ('A' for Active; 'I' for Inactive)
REMARK    1  A    between atoms: C_1  and  O_2
REMARK    2  A    between atoms: O_2  and  C_3
REMARK    3  A    between atoms: C_6  and  C_7
REMARK    4  A    between atoms: C_10  and  C_12
REMARK    5  A    between atoms: C_12  and  C_13
REMARK    6  A    between atoms: C_13  and  C_14
REMARK    7  A    between atoms: C_14  and  O_16
REMARK    8  A    between atoms: C_17  and  C_18
REMARK    9  A    between atoms: C_21  and  N_22
REMARK                            x       y       z     vdW  Elec       q    Type
REMARK                         _______ _______ _______ _____ _____    ______ ____
ROOT
ATOM      1  C   UNL     1       3.260   6.907  18.722  0.00  0.00    +0.000 C 
ATOM      2  N   UNL     1       3.092   5.702  19.168  0.00  0.00    +0.000 NA
ATOM      3  N   UNL     1       4.186   4.973  18.797  0.00  0.00    +0.000 N 
ATOM      4  C   UNL     1       4.366   3.680  19.251  0.00  0.00    +0.000 C 
ATOM      5  O   UNL     1       5.346   2.980  18.979  0.00  0.00    +0.000 OA
ATOM      6  C   UNL     1       5.176   5.757  18.054  0.00  0.00    +0.000 C 
ATOM      7  C   UNL     1       4.543   7.146  17.973  0.00  0.00    +0.000 C 
ENDROOT
BRANCH   1  11
ATOM      8  C   UNL     1       0.205   9.848  19.296  0.00  0.00    +0.000 A 
ATOM      9  C   UNL     1       0.672   9.089  20.368  0.00  0.00    +0.000 A 
ATOM     10  C   UNL     1       1.695   8.160  20.180  0.00  0.00    +0.000 A 
ATOM     11  C   UNL     1       2.243   7.967  18.907  0.00  0.00    +0.000 A 
ATOM     12  C   UNL     1       1.782   8.731  17.833  0.00  0.00    +0.000 A 
ATOM     13  C   UNL     1       0.759   9.666  18.028  0.00  0.00    +0.000 A 
BRANCH   8  15
ATOM     14  C   UNL     1      -1.352  11.437  18.500  0.00  0.00    +0.000 C 
ATOM     15  O   UNL     1      -0.823  10.701  19.594  0.00  0.00    +0.000 OA
ENDBRANCH   8  15
ENDBRANCH   1  11
BRANCH   6  16
ATOM     16  C   UNL     1       5.501   5.225  16.671  0.00  0.00    +0.000 A 
ATOM     17  C   UNL     1       4.542   4.542  15.898  0.00  0.00    +0.000 A 
ATOM     18  C   UNL     1       4.864   4.055  14.633  0.00  0.00    +0.000 A 
ATOM     19  C   UNL     1       6.151   4.266  14.113  0.00  0.00    +0.000 A 
ATOM     20  C   UNL     1       7.102   4.975  14.847  0.00  0.00    +0.000 A 
ATOM     21  C   UNL     1       6.775   5.455  16.121  0.00  0.00    +0.000 A 
BRANCH  19  22
ATOM     22  N   UNL     1       6.487   3.734  12.789  0.00  0.00    +0.000 N 
ATOM     23  O   UNL     1       7.415   4.270  12.165  0.00  0.00    +0.000 OA
ATOM     24  O   UNL     1       5.821   2.777  12.368  0.00  0.00    +0.000 OA
ENDBRANCH  19  22
ENDBRANCH   6  16
BRANCH   4  25
ATOM     25  C   UNL     1       3.242   3.141  20.127  0.00  0.00    +0.000 C 
BRANCH  25  26
ATOM     26  C   UNL     1       2.371   2.150  19.375  0.00  0.00    +0.000 C 
BRANCH  26  27
ATOM     27  C   UNL     1       0.958   2.664  19.262  0.00  0.00    +0.000 C 
ATOM     28  O   UNL     1       0.140   2.233  18.465  0.00  0.00    +0.000 OA
BRANCH  27  29
ATOM     29  O   UNL     1       0.684   3.685  20.105  0.00  0.00    +0.000 OA
ATOM     30  H   UNL     1       0.200   3.394  20.914  0.00  0.00    +0.000 HD
ENDBRANCH  27  29
ENDBRANCH  26  27
ENDBRANCH  25  26
ENDBRANCH   4  25
TORSDOF 8
ENDMDL
