MODEL 1
REMARK VINA RESULT:      -7.9      0.000      0.000
REMARK  Name = 
REMARK  4 active torsions:
REMARK  status: ('A' for Active; 'I' for Inactive)
REMARK    1  A    between atoms: C_1  and  N_2
REMARK    2  A    between atoms: N_2  and  C_3
REMARK    3  A    between atoms: N_2  and  C_13
REMARK    4  A    between atoms: C_3  and  C_4
REMARK                            x       y       z     vdW  Elec       q    Type
REMARK                         _______ _______ _______ _____ _____    ______ ____
ROOT
ATOM      1  C   UNL     1       2.758   3.890  20.973  0.00  0.00    +0.000 C 
ATOM      2  N   UNL     1       1.939   4.813  20.178  0.00  0.00    +0.000 NA
ENDROOT
BRANCH   2   3
ATOM      3  C   UNL     1       1.252   4.141  19.035  0.00  0.00    +0.000 C 
ATOM      4  C   UNL     1       1.158   2.606  19.231  0.00  0.00    +0.000 C 
ATOM      5  C   UNL     1       2.504   1.918  19.010  0.00  0.00    +0.000 C 
ATOM      6  C   UNL     1       3.008   2.169  17.593  0.00  0.00    +0.000 C 
ATOM      7  N   UNL     1       3.062   3.601  17.335  0.00  0.00    +0.000 N 
ATOM      8  C   UNL     1       4.219   4.244  16.938  0.00  0.00    +0.000 A 
ATOM      9  C   UNL     1       5.234   3.584  16.249  0.00  0.00    +0.000 A 
ATOM     10  C   UNL     1       6.411   4.249  15.904  0.00  0.00    +0.000 A 
ATOM     11  C   UNL     1       6.532   5.569  16.249  0.00  0.00    +0.000 A 
ATOM     12  N   UNL     1       5.548   6.230  16.870  0.00  0.00    +0.000 NA
ATOM     13  N   UNL     1       4.388   5.558  17.201  0.00  0.00    +0.000 NA
ATOM     14  C   UNL     1       1.850   4.383  17.605  0.00  0.00    +0.000 C 
ENDBRANCH   2   3
BRANCH   2  15
ATOM     15  C   UNL     1       2.782   5.978  19.772  0.00  0.00    +0.000 C 
BRANCH  15  16
ATOM     16  C   UNL     1       2.105   7.337  19.815  0.00  0.00    +0.000 A 
ATOM     17  N   UNL     1       1.482   7.837  20.864  0.00  0.00    +0.000 NA
ATOM     18  C   UNL     1       0.839   9.014  20.524  0.00  0.00    +0.000 A 
ATOM     19  C   UNL     1      -0.003   9.770  21.368  0.00  0.00    +0.000 A 
ATOM     20  C   UNL     1      -0.600  10.940  20.887  0.00  0.00    +0.000 A 
ATOM     21  C   UNL     1      -0.366  11.363  19.582  0.00  0.00    +0.000 A 
ATOM     22  C   UNL     1       0.466  10.632  18.729  0.00  0.00    +0.000 A 
ATOM     23  C   UNL     1       1.055   9.456  19.220  0.00  0.00    +0.000 A 
ATOM     24  S   UNL     1       2.092   8.340  18.416  0.00  0.00    +0.000 S 
ENDBRANCH  15  16
ENDBRANCH   2  15
TORSDOF 3
ENDMDL
MODEL 2
REMARK VINA RESULT:      -7.7      1.113      1.417
REMARK  Name = 
REMARK  4 active torsions:
REMARK  status: ('A' for Active; 'I' for Inactive)
REMARK    1  A    between atoms: C_1  and  N_2
REMARK    2  A    between atoms: N_2  and  C_3
REMARK    3  A    between atoms: N_2  and  C_13
REMARK    4  A    between atoms: C_3  and  C_4
REMARK                            x       y       z     vdW  Elec       q    Type
REMARK                         _______ _______ _______ _____ _____    ______ ____
ROOT
ATOM      1  C   UNL     1       4.017   5.530  19.848  0.00  0.00    +0.000 C 
ATOM      2  N   UNL     1       2.581   5.790  19.692  0.00  0.00    +0.000 NA
ENDROOT
BRANCH   2   3
ATOM      3  C   UNL     1       1.866   4.688  18.981  0.00  0.00    +0.000 C 
ATOM      4  C   UNL     1       1.986   3.335  19.729  0.00  0.00    +0.000 C 
ATOM      5  C   UNL     1       3.377   2.721  19.578  0.00  0.00    +0.000 C 
ATOM      6  C   UNL     1       3.690   2.461  18.108  0.00  0.00    +0.000 C 
ATOM      7  N   UNL     1       3.538   3.692  17.346  0.00  0.00    +0.000 N 
ATOM      8  C   UNL     1       4.556   4.227  16.581  0.00  0.00    +0.000 A 
ATOM      9  C   UNL     1       5.566   3.437  16.036  0.00  0.00    +0.000 A 
ATOM     10  C   UNL     1       6.607   4.013  15.307  0.00  0.00    +0.000 A 
ATOM     11  C   UNL     1       6.597   5.372  15.131  0.00  0.00    +0.000 A 
ATOM     12  N   UNL     1       5.611   6.139  15.608  0.00  0.00    +0.000 NA
ATOM     13  N   UNL     1       4.586   5.553  16.325  0.00  0.00    +0.000 NA
ATOM     14  C   UNL     1       2.273   4.423  17.489  0.00  0.00    +0.000 C 
ENDBRANCH   2   3
BRANCH   2  15
ATOM     15  C   UNL     1       2.400   7.130  19.058  0.00  0.00    +0.000 C 
BRANCH  15  16
ATOM     16  C   UNL     1       1.671   8.169  19.892  0.00  0.00    +0.000 A 
ATOM     17  N   UNL     1       1.370   8.036  21.170  0.00  0.00    +0.000 NA
ATOM     18  C   UNL     1       0.567   9.083  21.585  0.00  0.00    +0.000 A 
ATOM     19  C   UNL     1      -0.023   9.217  22.860  0.00  0.00    +0.000 A 
ATOM     20  C   UNL     1      -0.826  10.327  23.141  0.00  0.00    +0.000 A 
ATOM     21  C   UNL     1      -1.043  11.301  22.171  0.00  0.00    +0.000 A 
ATOM     22  C   UNL     1      -0.467  11.192  20.902  0.00  0.00    +0.000 A 
ATOM     23  C   UNL     1       0.332  10.069  20.629  0.00  0.00    +0.000 A 
ATOM     24  S   UNL     1       1.147   9.643  19.172  0.00  0.00    +0.000 S 
ENDBRANCH  15  16
ENDBRANCH   2  15
TORSDOF 3
ENDMDL
MODEL 3
REMARK VINA RESULT:      -7.5      0.882      1.327
REMARK  Name = 
REMARK  4 active torsions:
REMARK  status: ('A' for Active; 'I' for Inactive)
REMARK    1  A    between atoms: C_1  and  N_2
REMARK    2  A    between atoms: N_2  and  C_3
REMARK    3  A    between atoms: N_2  and  C_13
REMARK    4  A    between atoms: C_3  and  C_4
REMARK                            x       y       z     vdW  Elec       q    Type
REMARK                         _______ _______ _______ _____ _____    ______ ____
ROOT
ATOM      1  C   UNL     1       2.595   3.993  21.127  0.00  0.00    +0.000 C 
ATOM      2  N   UNL     1       1.807   4.873  20.255  0.00  0.00    +0.000 NA
ENDROOT
BRANCH   2   3
ATOM      3  C   UNL     1       1.170   4.144  19.118  0.00  0.00    +0.000 C 
ATOM      4  C   UNL     1       1.148   2.611  19.346  0.00  0.00    +0.000 C 
ATOM      5  C   UNL     1       2.529   1.986  19.157  0.00  0.00    +0.000 C 
ATOM      6  C   UNL     1       3.040   2.231  17.742  0.00  0.00    +0.000 C 
ATOM      7  N   UNL     1       3.028   3.658  17.454  0.00  0.00    +0.000 N 
ATOM      8  C   UNL     1       4.158   4.348  17.058  0.00  0.00    +0.000 A 
ATOM      9  C   UNL     1       5.213   3.725  16.397  0.00  0.00    +0.000 A 
ATOM     10  C   UNL     1       6.361   4.439  16.053  0.00  0.00    +0.000 A 
ATOM     11  C   UNL     1       6.412   5.771  16.371  0.00  0.00    +0.000 A 
ATOM     12  N   UNL     1       5.389   6.396  16.965  0.00  0.00    +0.000 NA
ATOM     13  N   UNL     1       4.258   5.675  17.295  0.00  0.00    +0.000 NA
ATOM     14  C   UNL     1       1.776   4.386  17.691  0.00  0.00    +0.000 C 
ENDBRANCH   2   3
BRANCH   2  15
ATOM     15  C   UNL     1       2.663   6.021  19.829  0.00  0.00    +0.000 C 
BRANCH  15  16
ATOM     16  C   UNL     1       1.991   7.383  19.813  0.00  0.00    +0.000 A 
ATOM     17  N   UNL     1       2.027   8.231  18.803  0.00  0.00    +0.000 NA
ATOM     18  C   UNL     1       1.459   9.438  19.170  0.00  0.00    +0.000 A 
ATOM     19  C   UNL     1       1.411  10.604  18.376  0.00  0.00    +0.000 A 
ATOM     20  C   UNL     1       0.813  11.764  18.880  0.00  0.00    +0.000 A 
ATOM     21  C   UNL     1       0.263  11.773  20.158  0.00  0.00    +0.000 A 
ATOM     22  C   UNL     1       0.296  10.629  20.962  0.00  0.00    +0.000 A 
ATOM     23  C   UNL     1       0.905   9.472  20.448  0.00  0.00    +0.000 A 
ATOM     24  S   UNL     1       1.123   7.935  21.194  0.00  0.00    +0.000 S 
ENDBRANCH  15  16
ENDBRANCH   2  15
TORSDOF 3
ENDMDL
MODEL 4
REMARK VINA RESULT:      -7.5      2.228      3.938
REMARK  Name = 
REMARK  4 active torsions:
REMARK  status: ('A' for Active; 'I' for Inactive)
REMARK    1  A    between atoms: C_1  and  N_2
REMARK    2  A    between atoms: N_2  and  C_3
REMARK    3  A    between atoms: N_2  and  C_13
REMARK    4  A    between atoms: C_3  and  C_4
REMARK                            x       y       z     vdW  Elec       q    Type
REMARK                         _______ _______ _______ _____ _____    ______ ____
ROOT
ATOM      1  C   UNL     1       3.944   3.485  17.051  0.00  0.00    +0.000 C 
ATOM      2  N   UNL     1       4.302   4.676  17.830  0.00  0.00    +0.000 NA
ENDROOT
BRANCH   2   3
ATOM      3  C   UNL     1       5.733   4.679  18.259  0.00  0.00    +0.000 C 
ATOM      4  C   UNL     1       6.209   6.088  18.696  0.00  0.00    +0.000 C 
ATOM      5  C   UNL     1       6.419   7.016  17.500  0.00  0.00    +0.000 C 
ATOM      6  C   UNL     1       7.476   6.446  16.560  0.00  0.00    +0.000 C 
ATOM      7  N   UNL     1       7.105   5.096  16.161  0.00  0.00    +0.000 N 
ATOM      8  C   UNL     1       6.962   4.721  14.839  0.00  0.00    +0.000 A 
ATOM      9  C   UNL     1       7.644   5.364  13.809  0.00  0.00    +0.000 A 
ATOM     10  C   UNL     1       7.442   4.994  12.479  0.00  0.00    +0.000 A 
ATOM     11  C   UNL     1       6.568   3.971  12.220  0.00  0.00    +0.000 A 
ATOM     12  N   UNL     1       5.940   3.312  13.200  0.00  0.00    +0.000 NA
ATOM     13  N   UNL     1       6.154   3.689  14.512  0.00  0.00    +0.000 NA
ATOM     14  C   UNL     1       6.785   4.140  17.228  0.00  0.00    +0.000 C 
ENDBRANCH   2   3
BRANCH   2  15
ATOM     15  C   UNL     1       3.336   4.821  18.960  0.00  0.00    +0.000 C 
BRANCH  15  16
ATOM     16  C   UNL     1       2.640   6.167  19.073  0.00  0.00    +0.000 A 
ATOM     17  N   UNL     1       2.607   7.081  18.123  0.00  0.00    +0.000 NA
ATOM     18  C   UNL     1       2.038   8.248  18.601  0.00  0.00    +0.000 A 
ATOM     19  C   UNL     1       1.926   9.464  17.893  0.00  0.00    +0.000 A 
ATOM     20  C   UNL     1       1.335  10.574  18.506  0.00  0.00    +0.000 A 
ATOM     21  C   UNL     1       0.854  10.484  19.808  0.00  0.00    +0.000 A 
ATOM     22  C   UNL     1       0.950   9.289  20.528  0.00  0.00    +0.000 A 
ATOM     23  C   UNL     1       1.551   8.184  19.905  0.00  0.00    +0.000 A 
ATOM     24  S   UNL     1       1.837   6.604  20.532  0.00  0.00    +0.000 S 
ENDBRANCH  15  16
ENDBRANCH   2  15
TORSDOF 3
ENDMDL
MODEL 5
REMARK VINA RESULT:      -7.5      2.084      3.659
REMARK  Name = 
REMARK  4 active torsions:
REMARK  status: ('A' for Active; 'I' for Inactive)
REMARK    1  A    between atoms: C_1  and  N_2
REMARK    2  A    between atoms: N_2  and  C_3
REMARK    3  A    between atoms: N_2  and  C_13
REMARK    4  A    between atoms: C_3  and  C_4
REMARK                            x       y       z     vdW  Elec       q    Type
REMARK                         _______ _______ _______ _____ _____    ______ ____
ROOT
ATOM      1  C   UNL     1       3.771   3.604  16.970  0.00  0.00    +0.000 C 
ATOM      2  N   UNL     1       4.192   4.760  17.771  0.00  0.00    +0.000 NA
ENDROOT
BRANCH   2   3
ATOM      3  C   UNL     1       5.609   4.659  18.234  0.00  0.00    +0.000 C 
ATOM      4  C   UNL     1       6.167   6.026  18.708  0.00  0.00    +0.000 C 
ATOM      5  C   UNL     1       6.469   6.958  17.536  0.00  0.00    +0.000 C 
ATOM      6  C   UNL     1       7.508   6.334  16.610  0.00  0.00    +0.000 C 
ATOM      7  N   UNL     1       7.058   5.019  16.177  0.00  0.00    +0.000 N 
ATOM      8  C   UNL     1       6.923   4.678  14.845  0.00  0.00    +0.000 A 
ATOM      9  C   UNL     1       7.672   5.292  13.844  0.00  0.00    +0.000 A 
ATOM     10  C   UNL     1       7.479   4.959  12.503  0.00  0.00    +0.000 A 
ATOM     11  C   UNL     1       6.545   4.002  12.203  0.00  0.00    +0.000 A 
ATOM     12  N   UNL     1       5.850   3.370  13.156  0.00  0.00    +0.000 NA
ATOM     13  N   UNL     1       6.056   3.709  14.479  0.00  0.00    +0.000 NA
ATOM     14  C   UNL     1       6.648   4.069  17.218  0.00  0.00    +0.000 C 
ENDBRANCH   2   3
BRANCH   2  15
ATOM     15  C   UNL     1       3.212   4.962  18.880  0.00  0.00    +0.000 C 
BRANCH  15  16
ATOM     16  C   UNL     1       2.689   6.377  19.057  0.00  0.00    +0.000 A 
ATOM     17  N   UNL     1       2.155   6.851  20.166  0.00  0.00    +0.000 NA
ATOM     18  C   UNL     1       1.634   8.114  19.946  0.00  0.00    +0.000 A 
ATOM     19  C   UNL     1       0.906   8.882  20.879  0.00  0.00    +0.000 A 
ATOM     20  C   UNL     1       0.426  10.144  20.517  0.00  0.00    +0.000 A 
ATOM     21  C   UNL     1       0.666  10.648  19.242  0.00  0.00    +0.000 A 
ATOM     22  C   UNL     1       1.388   9.907  18.302  0.00  0.00    +0.000 A 
ATOM     23  C   UNL     1       1.859   8.638  18.675  0.00  0.00    +0.000 A 
ATOM     24  S   UNL     1       2.744   7.490  17.744  0.00  0.00    +0.000 S 
ENDBRANCH  15  16
ENDBRANCH   2  15
TORSDOF 3
ENDMDL
MODEL 6
REMARK VINA RESULT:      -7.3      1.417      3.884
REMARK  Name = 
REMARK  4 active torsions:
REMARK  status: ('A' for Active; 'I' for Inactive)
REMARK    1  A    between atoms: C_1  and  N_2
REMARK    2  A    between atoms: N_2  and  C_3
REMARK    3  A    between atoms: N_2  and  C_13
REMARK    4  A    between atoms: C_3  and  C_4
REMARK                            x       y       z     vdW  Elec       q    Type
REMARK                         _______ _______ _______ _____ _____    ______ ____
ROOT
ATOM      1  C   UNL     1       5.983   7.519  17.280  0.00  0.00    +0.000 C 
ATOM      2  N   UNL     1       5.312   6.441  18.018  0.00  0.00    +0.000 NA
ENDROOT
BRANCH   2   3
ATOM      3  C   UNL     1       5.989   5.119  17.857  0.00  0.00    +0.000 C 
ATOM      4  C   UNL     1       5.861   4.570  16.413  0.00  0.00    +0.000 C 
ATOM      5  C   UNL     1       4.456   4.044  16.124  0.00  0.00    +0.000 C 
ATOM      6  C   UNL     1       4.103   2.909  17.080  0.00  0.00    +0.000 C 
ATOM      7  N   UNL     1       4.261   3.356  18.456  0.00  0.00    +0.000 N 
ATOM      8  C   UNL     1       3.235   3.303  19.380  0.00  0.00    +0.000 A 
ATOM      9  C   UNL     1       2.197   2.379  19.282  0.00  0.00    +0.000 A 
ATOM     10  C   UNL     1       1.150   2.381  20.205  0.00  0.00    +0.000 A 
ATOM     11  C   UNL     1       1.182   3.307  21.214  0.00  0.00    +0.000 A 
ATOM     12  N   UNL     1       2.194   4.171  21.350  0.00  0.00    +0.000 NA
ATOM     13  N   UNL     1       3.224   4.153  20.430  0.00  0.00    +0.000 NA
ATOM     14  C   UNL     1       5.542   3.969  18.825  0.00  0.00    +0.000 C 
ENDBRANCH   2   3
BRANCH   2  15
ATOM     15  C   UNL     1       3.867   6.426  17.641  0.00  0.00    +0.000 C 
BRANCH  15  16
ATOM     16  C   UNL     1       2.960   7.347  18.439  0.00  0.00    +0.000 A 
ATOM     17  N   UNL     1       2.602   7.152  19.693  0.00  0.00    +0.000 NA
ATOM     18  C   UNL     1       1.646   8.079  20.068  0.00  0.00    +0.000 A 
ATOM     19  C   UNL     1       0.966   8.113  21.305  0.00  0.00    +0.000 A 
ATOM     20  C   UNL     1       0.011   9.105  21.546  0.00  0.00    +0.000 A 
ATOM     21  C   UNL     1      -0.270  10.061  20.576  0.00  0.00    +0.000 A 
ATOM     22  C   UNL     1       0.392  10.051  19.344  0.00  0.00    +0.000 A 
ATOM     23  C   UNL     1       1.345   9.046  19.110  0.00  0.00    +0.000 A 
ATOM     24  S   UNL     1       2.296   8.754  17.703  0.00  0.00    +0.000 S 
ENDBRANCH  15  16
ENDBRANCH   2  15
TORSDOF 3
ENDMDL
MODEL 7
REMARK VINA RESULT:      -7.3      3.032      7.524
REMARK  Name = 
REMARK  4 active torsions:
REMARK  status: ('A' for Active; 'I' for Inactive)
REMARK    1  A    between atoms: C_1  and  N_2
REMARK    2  A    between atoms: N_2  and  C_3
REMARK    3  A    between atoms: N_2  and  C_13
REMARK    4  A    between atoms: C_3  and  C_4
REMARK                            x       y       z     vdW  Elec       q    Type
REMARK                         _______ _______ _______ _____ _____    ______ ____
ROOT
ATOM      1  C   UNL     1       5.613   4.999  19.248  0.00  0.00    +0.000 C 
ATOM      2  N   UNL     1       5.738   5.989  18.172  0.00  0.00    +0.000 NA
ENDROOT
BRANCH   2   3
ATOM      3  C   UNL     1       4.578   5.974  17.231  0.00  0.00    +0.000 C 
ATOM      4  C   UNL     1       3.826   7.329  17.207  0.00  0.00    +0.000 C 
ATOM      5  C   UNL     1       2.984   7.537  18.465  0.00  0.00    +0.000 C 
ATOM      6  C   UNL     1       1.938   6.436  18.597  0.00  0.00    +0.000 C 
ATOM      7  N   UNL     1       2.587   5.133  18.569  0.00  0.00    +0.000 N 
ATOM      8  C   UNL     1       2.444   4.205  19.582  0.00  0.00    +0.000 A 
ATOM      9  C   UNL     1       1.319   4.173  20.402  0.00  0.00    +0.000 A 
ATOM     10  C   UNL     1       1.224   3.254  21.449  0.00  0.00    +0.000 A 
ATOM     11  C   UNL     1       2.263   2.379  21.635  0.00  0.00    +0.000 A 
ATOM     12  N   UNL     1       3.330   2.367  20.828  0.00  0.00    +0.000 NA
ATOM     13  N   UNL     1       3.405   3.281  19.795  0.00  0.00    +0.000 NA
ATOM     14  C   UNL     1       3.499   4.857  17.452  0.00  0.00    +0.000 C 
ENDBRANCH   2   3
BRANCH   2  15
ATOM     15  C   UNL     1       7.059   5.806  17.499  0.00  0.00    +0.000 C 
BRANCH  15  16
ATOM     16  C   UNL     1       7.020   5.189  16.111  0.00  0.00    +0.000 A 
ATOM     17  N   UNL     1       7.670   5.651  15.061  0.00  0.00    +0.000 NA
ATOM     18  C   UNL     1       7.293   4.963  13.922  0.00  0.00    +0.000 A 
ATOM     19  C   UNL     1       7.712   5.250  12.605  0.00  0.00    +0.000 A 
ATOM     20  C   UNL     1       7.240   4.475  11.541  0.00  0.00    +0.000 A 
ATOM     21  C   UNL     1       6.363   3.420  11.774  0.00  0.00    +0.000 A 
ATOM     22  C   UNL     1       5.937   3.114  13.070  0.00  0.00    +0.000 A 
ATOM     23  C   UNL     1       6.412   3.903  14.130  0.00  0.00    +0.000 A 
ATOM     24  S   UNL     1       6.054   3.795  15.812  0.00  0.00    +0.000 S 
ENDBRANCH  15  16
ENDBRANCH   2  15
TORSDOF 3
ENDMDL
MODEL 8
REMARK VINA RESULT:      -7.3      2.869      8.115
REMARK  Name = 
REMARK  4 active torsions:
REMARK  status: ('A' for Active; 'I' for Inactive)
REMARK    1  A    between atoms: C_1  and  N_2
REMARK    2  A    between atoms: N_2  and  C_3
REMARK    3  A    between atoms: N_2  and  C_13
REMARK    4  A    between atoms: C_3  and  C_4
REMARK                            x       y       z     vdW  Elec       q    Type
REMARK                         _______ _______ _______ _____ _____    ______ ____
ROOT
ATOM      1  C   UNL     1       1.203   9.227  17.837  0.00  0.00    +0.000 C 
ATOM      2  N   UNL     1       1.086   9.369  19.294  0.00  0.00    +0.000 NA
ENDROOT
BRANCH   2   3
ATOM      3  C   UNL     1       1.108  10.795  19.740  0.00  0.00    +0.000 C 
ATOM      4  C   UNL     1       0.783  10.938  21.249  0.00  0.00    +0.000 C 
ATOM      5  C   UNL     1      -0.703  10.724  21.537  0.00  0.00    +0.000 C 
ATOM      6  C   UNL     1      -1.546  11.748  20.786  0.00  0.00    +0.000 C 
ATOM      7  N   UNL     1      -1.239  11.695  19.364  0.00  0.00    +0.000 N 
ATOM      8  C   UNL     1      -2.203  11.469  18.400  0.00  0.00    +0.000 A 
ATOM      9  C   UNL     1      -3.540  11.802  18.599  0.00  0.00    +0.000 A 
ATOM     10  C   UNL     1      -4.499  11.518  17.625  0.00  0.00    +0.000 A 
ATOM     11  C   UNL     1      -4.082  10.917  16.466  0.00  0.00    +0.000 A 
ATOM     12  N   UNL     1      -2.795  10.632  16.240  0.00  0.00    +0.000 NA
ATOM     13  N   UNL     1      -1.859  10.923  17.213  0.00  0.00    +0.000 NA
ATOM     14  C   UNL     1       0.173  11.794  18.974  0.00  0.00    +0.000 C 
ENDBRANCH   2   3
BRANCH   2  15
ATOM     15  C   UNL     1       2.128   8.520  19.946  0.00  0.00    +0.000 C 
BRANCH  15  16
ATOM     16  C   UNL     1       2.006   7.023  19.717  0.00  0.00    +0.000 A 
ATOM     17  N   UNL     1       1.412   6.180  20.539  0.00  0.00    +0.000 NA
ATOM     18  C   UNL     1       1.618   4.877  20.122  0.00  0.00    +0.000 A 
ATOM     19  C   UNL     1       1.211   3.714  20.810  0.00  0.00    +0.000 A 
ATOM     20  C   UNL     1       1.498   2.454  20.275  0.00  0.00    +0.000 A 
ATOM     21  C   UNL     1       2.180   2.341  19.068  0.00  0.00    +0.000 A 
ATOM     22  C   UNL     1       2.591   3.479  18.367  0.00  0.00    +0.000 A 
ATOM     23  C   UNL     1       2.303   4.739  18.916  0.00  0.00    +0.000 A 
ATOM     24  S   UNL     1       2.696   6.305  18.313  0.00  0.00    +0.000 S 
ENDBRANCH  15  16
ENDBRANCH   2  15
TORSDOF 3
ENDMDL
MODEL 9
REMARK VINA RESULT:      -7.2      1.265      1.464
REMARK  Name = 
REMARK  4 active torsions:
REMARK  status: ('A' for Active; 'I' for Inactive)
REMARK    1  A    between atoms: C_1  and  N_2
REMARK    2  A    between atoms: N_2  and  C_3
REMARK    3  A    between atoms: N_2  and  C_13
REMARK    4  A    between atoms: C_3  and  C_4
REMARK                            x       y       z     vdW  Elec       q    Type
REMARK                         _______ _______ _______ _____ _____    ______ ____
ROOT
ATOM      1  C   UNL     1       0.815   4.334  20.291  0.00  0.00    +0.000 C 
ATOM      2  N   UNL     1       1.577   4.602  19.065  0.00  0.00    +0.000 NA
ENDROOT
BRANCH   2   3
ATOM      3  C   UNL     1       2.095   3.358  18.421  0.00  0.00    +0.000 C 
ATOM      4  C   UNL     1       2.455   2.268  19.463  0.00  0.00    +0.000 C 
ATOM      5  C   UNL     1       3.752   2.592  20.204  0.00  0.00    +0.000 C 
ATOM      6  C   UNL     1       4.917   2.695  19.225  0.00  0.00    +0.000 C 
ATOM      7  N   UNL     1       4.607   3.669  18.189  0.00  0.00    +0.000 N 
ATOM      8  C   UNL     1       5.411   4.761  17.927  0.00  0.00    +0.000 A 
ATOM      9  C   UNL     1       6.777   4.758  18.201  0.00  0.00    +0.000 A 
ATOM     10  C   UNL     1       7.554   5.893  17.969  0.00  0.00    +0.000 A 
ATOM     11  C   UNL     1       6.938   7.002  17.452  0.00  0.00    +0.000 A 
ATOM     12  N   UNL     1       5.637   7.007  17.139  0.00  0.00    +0.000 NA
ATOM     13  N   UNL     1       4.883   5.874  17.372  0.00  0.00    +0.000 NA
ATOM     14  C   UNL     1       3.335   3.512  17.473  0.00  0.00    +0.000 C 
ENDBRANCH   2   3
BRANCH   2  15
ATOM     15  C   UNL     1       2.639   5.608  19.368  0.00  0.00    +0.000 C 
BRANCH  15  16
ATOM     16  C   UNL     1       2.171   7.046  19.517  0.00  0.00    +0.000 A 
ATOM     17  N   UNL     1       1.714   7.580  20.634  0.00  0.00    +0.000 NA
ATOM     18  C   UNL     1       1.222   8.850  20.392  0.00  0.00    +0.000 A 
ATOM     19  C   UNL     1       0.571   9.677  21.331  0.00  0.00    +0.000 A 
ATOM     20  C   UNL     1       0.111  10.940  20.945  0.00  0.00    +0.000 A 
ATOM     21  C   UNL     1       0.296  11.387  19.640  0.00  0.00    +0.000 A 
ATOM     22  C   UNL     1       0.942  10.586  18.692  0.00  0.00    +0.000 A 
ATOM     23  C   UNL     1       1.393   9.317  19.090  0.00  0.00    +0.000 A 
ATOM     24  S   UNL     1       2.189   8.105  18.160  0.00  0.00    +0.000 S 
ENDBRANCH  15  16
ENDBRANCH   2  15
TORSDOF 3
ENDMDL
