MODEL 1
REMARK VINA RESULT:      -7.6      0.000      0.000
REMARK  Name = 
REMARK  14 active torsions:
REMARK  status: ('A' for Active; 'I' for Inactive)
REMARK    1  A    between atoms: C_1  and  O_2
REMARK    2  A    between atoms: O_2  and  C_3
REMARK    3  A    between atoms: C_6  and  C_7
REMARK    4  A    between atoms: C_7  and  C_8
REMARK    5  A    between atoms: C_11  and  C_12
REMARK    6  A    between atoms: C_12  and  O_13
REMARK    7  A    between atoms: O_13  and  C_14
REMARK    8  A    between atoms: C_14  and  C_16
REMARK    9  A    between atoms: C_16  and  C_17
REMARK   10  A    between atoms: C_17  and  N_18
REMARK   11  A    between atoms: N_18  and  S_19
REMARK   12  A    between atoms: S_19  and  C_22
REMARK   13  A    between atoms: C_25  and  C_26
REMARK   14  A    between atoms: C_26  and  C_27
REMARK                            x       y       z     vdW  Elec       q    Type
REMARK                         _______ _______ _______ _____ _____    ______ ____
ROOT
ATOM      1  C   UNL     1       0.886   4.079  19.901  0.00  0.00    +0.000 C 
ENDROOT
BRANCH   1   2
ATOM      2  C   UNL     1       1.722   4.506  21.083  0.00  0.00    +0.000 C 
ATOM      3  O   UNL     1       2.182   3.742  21.919  0.00  0.00    +0.000 OA
BRANCH   2   4
ATOM      4  O   UNL     1       1.860   5.859  21.082  0.00  0.00    +0.000 OA
BRANCH   4   5
ATOM      5  C   UNL     1       2.289   6.466  19.860  0.00  0.00    +0.000 C 
BRANCH   5  11
ATOM      6  C   UNL     1       1.852   8.652  18.518  0.00  0.00    +0.000 A 
ATOM      7  C   UNL     1       1.321   9.957  18.522  0.00  0.00    +0.000 A 
ATOM      8  C   UNL     1       0.753  10.526  19.663  0.00  0.00    +0.000 A 
ATOM      9  C   UNL     1       0.714   9.790  20.839  0.00  0.00    +0.000 A 
ATOM     10  C   UNL     1       1.199   8.470  20.833  0.00  0.00    +0.000 A 
ATOM     11  C   UNL     1       1.783   7.878  19.686  0.00  0.00    +0.000 A 
BRANCH   9  12
ATOM     12  C   UNL     1       0.169  10.350  22.103  0.00  0.00    +0.000 C 
ATOM     13  C   UNL     1      -0.244   9.423  23.220  0.00  0.00    +0.000 C 
ATOM     14  O   UNL     1       0.038  11.572  22.212  0.00  0.00    +0.000 OA
ENDBRANCH   9  12
BRANCH   6  16
ATOM     15  C   UNL     1       3.691   7.667  17.275  0.00  0.00    +0.000 C 
ATOM     16  O   UNL     1       2.481   8.397  17.336  0.00  0.00    +0.000 OA
ENDBRANCH   6  16
ENDBRANCH   5  11
ENDBRANCH   4   5
ENDBRANCH   2   4
ENDBRANCH   1   2
BRANCH   1  17
ATOM     17  C   UNL     1       1.111   2.597  19.655  0.00  0.00    +0.000 C 
BRANCH  17  18
ATOM     18  N   UNL     1       2.541   2.255  19.546  0.00  0.00    +0.000 NA
ATOM     19  H   UNL     1       2.844   1.383  19.985  0.00  0.00    +0.000 HD
BRANCH  18  20
ATOM     20  S   UNL     1       3.187   2.328  17.978  0.00  0.00    +0.000 S 
ATOM     21  O   UNL     1       3.894   1.079  17.786  0.00  0.00    +0.000 OA
ATOM     22  O   UNL     1       2.143   2.740  17.072  0.00  0.00    +0.000 OA
BRANCH  20  23
ATOM     23  C   UNL     1       4.392   3.628  18.087  0.00  0.00    +0.000 A 
ATOM     24  C   UNL     1       4.736   4.174  19.329  0.00  0.00    +0.000 A 
ATOM     25  C   UNL     1       5.755   5.134  19.411  0.00  0.00    +0.000 A 
ATOM     26  C   UNL     1       6.437   5.548  18.259  0.00  0.00    +0.000 A 
ATOM     27  C   UNL     1       6.084   4.981  17.023  0.00  0.00    +0.000 A 
ATOM     28  C   UNL     1       5.073   4.019  16.936  0.00  0.00    +0.000 A 
BRANCH  26  29
ATOM     29  C   UNL     1       7.544   6.559  18.257  0.00  0.00    +0.000 C 
ATOM     30  C   UNL     1       7.578   7.685  17.254  0.00  0.00    +0.000 C 
ATOM     31  O   UNL     1       8.436   6.468  19.098  0.00  0.00    +0.000 OA
ENDBRANCH  26  29
ENDBRANCH  20  23
ENDBRANCH  18  20
ENDBRANCH  17  18
ENDBRANCH   1  17
TORSDOF 11
ENDMDL
MODEL 2
REMARK VINA RESULT:      -7.5      2.975      7.925
REMARK  Name = 
REMARK  14 active torsions:
REMARK  status: ('A' for Active; 'I' for Inactive)
REMARK    1  A    between atoms: C_1  and  O_2
REMARK    2  A    between atoms: O_2  and  C_3
REMARK    3  A    between atoms: C_6  and  C_7
REMARK    4  A    between atoms: C_7  and  C_8
REMARK    5  A    between atoms: C_11  and  C_12
REMARK    6  A    between atoms: C_12  and  O_13
REMARK    7  A    between atoms: O_13  and  C_14
REMARK    8  A    between atoms: C_14  and  C_16
REMARK    9  A    between atoms: C_16  and  C_17
REMARK   10  A    between atoms: C_17  and  N_18
REMARK   11  A    between atoms: N_18  and  S_19
REMARK   12  A    between atoms: S_19  and  C_22
REMARK   13  A    between atoms: C_25  and  C_26
REMARK   14  A    between atoms: C_26  and  C_27
REMARK                            x       y       z     vdW  Elec       q    Type
REMARK                         _______ _______ _______ _____ _____    ______ ____
ROOT
ATOM      1  C   UNL     1       2.094   2.714  17.653  0.00  0.00    +0.000 C 
ENDROOT
BRANCH   1   2
ATOM      2  C   UNL     1       3.593   2.878  17.720  0.00  0.00    +0.000 C 
ATOM      3  O   UNL     1       4.267   2.693  18.723  0.00  0.00    +0.000 OA
BRANCH   2   4
ATOM      4  O   UNL     1       4.064   3.281  16.509  0.00  0.00    +0.000 OA
BRANCH   4   5
ATOM      5  C   UNL     1       5.098   4.270  16.512  0.00  0.00    +0.000 C 
BRANCH   5  11
ATOM      6  C   UNL     1       6.984   5.132  14.940  0.00  0.00    +0.000 A 
ATOM      7  C   UNL     1       7.568   5.089  13.659  0.00  0.00    +0.000 A 
ATOM      8  C   UNL     1       7.037   4.318  12.624  0.00  0.00    +0.000 A 
ATOM      9  C   UNL     1       5.888   3.574  12.855  0.00  0.00    +0.000 A 
ATOM     10  C   UNL     1       5.323   3.574  14.142  0.00  0.00    +0.000 A 
ATOM     11  C   UNL     1       5.847   4.353  15.204  0.00  0.00    +0.000 A 
BRANCH   9  12
ATOM     12  C   UNL     1       5.240   2.770  11.786  0.00  0.00    +0.000 C 
ATOM     13  C   UNL     1       3.977   3.271  11.129  0.00  0.00    +0.000 C 
ATOM     14  O   UNL     1       5.734   1.686  11.466  0.00  0.00    +0.000 OA
ENDBRANCH   9  12
BRANCH   6  16
ATOM     15  C   UNL     1       7.423   6.117  17.117  0.00  0.00    +0.000 C 
ATOM     16  O   UNL     1       7.598   6.071  15.714  0.00  0.00    +0.000 OA
ENDBRANCH   6  16
ENDBRANCH   5  11
ENDBRANCH   4   5
ENDBRANCH   2   4
ENDBRANCH   1   2
BRANCH   1  17
ATOM     17  C   UNL     1       1.444   4.056  17.945  0.00  0.00    +0.000 C 
BRANCH  17  18
ATOM     18  N   UNL     1       2.418   5.162  17.961  0.00  0.00    +0.000 NA
ATOM     19  H   UNL     1       2.256   5.932  17.307  0.00  0.00    +0.000 HD
BRANCH  18  20
ATOM     20  S   UNL     1       2.755   5.811  19.493  0.00  0.00    +0.000 S 
ATOM     21  O   UNL     1       1.903   5.094  20.419  0.00  0.00    +0.000 OA
ATOM     22  O   UNL     1       4.186   5.845  19.670  0.00  0.00    +0.000 OA
BRANCH  20  23
ATOM     23  C   UNL     1       2.156   7.479  19.377  0.00  0.00    +0.000 A 
ATOM     24  C   UNL     1       2.223   8.174  18.164  0.00  0.00    +0.000 A 
ATOM     25  C   UNL     1       1.663   9.455  18.062  0.00  0.00    +0.000 A 
ATOM     26  C   UNL     1       1.030  10.045  19.165  0.00  0.00    +0.000 A 
ATOM     27  C   UNL     1       0.964   9.328  20.371  0.00  0.00    +0.000 A 
ATOM     28  C   UNL     1       1.516   8.046  20.476  0.00  0.00    +0.000 A 
BRANCH  26  29
ATOM     29  C   UNL     1       0.397  11.404  19.142  0.00  0.00    +0.000 C 
ATOM     30  C   UNL     1      -0.895  11.681  19.868  0.00  0.00    +0.000 C 
ATOM     31  O   UNL     1       0.952  12.309  18.523  0.00  0.00    +0.000 OA
ENDBRANCH  26  29
ENDBRANCH  20  23
ENDBRANCH  18  20
ENDBRANCH  17  18
ENDBRANCH   1  17
TORSDOF 11
ENDMDL
MODEL 3
REMARK VINA RESULT:      -7.4      2.516      3.830
REMARK  Name = 
REMARK  14 active torsions:
REMARK  status: ('A' for Active; 'I' for Inactive)
REMARK    1  A    between atoms: C_1  and  O_2
REMARK    2  A    between atoms: O_2  and  C_3
REMARK    3  A    between atoms: C_6  and  C_7
REMARK    4  A    between atoms: C_7  and  C_8
REMARK    5  A    between atoms: C_11  and  C_12
REMARK    6  A    between atoms: C_12  and  O_13
REMARK    7  A    between atoms: O_13  and  C_14
REMARK    8  A    between atoms: C_14  and  C_16
REMARK    9  A    between atoms: C_16  and  C_17
REMARK   10  A    between atoms: C_17  and  N_18
REMARK   11  A    between atoms: N_18  and  S_19
REMARK   12  A    between atoms: S_19  and  C_22
REMARK   13  A    between atoms: C_25  and  C_26
REMARK   14  A    between atoms: C_26  and  C_27
REMARK                            x       y       z     vdW  Elec       q    Type
REMARK                         _______ _______ _______ _____ _____    ______ ____
ROOT
ATOM      1  C   UNL     1       2.059   6.850  20.414  0.00  0.00    +0.000 C 
ENDROOT
BRANCH   1   2
ATOM      2  C   UNL     1       2.242   7.259  18.973  0.00  0.00    +0.000 C 
ATOM      3  O   UNL     1       2.319   6.478  18.035  0.00  0.00    +0.000 OA
BRANCH   2   4
ATOM      4  O   UNL     1       2.331   8.613  18.888  0.00  0.00    +0.000 OA
BRANCH   4   5
ATOM      5  C   UNL     1       1.573   9.249  17.855  0.00  0.00    +0.000 C 
BRANCH   5  11
ATOM      6  C   UNL     1       0.175  10.568  19.608  0.00  0.00    +0.000 A 
ATOM      7  C   UNL     1      -1.057  11.173  19.927  0.00  0.00    +0.000 A 
ATOM      8  C   UNL     1      -2.148  11.143  19.057  0.00  0.00    +0.000 A 
ATOM      9  C   UNL     1      -2.026  10.488  17.840  0.00  0.00    +0.000 A 
ATOM     10  C   UNL     1      -0.787   9.920  17.493  0.00  0.00    +0.000 A 
ATOM     11  C   UNL     1       0.330   9.938  18.365  0.00  0.00    +0.000 A 
BRANCH   9  12
ATOM     12  C   UNL     1      -3.160  10.373  16.887  0.00  0.00    +0.000 C 
ATOM     13  C   UNL     1      -2.921   9.854  15.490  0.00  0.00    +0.000 C 
ATOM     14  O   UNL     1      -4.286  10.729  17.246  0.00  0.00    +0.000 OA
ENDBRANCH   9  12
BRANCH   6  16
ATOM     15  C   UNL     1       0.682   9.999  21.914  0.00  0.00    +0.000 C 
ATOM     16  O   UNL     1       1.016  10.605  20.681  0.00  0.00    +0.000 OA
ENDBRANCH   6  16
ENDBRANCH   5  11
ENDBRANCH   4   5
ENDBRANCH   2   4
ENDBRANCH   1   2
BRANCH   1  17
ATOM     17  C   UNL     1       1.603   5.402  20.455  0.00  0.00    +0.000 C 
BRANCH  17  18
ATOM     18  N   UNL     1       2.565   4.527  21.150  0.00  0.00    +0.000 NA
ATOM     19  H   UNL     1       2.348   4.275  22.117  0.00  0.00    +0.000 HD
BRANCH  18  20
ATOM     20  S   UNL     1       3.009   3.123  20.307  0.00  0.00    +0.000 S 
ATOM     21  O   UNL     1       3.849   2.370  21.215  0.00  0.00    +0.000 OA
ATOM     22  O   UNL     1       1.822   2.539  19.733  0.00  0.00    +0.000 OA
BRANCH  20  23
ATOM     23  C   UNL     1       4.035   3.736  18.994  0.00  0.00    +0.000 A 
ATOM     24  C   UNL     1       5.197   4.461  19.281  0.00  0.00    +0.000 A 
ATOM     25  C   UNL     1       6.047   4.859  18.240  0.00  0.00    +0.000 A 
ATOM     26  C   UNL     1       5.746   4.531  16.910  0.00  0.00    +0.000 A 
ATOM     27  C   UNL     1       4.581   3.794  16.643  0.00  0.00    +0.000 A 
ATOM     28  C   UNL     1       3.733   3.389  17.679  0.00  0.00    +0.000 A 
BRANCH  26  29
ATOM     29  C   UNL     1       6.602   4.906  15.738  0.00  0.00    +0.000 C 
ATOM     30  C   UNL     1       6.462   4.211  14.408  0.00  0.00    +0.000 C 
ATOM     31  O   UNL     1       7.430   5.807  15.869  0.00  0.00    +0.000 OA
ENDBRANCH  26  29
ENDBRANCH  20  23
ENDBRANCH  18  20
ENDBRANCH  17  18
ENDBRANCH   1  17
TORSDOF 11
ENDMDL
MODEL 4
REMARK VINA RESULT:      -7.2      3.022      4.514
REMARK  Name = 
REMARK  14 active torsions:
REMARK  status: ('A' for Active; 'I' for Inactive)
REMARK    1  A    between atoms: C_1  and  O_2
REMARK    2  A    between atoms: O_2  and  C_3
REMARK    3  A    between atoms: C_6  and  C_7
REMARK    4  A    between atoms: C_7  and  C_8
REMARK    5  A    between atoms: C_11  and  C_12
REMARK    6  A    between atoms: C_12  and  O_13
REMARK    7  A    between atoms: O_13  and  C_14
REMARK    8  A    between atoms: C_14  and  C_16
REMARK    9  A    between atoms: C_16  and  C_17
REMARK   10  A    between atoms: C_17  and  N_18
REMARK   11  A    between atoms: N_18  and  S_19
REMARK   12  A    between atoms: S_19  and  C_22
REMARK   13  A    between atoms: C_25  and  C_26
REMARK   14  A    between atoms: C_26  and  C_27
REMARK                            x       y       z     vdW  Elec       q    Type
REMARK                         _______ _______ _______ _____ _____    ______ ____
ROOT
ATOM      1  C   UNL     1       2.249   5.798  18.166  0.00  0.00    +0.000 C 
ENDROOT
BRANCH   1   2
ATOM      2  C   UNL     1       2.539   7.259  17.925  0.00  0.00    +0.000 C 
ATOM      3  O   UNL     1       3.566   7.687  17.418  0.00  0.00    +0.000 OA
BRANCH   2   4
ATOM      4  O   UNL     1       1.502   8.014  18.376  0.00  0.00    +0.000 OA
BRANCH   4   5
ATOM      5  C   UNL     1       1.557   9.418  18.109  0.00  0.00    +0.000 C 
BRANCH   5  11
ATOM      6  C   UNL     1       0.125  10.785  19.797  0.00  0.00    +0.000 A 
ATOM      7  C   UNL     1      -1.093  11.444  20.053  0.00  0.00    +0.000 A 
ATOM      8  C   UNL     1      -2.134  11.472  19.124  0.00  0.00    +0.000 A 
ATOM      9  C   UNL     1      -1.975  10.822  17.909  0.00  0.00    +0.000 A 
ATOM     10  C   UNL     1      -0.746  10.200  17.625  0.00  0.00    +0.000 A 
ATOM     11  C   UNL     1       0.321  10.159  18.557  0.00  0.00    +0.000 A 
BRANCH   9  12
ATOM     12  C   UNL     1      -3.059  10.768  16.893  0.00  0.00    +0.000 C 
ATOM     13  C   UNL     1      -2.925   9.857  15.697  0.00  0.00    +0.000 C 
ATOM     14  O   UNL     1      -4.049  11.491  17.032  0.00  0.00    +0.000 OA
ENDBRANCH   9  12
BRANCH   6  16
ATOM     15  C   UNL     1       0.918   9.679  21.808  0.00  0.00    +0.000 C 
ATOM     16  O   UNL     1       0.906  10.774  20.914  0.00  0.00    +0.000 OA
ENDBRANCH   6  16
ENDBRANCH   5  11
ENDBRANCH   4   5
ENDBRANCH   2   4
ENDBRANCH   1   2
BRANCH   1  17
ATOM     17  C   UNL     1       3.087   5.322  19.340  0.00  0.00    +0.000 C 
BRANCH  17  18
ATOM     18  N   UNL     1       4.489   5.769  19.250  0.00  0.00    +0.000 NA
ATOM     19  H   UNL     1       4.799   6.463  19.933  0.00  0.00    +0.000 HD
BRANCH  18  20
ATOM     20  S   UNL     1       5.644   4.528  19.171  0.00  0.00    +0.000 S 
ATOM     21  O   UNL     1       6.828   5.052  19.822  0.00  0.00    +0.000 OA
ATOM     22  O   UNL     1       5.029   3.302  19.617  0.00  0.00    +0.000 OA
BRANCH  20  23
ATOM     23  C   UNL     1       5.989   4.393  17.434  0.00  0.00    +0.000 A 
ATOM     24  C   UNL     1       5.036   3.855  16.562  0.00  0.00    +0.000 A 
ATOM     25  C   UNL     1       5.284   3.840  15.182  0.00  0.00    +0.000 A 
ATOM     26  C   UNL     1       6.478   4.364  14.667  0.00  0.00    +0.000 A 
ATOM     27  C   UNL     1       7.417   4.908  15.557  0.00  0.00    +0.000 A 
ATOM     28  C   UNL     1       7.172   4.933  16.934  0.00  0.00    +0.000 A 
BRANCH  26  29
ATOM     29  C   UNL     1       6.819   4.397  13.207  0.00  0.00    +0.000 C 
ATOM     30  C   UNL     1       7.876   5.327  12.669  0.00  0.00    +0.000 C 
ATOM     31  O   UNL     1       6.226   3.642  12.439  0.00  0.00    +0.000 OA
ENDBRANCH  26  29
ENDBRANCH  20  23
ENDBRANCH  18  20
ENDBRANCH  17  18
ENDBRANCH   1  17
TORSDOF 11
ENDMDL
MODEL 5
REMARK VINA RESULT:      -7.2      3.549      8.594
REMARK  Name = 
REMARK  14 active torsions:
REMARK  status: ('A' for Active; 'I' for Inactive)
REMARK    1  A    between atoms: C_1  and  O_2
REMARK    2  A    between atoms: O_2  and  C_3
REMARK    3  A    between atoms: C_6  and  C_7
REMARK    4  A    between atoms: C_7  and  C_8
REMARK    5  A    between atoms: C_11  and  C_12
REMARK    6  A    between atoms: C_12  and  O_13
REMARK    7  A    between atoms: O_13  and  C_14
REMARK    8  A    between atoms: C_14  and  C_16
REMARK    9  A    between atoms: C_16  and  C_17
REMARK   10  A    between atoms: C_17  and  N_18
REMARK   11  A    between atoms: N_18  and  S_19
REMARK   12  A    between atoms: S_19  and  C_22
REMARK   13  A    between atoms: C_25  and  C_26
REMARK   14  A    between atoms: C_26  and  C_27
REMARK                            x       y       z     vdW  Elec       q    Type
REMARK                         _______ _______ _______ _____ _____    ______ ____
ROOT
ATOM      1  C   UNL     1       0.939   7.582  21.200  0.00  0.00    +0.000 C 
ENDROOT
BRANCH   1   2
ATOM      2  C   UNL     1       1.847   7.279  20.032  0.00  0.00    +0.000 C 
ATOM      3  O   UNL     1       2.370   8.127  19.323  0.00  0.00    +0.000 OA
BRANCH   2   4
ATOM      4  O   UNL     1       1.969   5.933  19.883  0.00  0.00    +0.000 OA
BRANCH   4   5
ATOM      5  C   UNL     1       3.276   5.378  20.049  0.00  0.00    +0.000 C 
BRANCH   5  11
ATOM      6  C   UNL     1       3.483   3.995  17.855  0.00  0.00    +0.000 A 
ATOM      7  C   UNL     1       4.207   3.756  16.670  0.00  0.00    +0.000 A 
ATOM      8  C   UNL     1       5.377   4.451  16.361  0.00  0.00    +0.000 A 
ATOM      9  C   UNL     1       5.855   5.404  17.249  0.00  0.00    +0.000 A 
ATOM     10  C   UNL     1       5.115   5.682  18.413  0.00  0.00    +0.000 A 
ATOM     11  C   UNL     1       3.927   4.984  18.745  0.00  0.00    +0.000 A 
BRANCH   9  12
ATOM     12  C   UNL     1       7.120   6.146  17.008  0.00  0.00    +0.000 C 
ATOM     13  C   UNL     1       7.811   6.846  18.152  0.00  0.00    +0.000 C 
ATOM     14  O   UNL     1       7.577   6.199  15.863  0.00  0.00    +0.000 OA
ENDBRANCH   9  12
BRANCH   6  16
ATOM     15  C   UNL     1       2.639   1.897  18.741  0.00  0.00    +0.000 C 
ATOM     16  O   UNL     1       2.477   3.085  17.991  0.00  0.00    +0.000 OA
ENDBRANCH   6  16
ENDBRANCH   5  11
ENDBRANCH   4   5
ENDBRANCH   2   4
ENDBRANCH   1   2
BRANCH   1  17
ATOM     17  C   UNL     1       1.232   8.989  21.692  0.00  0.00    +0.000 C 
BRANCH  17  18
ATOM     18  N   UNL     1       0.004   9.765  21.943  0.00  0.00    +0.000 NA
ATOM     19  H   UNL     1      -0.350   9.774  22.902  0.00  0.00    +0.000 HD
BRANCH  18  20
ATOM     20  S   UNL     1       0.016  11.355  21.352  0.00  0.00    +0.000 S 
ATOM     21  O   UNL     1      -0.758  12.132  22.298  0.00  0.00    +0.000 OA
ATOM     22  O   UNL     1       1.376  11.713  21.029  0.00  0.00    +0.000 OA
BRANCH  20  23
ATOM     23  C   UNL     1      -0.917  11.244  19.844  0.00  0.00    +0.000 A 
ATOM     24  C   UNL     1      -0.526  10.359  18.833  0.00  0.00    +0.000 A 
ATOM     25  C   UNL     1      -1.321  10.213  17.688  0.00  0.00    +0.000 A 
ATOM     26  C   UNL     1      -2.511  10.942  17.549  0.00  0.00    +0.000 A 
ATOM     27  C   UNL     1      -2.891  11.817  18.580  0.00  0.00    +0.000 A 
ATOM     28  C   UNL     1      -2.104  11.962  19.727  0.00  0.00    +0.000 A 
BRANCH  26  29
ATOM     29  C   UNL     1      -3.425  10.840  16.366  0.00  0.00    +0.000 C 
ATOM     30  C   UNL     1      -2.956  10.254  15.059  0.00  0.00    +0.000 C 
ATOM     31  O   UNL     1      -4.584  11.238  16.473  0.00  0.00    +0.000 OA
ENDBRANCH  26  29
ENDBRANCH  20  23
ENDBRANCH  18  20
ENDBRANCH  17  18
ENDBRANCH   1  17
TORSDOF 11
ENDMDL
MODEL 6
REMARK VINA RESULT:      -7.1      2.479      3.863
REMARK  Name = 
REMARK  14 active torsions:
REMARK  status: ('A' for Active; 'I' for Inactive)
REMARK    1  A    between atoms: C_1  and  O_2
REMARK    2  A    between atoms: O_2  and  C_3
REMARK    3  A    between atoms: C_6  and  C_7
REMARK    4  A    between atoms: C_7  and  C_8
REMARK    5  A    between atoms: C_11  and  C_12
REMARK    6  A    between atoms: C_12  and  O_13
REMARK    7  A    between atoms: O_13  and  C_14
REMARK    8  A    between atoms: C_14  and  C_16
REMARK    9  A    between atoms: C_16  and  C_17
REMARK   10  A    between atoms: C_17  and  N_18
REMARK   11  A    between atoms: N_18  and  S_19
REMARK   12  A    between atoms: S_19  and  C_22
REMARK   13  A    between atoms: C_25  and  C_26
REMARK   14  A    between atoms: C_26  and  C_27
REMARK                            x       y       z     vdW  Elec       q    Type
REMARK                         _______ _______ _______ _____ _____    ______ ____
ROOT
ATOM      1  C   UNL     1       2.578   6.638  19.994  0.00  0.00    +0.000 C 
ENDROOT
BRANCH   1   2
ATOM      2  C   UNL     1       2.589   7.300  18.638  0.00  0.00    +0.000 C 
ATOM      3  O   UNL     1       3.501   7.209  17.829  0.00  0.00    +0.000 OA
BRANCH   2   4
ATOM      4  O   UNL     1       1.449   8.023  18.471  0.00  0.00    +0.000 OA
BRANCH   4   5
ATOM      5  C   UNL     1       1.600   9.393  18.087  0.00  0.00    +0.000 C 
BRANCH   5  11
ATOM      6  C   UNL     1       0.377  11.231  19.464  0.00  0.00    +0.000 A 
ATOM      7  C   UNL     1      -0.814  11.951  19.681  0.00  0.00    +0.000 A 
ATOM      8  C   UNL     1      -1.977  11.704  18.949  0.00  0.00    +0.000 A 
ATOM      9  C   UNL     1      -1.969  10.710  17.981  0.00  0.00    +0.000 A 
ATOM     10  C   UNL     1      -0.773  10.016  17.726  0.00  0.00    +0.000 A 
ATOM     11  C   UNL     1       0.415  10.251  18.461  0.00  0.00    +0.000 A 
BRANCH   9  12
ATOM     12  C   UNL     1      -3.184  10.359  17.199  0.00  0.00    +0.000 C 
ATOM     13  C   UNL     1      -4.533  10.879  17.631  0.00  0.00    +0.000 C 
ATOM     14  O   UNL     1      -3.073   9.624  16.215  0.00  0.00    +0.000 OA
ENDBRANCH   9  12
BRANCH   6  16
ATOM     15  C   UNL     1       1.729  12.888  20.614  0.00  0.00    +0.000 C 
ATOM     16  O   UNL     1       1.308  11.554  20.406  0.00  0.00    +0.000 OA
ENDBRANCH   6  16
ENDBRANCH   5  11
ENDBRANCH   4   5
ENDBRANCH   2   4
ENDBRANCH   1   2
BRANCH   1  17
ATOM     17  C   UNL     1       1.918   5.276  19.865  0.00  0.00    +0.000 C 
BRANCH  17  18
ATOM     18  N   UNL     1       2.431   4.306  20.850  0.00  0.00    +0.000 NA
ATOM     19  H   UNL     1       1.806   4.049  21.616  0.00  0.00    +0.000 HD
BRANCH  18  20
ATOM     20  S   UNL     1       3.101   2.892  20.195  0.00  0.00    +0.000 S 
ATOM     21  O   UNL     1       3.933   2.331  21.239  0.00  0.00    +0.000 OA
ATOM     22  O   UNL     1       2.042   2.121  19.590  0.00  0.00    +0.000 OA
BRANCH  20  23
ATOM     23  C   UNL     1       4.170   3.495  18.911  0.00  0.00    +0.000 A 
ATOM     24  C   UNL     1       3.819   3.338  17.565  0.00  0.00    +0.000 A 
ATOM     25  C   UNL     1       4.624   3.901  16.564  0.00  0.00    +0.000 A 
ATOM     26  C   UNL     1       5.776   4.626  16.900  0.00  0.00    +0.000 A 
ATOM     27  C   UNL     1       6.105   4.781  18.257  0.00  0.00    +0.000 A 
ATOM     28  C   UNL     1       5.302   4.227  19.260  0.00  0.00    +0.000 A 
BRANCH  26  29
ATOM     29  C   UNL     1       6.687   5.268  15.898  0.00  0.00    +0.000 C 
ATOM     30  C   UNL     1       6.722   4.810  14.462  0.00  0.00    +0.000 C 
ATOM     31  O   UNL     1       7.413   6.192  16.259  0.00  0.00    +0.000 OA
ENDBRANCH  26  29
ENDBRANCH  20  23
ENDBRANCH  18  20
ENDBRANCH  17  18
ENDBRANCH   1  17
TORSDOF 11
ENDMDL
MODEL 7
REMARK VINA RESULT:      -7.0      2.652      4.461
REMARK  Name = 
REMARK  14 active torsions:
REMARK  status: ('A' for Active; 'I' for Inactive)
REMARK    1  A    between atoms: C_1  and  O_2
REMARK    2  A    between atoms: O_2  and  C_3
REMARK    3  A    between atoms: C_6  and  C_7
REMARK    4  A    between atoms: C_7  and  C_8
REMARK    5  A    between atoms: C_11  and  C_12
REMARK    6  A    between atoms: C_12  and  O_13
REMARK    7  A    between atoms: O_13  and  C_14
REMARK    8  A    between atoms: C_14  and  C_16
REMARK    9  A    between atoms: C_16  and  C_17
REMARK   10  A    between atoms: C_17  and  N_18
REMARK   11  A    between atoms: N_18  and  S_19
REMARK   12  A    between atoms: S_19  and  C_22
REMARK   13  A    between atoms: C_25  and  C_26
REMARK   14  A    between atoms: C_26  and  C_27
REMARK                            x       y       z     vdW  Elec       q    Type
REMARK                         _______ _______ _______ _____ _____    ______ ____
ROOT
ATOM      1  C   UNL     1       2.718   7.301  19.152  0.00  0.00    +0.000 C 
ENDROOT
BRANCH   1   2
ATOM      2  C   UNL     1       1.963   8.449  18.528  0.00  0.00    +0.000 C 
ATOM      3  O   UNL     1       2.128   8.846  17.383  0.00  0.00    +0.000 OA
BRANCH   2   4
ATOM      4  O   UNL     1       1.098   8.977  19.435  0.00  0.00    +0.000 OA
BRANCH   4   5
ATOM      5  C   UNL     1       1.206  10.379  19.693  0.00  0.00    +0.000 C 
BRANCH   5  11
ATOM      6  C   UNL     1      -0.548  12.101  20.550  0.00  0.00    +0.000 A 
ATOM      7  C   UNL     1      -1.825  12.672  20.383  0.00  0.00    +0.000 A 
ATOM      8  C   UNL     1      -2.704  12.249  19.385  0.00  0.00    +0.000 A 
ATOM      9  C   UNL     1      -2.319  11.225  18.532  0.00  0.00    +0.000 A 
ATOM     10  C   UNL     1      -1.029  10.680  18.660  0.00  0.00    +0.000 A 
ATOM     11  C   UNL     1      -0.124  11.094  19.669  0.00  0.00    +0.000 A 
BRANCH   9  12
ATOM     12  C   UNL     1      -3.222  10.692  17.479  0.00  0.00    +0.000 C 
ATOM     13  C   UNL     1      -2.799  10.732  16.032  0.00  0.00    +0.000 C 
ATOM     14  O   UNL     1      -4.324  10.242  17.805  0.00  0.00    +0.000 OA
ENDBRANCH   9  12
BRANCH   6  16
ATOM     15  C   UNL     1       0.435  13.931  21.807  0.00  0.00    +0.000 C 
ATOM     16  O   UNL     1       0.044  12.578  21.681  0.00  0.00    +0.000 OA
ENDBRANCH   6  16
ENDBRANCH   5  11
ENDBRANCH   4   5
ENDBRANCH   2   4
ENDBRANCH   1   2
BRANCH   1  17
ATOM     17  C   UNL     1       1.830   6.645  20.196  0.00  0.00    +0.000 C 
BRANCH  17  18
ATOM     18  N   UNL     1       2.517   5.557  20.916  0.00  0.00    +0.000 NA
ATOM     19  H   UNL     1       2.331   5.475  21.918  0.00  0.00    +0.000 HD
BRANCH  18  20
ATOM     20  S   UNL     1       2.383   4.020  20.209  0.00  0.00    +0.000 S 
ATOM     21  O   UNL     1       2.783   3.080  21.236  0.00  0.00    +0.000 OA
ATOM     22  O   UNL     1       1.094   3.921  19.570  0.00  0.00    +0.000 OA
BRANCH  20  23
ATOM     23  C   UNL     1       3.641   4.029  18.956  0.00  0.00    +0.000 A 
ATOM     24  C   UNL     1       3.305   3.829  17.613  0.00  0.00    +0.000 A 
ATOM     25  C   UNL     1       4.294   3.931  16.623  0.00  0.00    +0.000 A 
ATOM     26  C   UNL     1       5.617   4.238  16.968  0.00  0.00    +0.000 A 
ATOM     27  C   UNL     1       5.933   4.446  18.321  0.00  0.00    +0.000 A 
ATOM     28  C   UNL     1       4.949   4.351  19.311  0.00  0.00    +0.000 A 
BRANCH  26  29
ATOM     29  C   UNL     1       6.733   4.376  15.977  0.00  0.00    +0.000 C 
ATOM     30  C   UNL     1       6.469   4.385  14.493  0.00  0.00    +0.000 C 
ATOM     31  O   UNL     1       7.886   4.492  16.389  0.00  0.00    +0.000 OA
ENDBRANCH  26  29
ENDBRANCH  20  23
ENDBRANCH  18  20
ENDBRANCH  17  18
ENDBRANCH   1  17
TORSDOF 11
ENDMDL
MODEL 8
REMARK VINA RESULT:      -6.9      4.573      9.593
REMARK  Name = 
REMARK  14 active torsions:
REMARK  status: ('A' for Active; 'I' for Inactive)
REMARK    1  A    between atoms: C_1  and  O_2
REMARK    2  A    between atoms: O_2  and  C_3
REMARK    3  A    between atoms: C_6  and  C_7
REMARK    4  A    between atoms: C_7  and  C_8
REMARK    5  A    between atoms: C_11  and  C_12
REMARK    6  A    between atoms: C_12  and  O_13
REMARK    7  A    between atoms: O_13  and  C_14
REMARK    8  A    between atoms: C_14  and  C_16
REMARK    9  A    between atoms: C_16  and  C_17
REMARK   10  A    between atoms: C_17  and  N_18
REMARK   11  A    between atoms: N_18  and  S_19
REMARK   12  A    between atoms: S_19  and  C_22
REMARK   13  A    between atoms: C_25  and  C_26
REMARK   14  A    between atoms: C_26  and  C_27
REMARK                            x       y       z     vdW  Elec       q    Type
REMARK                         _______ _______ _______ _____ _____    ______ ____
ROOT
ATOM      1  C   UNL     1       1.332   9.374  19.582  0.00  0.00    +0.000 C 
ENDROOT
BRANCH   1   2
ATOM      2  C   UNL     1       1.971   8.784  18.349  0.00  0.00    +0.000 C 
ATOM      3  O   UNL     1       2.052   9.354  17.270  0.00  0.00    +0.000 OA
BRANCH   2   4
ATOM      4  O   UNL     1       2.415   7.527  18.619  0.00  0.00    +0.000 OA
BRANCH   4   5
ATOM      5  C   UNL     1       3.468   7.021  17.794  0.00  0.00    +0.000 C 
BRANCH   5  11
ATOM      6  C   UNL     1       4.389   4.729  16.975  0.00  0.00    +0.000 A 
ATOM      7  C   UNL     1       4.266   3.326  17.004  0.00  0.00    +0.000 A 
ATOM      8  C   UNL     1       3.249   2.682  17.711  0.00  0.00    +0.000 A 
ATOM      9  C   UNL     1       2.319   3.444  18.404  0.00  0.00    +0.000 A 
ATOM     10  C   UNL     1       2.459   4.843  18.418  0.00  0.00    +0.000 A 
ATOM     11  C   UNL     1       3.483   5.514  17.704  0.00  0.00    +0.000 A 
BRANCH   9  12
ATOM     12  C   UNL     1       1.182   2.828  19.137  0.00  0.00    +0.000 C 
ATOM     13  C   UNL     1       1.121   2.916  20.642  0.00  0.00    +0.000 C 
ATOM     14  O   UNL     1       0.310   2.230  18.501  0.00  0.00    +0.000 OA
ENDBRANCH   9  12
BRANCH   6  16
ATOM     15  C   UNL     1       6.701   5.297  16.499  0.00  0.00    +0.000 C 
ATOM     16  O   UNL     1       5.360   5.105  16.095  0.00  0.00    +0.000 OA
ENDBRANCH   6  16
ENDBRANCH   5  11
ENDBRANCH   4   5
ENDBRANCH   2   4
ENDBRANCH   1   2
BRANCH   1  17
ATOM     17  C   UNL     1      -0.030   9.933  19.206  0.00  0.00    +0.000 C 
BRANCH  17  18
ATOM     18  N   UNL     1       0.069  11.185  18.433  0.00  0.00    +0.000 NA
ATOM     19  H   UNL     1      -0.233  11.152  17.457  0.00  0.00    +0.000 HD
BRANCH  18  20
ATOM     20  S   UNL     1      -0.620  12.549  19.171  0.00  0.00    +0.000 S 
ATOM     21  O   UNL     1      -0.225  12.484  20.563  0.00  0.00    +0.000 OA
ATOM     22  O   UNL     1      -0.318  13.706  18.364  0.00  0.00    +0.000 OA
BRANCH  20  23
ATOM     23  C   UNL     1      -2.365  12.232  19.082  0.00  0.00    +0.000 A 
ATOM     24  C   UNL     1      -3.220  12.682  20.094  0.00  0.00    +0.000 A 
ATOM     25  C   UNL     1      -4.605  12.507  19.967  0.00  0.00    +0.000 A 
ATOM     26  C   UNL     1      -5.143  11.888  18.830  0.00  0.00    +0.000 A 
ATOM     27  C   UNL     1      -4.269  11.452  17.820  0.00  0.00    +0.000 A 
ATOM     28  C   UNL     1      -2.887  11.630  17.939  0.00  0.00    +0.000 A 
BRANCH  26  29
ATOM     29  C   UNL     1      -6.609  11.669  18.607  0.00  0.00    +0.000 C 
ATOM     30  C   UNL     1      -7.582  12.820  18.597  0.00  0.00    +0.000 C 
ATOM     31  O   UNL     1      -7.019  10.525  18.422  0.00  0.00    +0.000 OA
ENDBRANCH  26  29
ENDBRANCH  20  23
ENDBRANCH  18  20
ENDBRANCH  17  18
ENDBRANCH   1  17
TORSDOF 11
ENDMDL
MODEL 9
REMARK VINA RESULT:      -6.9      3.703      9.656
REMARK  Name = 
REMARK  14 active torsions:
REMARK  status: ('A' for Active; 'I' for Inactive)
REMARK    1  A    between atoms: C_1  and  O_2
REMARK    2  A    between atoms: O_2  and  C_3
REMARK    3  A    between atoms: C_6  and  C_7
REMARK    4  A    between atoms: C_7  and  C_8
REMARK    5  A    between atoms: C_11  and  C_12
REMARK    6  A    between atoms: C_12  and  O_13
REMARK    7  A    between atoms: O_13  and  C_14
REMARK    8  A    between atoms: C_14  and  C_16
REMARK    9  A    between atoms: C_16  and  C_17
REMARK   10  A    between atoms: C_17  and  N_18
REMARK   11  A    between atoms: N_18  and  S_19
REMARK   12  A    between atoms: S_19  and  C_22
REMARK   13  A    between atoms: C_25  and  C_26
REMARK   14  A    between atoms: C_26  and  C_27
REMARK                            x       y       z     vdW  Elec       q    Type
REMARK                         _______ _______ _______ _____ _____    ______ ____
ROOT
ATOM      1  C   UNL     1       0.123   9.611  17.953  0.00  0.00    +0.000 C 
ENDROOT
BRANCH   1   2
ATOM      2  C   UNL     1       1.593   9.301  17.810  0.00  0.00    +0.000 C 
ATOM      3  O   UNL     1       2.437  10.102  17.435  0.00  0.00    +0.000 OA
BRANCH   2   4
ATOM      4  O   UNL     1       1.822   8.002  18.140  0.00  0.00    +0.000 OA
BRANCH   4   5
ATOM      5  C   UNL     1       3.181   7.623  18.376  0.00  0.00    +0.000 C 
BRANCH   5  11
ATOM      6  C   UNL     1       2.878   5.065  18.006  0.00  0.00    +0.000 A 
ATOM      7  C   UNL     1       3.339   3.900  17.362  0.00  0.00    +0.000 A 
ATOM      8  C   UNL     1       4.456   3.905  16.525  0.00  0.00    +0.000 A 
ATOM      9  C   UNL     1       5.147   5.091  16.324  0.00  0.00    +0.000 A 
ATOM     10  C   UNL     1       4.668   6.269  16.925  0.00  0.00    +0.000 A 
ATOM     11  C   UNL     1       3.538   6.282  17.781  0.00  0.00    +0.000 A 
BRANCH   9  12
ATOM     12  C   UNL     1       6.372   5.159  15.486  0.00  0.00    +0.000 C 
ATOM     13  C   UNL     1       6.483   4.311  14.243  0.00  0.00    +0.000 C 
ATOM     14  O   UNL     1       7.298   5.896  15.834  0.00  0.00    +0.000 OA
ENDBRANCH   9  12
BRANCH   6  16
ATOM     15  C   UNL     1       2.132   4.141  20.124  0.00  0.00    +0.000 C 
ATOM     16  O   UNL     1       1.877   4.763  18.880  0.00  0.00    +0.000 OA
ENDBRANCH   6  16
ENDBRANCH   5  11
ENDBRANCH   4   5
ENDBRANCH   2   4
ENDBRANCH   1   2
BRANCH   1  17
ATOM     17  C   UNL     1      -0.170   9.923  19.410  0.00  0.00    +0.000 C 
BRANCH  17  18
ATOM     18  N   UNL     1       0.968  10.570  20.088  0.00  0.00    +0.000 NA
ATOM     19  H   UNL     1       1.894  10.422  19.682  0.00  0.00    +0.000 HD
BRANCH  18  20
ATOM     20  S   UNL     1       0.774  12.224  20.414  0.00  0.00    +0.000 S 
ATOM     21  O   UNL     1       1.818  12.564  21.359  0.00  0.00    +0.000 OA
ATOM     22  O   UNL     1       0.646  12.926  19.160  0.00  0.00    +0.000 OA
BRANCH  20  23
ATOM     23  C   UNL     1      -0.782  12.298  21.268  0.00  0.00    +0.000 A 
ATOM     24  C   UNL     1      -0.921  11.726  22.538  0.00  0.00    +0.000 A 
ATOM     25  C   UNL     1      -2.126  11.872  23.240  0.00  0.00    +0.000 A 
ATOM     26  C   UNL     1      -3.192  12.592  22.683  0.00  0.00    +0.000 A 
ATOM     27  C   UNL     1      -3.029  13.166  21.412  0.00  0.00    +0.000 A 
ATOM     28  C   UNL     1      -1.827  13.030  20.710  0.00  0.00    +0.000 A 
BRANCH  26  29
ATOM     29  C   UNL     1      -4.509  12.805  23.367  0.00  0.00    +0.000 C 
ATOM     30  C   UNL     1      -4.729  12.386  24.798  0.00  0.00    +0.000 C 
ATOM     31  O   UNL     1      -5.424  13.341  22.744  0.00  0.00    +0.000 OA
ENDBRANCH  26  29
ENDBRANCH  20  23
ENDBRANCH  18  20
ENDBRANCH  17  18
ENDBRANCH   1  17
TORSDOF 11
ENDMDL
