MODEL 1
REMARK VINA RESULT:      -8.1      0.000      0.000
REMARK  Name = 
REMARK  8 active torsions:
REMARK  status: ('A' for Active; 'I' for Inactive)
REMARK    1  A    between atoms: C_1  and  C_2
REMARK    2  A    between atoms: C_2  and  C_3
REMARK    3  A    between atoms: C_2  and  N_4
REMARK    4  A    between atoms: C_7  and  N_8
REMARK    5  A    between atoms: C_13  and  C_14
REMARK    6  A    between atoms: C_19  and  N_20
REMARK    7  A    between atoms: N_25  and  C_26
REMARK    8  A    between atoms: C_29  and  C_30
REMARK                            x       y       z     vdW  Elec       q    Type
REMARK                         _______ _______ _______ _____ _____    ______ ____
ROOT
ATOM      1  N   UNL     1       1.390   8.718  20.053  0.00  0.00    +0.000 N 
ATOM      2  C   UNL     1       0.489   9.746  19.753  0.00  0.00    +0.000 A 
ATOM      3  N   UNL     1      -0.110   9.795  18.554  0.00  0.00    +0.000 NA
ATOM      4  C   UNL     1      -0.906  10.833  18.289  0.00  0.00    +0.000 A 
ATOM      5  C   UNL     1      -1.142  11.839  19.182  0.00  0.00    +0.000 A 
ATOM      6  C   UNL     1      -0.505  11.735  20.406  0.00  0.00    +0.000 A 
ATOM      7  N   UNL     1       0.302  10.680  20.703  0.00  0.00    +0.000 NA
ATOM      8  H   UNL     1       1.805   8.904  20.955  0.00  0.00    +0.000 HD
ENDROOT
BRANCH   1  12
ATOM      9  N   UNL     1       2.843   4.181  18.896  0.00  0.00    +0.000 N 
ATOM     10  C   UNL     1       2.834   5.564  18.614  0.00  0.00    +0.000 A 
ATOM     11  C   UNL     1       2.098   6.490  19.390  0.00  0.00    +0.000 A 
ATOM     12  C   UNL     1       2.122   7.882  19.191  0.00  0.00    +0.000 A 
ATOM     13  C   UNL     1       2.869   8.353  18.117  0.00  0.00    +0.000 A 
ATOM     14  C   UNL     1       3.621   7.487  17.330  0.00  0.00    +0.000 A 
ATOM     15  C   UNL     1       3.621   6.104  17.554  0.00  0.00    +0.000 A 
ATOM     16  N   UNL     1       4.446   5.252  16.760  0.00  0.00    +0.000 N 
ATOM     17  C   UNL     1       5.373   5.739  15.757  0.00  0.00    +0.000 C 
ATOM     18  C   UNL     1       4.488   3.887  17.023  0.00  0.00    +0.000 C 
ATOM     19  O   UNL     1       5.393   3.164  16.597  0.00  0.00    +0.000 OA
ATOM     20  C   UNL     1       3.238   3.343  17.727  0.00  0.00    +0.000 C 
ATOM     21  C   UNL     1       3.466   1.860  18.039  0.00  0.00    +0.000 C 
BRANCH   9  23
ATOM     22  C   UNL     1       2.512   4.217  21.373  0.00  0.00    +0.000 C 
ATOM     23  C   UNL     1       2.156   3.545  20.044  0.00  0.00    +0.000 C 
ATOM     24  C   UNL     1       0.661   3.313  19.823  0.00  0.00    +0.000 C 
ENDBRANCH   9  23
ENDBRANCH   1  12
BRANCH   6  25
ATOM     25  C   UNL     1      -0.644  12.804  21.429  0.00  0.00    +0.000 A 
ATOM     26  C   UNL     1      -0.268  14.130  21.103  0.00  0.00    +0.000 A 
ATOM     27  C   UNL     1      -0.453  15.192  21.988  0.00  0.00    +0.000 A 
ATOM     28  C   UNL     1      -1.016  14.954  23.233  0.00  0.00    +0.000 A 
ATOM     29  C   UNL     1      -1.368  13.656  23.599  0.00  0.00    +0.000 A 
ATOM     30  C   UNL     1      -1.144  12.568  22.732  0.00  0.00    +0.000 A 
BRANCH  30  31
ATOM     31  N   UNL     1      -1.648  11.306  23.118  0.00  0.00    +0.000 N 
ATOM     32  H   UNL     1      -1.207  10.937  23.954  0.00  0.00    +0.000 HD
ATOM     33  H   UNL     1      -1.603  10.650  22.335  0.00  0.00    +0.000 HD
ENDBRANCH  30  31
ENDBRANCH   6  25
TORSDOF 4
ENDMDL
MODEL 2
REMARK VINA RESULT:      -8.0      3.332      9.589
REMARK  Name = 
REMARK  8 active torsions:
REMARK  status: ('A' for Active; 'I' for Inactive)
REMARK    1  A    between atoms: C_1  and  C_2
REMARK    2  A    between atoms: C_2  and  C_3
REMARK    3  A    between atoms: C_2  and  N_4
REMARK    4  A    between atoms: C_7  and  N_8
REMARK    5  A    between atoms: C_13  and  C_14
REMARK    6  A    between atoms: C_19  and  N_20
REMARK    7  A    between atoms: N_25  and  C_26
REMARK    8  A    between atoms: C_29  and  C_30
REMARK                            x       y       z     vdW  Elec       q    Type
REMARK                         _______ _______ _______ _____ _____    ______ ____
ROOT
ATOM      1  N   UNL     1       1.322   8.420  21.526  0.00  0.00    +0.000 N 
ATOM      2  C   UNL     1       1.739   7.935  20.282  0.00  0.00    +0.000 A 
ATOM      3  N   UNL     1       1.788   8.751  19.218  0.00  0.00    +0.000 NA
ATOM      4  C   UNL     1       2.123   8.226  18.037  0.00  0.00    +0.000 A 
ATOM      5  C   UNL     1       2.424   6.906  17.865  0.00  0.00    +0.000 A 
ATOM      6  C   UNL     1       2.364   6.111  18.997  0.00  0.00    +0.000 A 
ATOM      7  N   UNL     1       2.036   6.625  20.214  0.00  0.00    +0.000 NA
ATOM      8  H   UNL     1       1.260   7.645  22.171  0.00  0.00    +0.000 HD
ENDROOT
BRANCH   1  12
ATOM      9  N   UNL     1       0.443  13.187  20.793  0.00  0.00    +0.000 N 
ATOM     10  C   UNL     1       0.113  11.975  21.437  0.00  0.00    +0.000 A 
ATOM     11  C   UNL     1       0.795  10.765  21.167  0.00  0.00    +0.000 A 
ATOM     12  C   UNL     1       0.552   9.554  21.839  0.00  0.00    +0.000 A 
ATOM     13  C   UNL     1      -0.474   9.549  22.778  0.00  0.00    +0.000 A 
ATOM     14  C   UNL     1      -1.168  10.714  23.090  0.00  0.00    +0.000 A 
ATOM     15  C   UNL     1      -0.898  11.926  22.441  0.00  0.00    +0.000 A 
ATOM     16  N   UNL     1      -1.593  13.111  22.825  0.00  0.00    +0.000 N 
ATOM     17  C   UNL     1      -2.534  13.170  23.927  0.00  0.00    +0.000 C 
ATOM     18  C   UNL     1      -1.281  14.324  22.220  0.00  0.00    +0.000 C 
ATOM     19  O   UNL     1      -1.607  15.407  22.714  0.00  0.00    +0.000 OA
ATOM     20  C   UNL     1      -0.661  14.189  20.823  0.00  0.00    +0.000 C 
ATOM     21  C   UNL     1      -0.281  15.588  20.325  0.00  0.00    +0.000 C 
BRANCH   9  23
ATOM     22  C   UNL     1       2.897  13.577  20.528  0.00  0.00    +0.000 C 
ATOM     23  C   UNL     1       1.553  13.361  19.827  0.00  0.00    +0.000 C 
ATOM     24  C   UNL     1       1.572  12.319  18.709  0.00  0.00    +0.000 C 
ENDBRANCH   9  23
ENDBRANCH   1  12
BRANCH   6  25
ATOM     25  C   UNL     1       2.614   4.649  18.912  0.00  0.00    +0.000 A 
ATOM     26  C   UNL     1       3.740   4.177  18.193  0.00  0.00    +0.000 A 
ATOM     27  C   UNL     1       4.077   2.824  18.146  0.00  0.00    +0.000 A 
ATOM     28  C   UNL     1       3.289   1.901  18.816  0.00  0.00    +0.000 A 
ATOM     29  C   UNL     1       2.156   2.326  19.508  0.00  0.00    +0.000 A 
ATOM     30  C   UNL     1       1.779   3.683  19.523  0.00  0.00    +0.000 A 
BRANCH  30  31
ATOM     31  N   UNL     1       0.698   4.055  20.353  0.00  0.00    +0.000 N 
ATOM     32  H   UNL     1       0.973   4.648  21.129  0.00  0.00    +0.000 HD
ATOM     33  H   UNL     1       0.186   3.225  20.665  0.00  0.00    +0.000 HD
ENDBRANCH  30  31
ENDBRANCH   6  25
TORSDOF 4
ENDMDL
MODEL 3
REMARK VINA RESULT:      -8.0      3.351      9.685
REMARK  Name = 
REMARK  8 active torsions:
REMARK  status: ('A' for Active; 'I' for Inactive)
REMARK    1  A    between atoms: C_1  and  C_2
REMARK    2  A    between atoms: C_2  and  C_3
REMARK    3  A    between atoms: C_2  and  N_4
REMARK    4  A    between atoms: C_7  and  N_8
REMARK    5  A    between atoms: C_13  and  C_14
REMARK    6  A    between atoms: C_19  and  N_20
REMARK    7  A    between atoms: N_25  and  C_26
REMARK    8  A    between atoms: C_29  and  C_30
REMARK                            x       y       z     vdW  Elec       q    Type
REMARK                         _______ _______ _______ _____ _____    ______ ____
ROOT
ATOM      1  N   UNL     1       1.376   8.495  21.456  0.00  0.00    +0.000 N 
ATOM      2  C   UNL     1       1.784   8.035  20.199  0.00  0.00    +0.000 A 
ATOM      3  N   UNL     1       1.787   8.861  19.143  0.00  0.00    +0.000 NA
ATOM      4  C   UNL     1       2.115   8.358  17.951  0.00  0.00    +0.000 A 
ATOM      5  C   UNL     1       2.453   7.049  17.760  0.00  0.00    +0.000 A 
ATOM      6  C   UNL     1       2.439   6.243  18.885  0.00  0.00    +0.000 A 
ATOM      7  N   UNL     1       2.120   6.735  20.113  0.00  0.00    +0.000 NA
ATOM      8  H   UNL     1       1.350   7.713  22.094  0.00  0.00    +0.000 HD
ENDROOT
BRANCH   1  12
ATOM      9  N   UNL     1       0.376  13.254  20.831  0.00  0.00    +0.000 N 
ATOM     10  C   UNL     1       0.078  12.019  21.448  0.00  0.00    +0.000 A 
ATOM     11  C   UNL     1       0.790  10.834  21.150  0.00  0.00    +0.000 A 
ATOM     12  C   UNL     1       0.577   9.602  21.795  0.00  0.00    +0.000 A 
ATOM     13  C   UNL     1      -0.447   9.550  22.733  0.00  0.00    +0.000 A 
ATOM     14  C   UNL     1      -1.170  10.689  23.072  0.00  0.00    +0.000 A 
ATOM     15  C   UNL     1      -0.931  11.922  22.451  0.00  0.00    +0.000 A 
ATOM     16  N   UNL     1      -1.656  13.081  22.862  0.00  0.00    +0.000 N 
ATOM     17  C   UNL     1      -2.598  13.090  23.964  0.00  0.00    +0.000 C 
ATOM     18  C   UNL     1      -1.375  14.314  22.284  0.00  0.00    +0.000 C 
ATOM     19  O   UNL     1      -1.729  15.377  22.802  0.00  0.00    +0.000 OA
ATOM     20  C   UNL     1      -0.753  14.227  20.884  0.00  0.00    +0.000 C 
ATOM     21  C   UNL     1      -0.409  15.646  20.418  0.00  0.00    +0.000 C 
BRANCH   9  23
ATOM     22  C   UNL     1       2.834  13.620  20.570  0.00  0.00    +0.000 C 
ATOM     23  C   UNL     1       1.480  13.477  19.870  0.00  0.00    +0.000 C 
ATOM     24  C   UNL     1       1.472  12.518  18.680  0.00  0.00    +0.000 C 
ENDBRANCH   9  23
ENDBRANCH   1  12
BRANCH   6  25
ATOM     25  C   UNL     1       2.732   4.790  18.782  0.00  0.00    +0.000 A 
ATOM     26  C   UNL     1       1.719   3.908  18.333  0.00  0.00    +0.000 A 
ATOM     27  C   UNL     1       1.954   2.547  18.135  0.00  0.00    +0.000 A 
ATOM     28  C   UNL     1       3.216   2.028  18.386  0.00  0.00    +0.000 A 
ATOM     29  C   UNL     1       4.228   2.862  18.859  0.00  0.00    +0.000 A 
ATOM     30  C   UNL     1       3.990   4.228  19.108  0.00  0.00    +0.000 A 
BRANCH  30  31
ATOM     31  N   UNL     1       5.096   5.034  19.457  0.00  0.00    +0.000 N 
ATOM     32  H   UNL     1       5.988   4.630  19.186  0.00  0.00    +0.000 HD
ATOM     33  H   UNL     1       5.066   5.270  20.452  0.00  0.00    +0.000 HD
ENDBRANCH  30  31
ENDBRANCH   6  25
TORSDOF 4
ENDMDL
MODEL 4
REMARK VINA RESULT:      -7.9      0.817      1.225
REMARK  Name = 
REMARK  8 active torsions:
REMARK  status: ('A' for Active; 'I' for Inactive)
REMARK    1  A    between atoms: C_1  and  C_2
REMARK    2  A    between atoms: C_2  and  C_3
REMARK    3  A    between atoms: C_2  and  N_4
REMARK    4  A    between atoms: C_7  and  N_8
REMARK    5  A    between atoms: C_13  and  C_14
REMARK    6  A    between atoms: C_19  and  N_20
REMARK    7  A    between atoms: N_25  and  C_26
REMARK    8  A    between atoms: C_29  and  C_30
REMARK                            x       y       z     vdW  Elec       q    Type
REMARK                         _______ _______ _______ _____ _____    ______ ____
ROOT
ATOM      1  N   UNL     1       1.056   8.764  20.237  0.00  0.00    +0.000 N 
ATOM      2  C   UNL     1       0.109   9.759  19.967  0.00  0.00    +0.000 A 
ATOM      3  N   UNL     1      -0.461   9.840  18.756  0.00  0.00    +0.000 NA
ATOM      4  C   UNL     1      -1.306  10.848  18.523  0.00  0.00    +0.000 A 
ATOM      5  C   UNL     1      -1.616  11.791  19.460  0.00  0.00    +0.000 A 
ATOM      6  C   UNL     1      -1.004  11.656  20.693  0.00  0.00    +0.000 A 
ATOM      7  N   UNL     1      -0.150  10.630  20.958  0.00  0.00    +0.000 NA
ATOM      8  H   UNL     1       1.438   8.924  21.159  0.00  0.00    +0.000 HD
ENDROOT
BRANCH   1  12
ATOM      9  N   UNL     1       2.830   4.385  18.929  0.00  0.00    +0.000 N 
ATOM     10  C   UNL     1       2.728   5.774  18.699  0.00  0.00    +0.000 A 
ATOM     11  C   UNL     1       1.923   6.617  19.500  0.00  0.00    +0.000 A 
ATOM     12  C   UNL     1       1.853   8.014  19.354  0.00  0.00    +0.000 A 
ATOM     13  C   UNL     1       2.576   8.576  18.308  0.00  0.00    +0.000 A 
ATOM     14  C   UNL     1       3.394   7.794  17.498  0.00  0.00    +0.000 A 
ATOM     15  C   UNL     1       3.486   6.407  17.669  0.00  0.00    +0.000 A 
ATOM     16  N   UNL     1       4.376   5.645  16.854  0.00  0.00    +0.000 N 
ATOM     17  C   UNL     1       5.277   6.232  15.883  0.00  0.00    +0.000 C 
ATOM     18  C   UNL     1       4.509   4.277  17.067  0.00  0.00    +0.000 C 
ATOM     19  O   UNL     1       5.466   3.634  16.625  0.00  0.00    +0.000 OA
ATOM     20  C   UNL     1       3.293   3.622  17.734  0.00  0.00    +0.000 C 
ATOM     21  C   UNL     1       3.619   2.146  17.993  0.00  0.00    +0.000 C 
BRANCH   9  23
ATOM     22  C   UNL     1       2.507   4.277  21.404  0.00  0.00    +0.000 C 
ATOM     23  C   UNL     1       2.176   3.660  20.043  0.00  0.00    +0.000 C 
ATOM     24  C   UNL     1       0.693   3.372  19.813  0.00  0.00    +0.000 C 
ENDBRANCH   9  23
ENDBRANCH   1  12
BRANCH   6  25
ATOM     25  C   UNL     1      -1.226  12.661  21.766  0.00  0.00    +0.000 A 
ATOM     26  C   UNL     1      -2.381  12.564  22.580  0.00  0.00    +0.000 A 
ATOM     27  C   UNL     1      -2.605  13.424  23.655  0.00  0.00    +0.000 A 
ATOM     28  C   UNL     1      -1.677  14.413  23.944  0.00  0.00    +0.000 A 
ATOM     29  C   UNL     1      -0.544  14.557  23.144  0.00  0.00    +0.000 A 
ATOM     30  C   UNL     1      -0.330  13.725  22.028  0.00  0.00    +0.000 A 
BRANCH  30  31
ATOM     31  N   UNL     1       0.903  13.843  21.348  0.00  0.00    +0.000 N 
ATOM     32  H   UNL     1       1.225  12.969  20.947  0.00  0.00    +0.000 HD
ATOM     33  H   UNL     1       1.605  14.272  21.956  0.00  0.00    +0.000 HD
ENDBRANCH  30  31
ENDBRANCH   6  25
TORSDOF 4
ENDMDL
MODEL 5
REMARK VINA RESULT:      -7.8      3.268      9.576
REMARK  Name = 
REMARK  8 active torsions:
REMARK  status: ('A' for Active; 'I' for Inactive)
REMARK    1  A    between atoms: C_1  and  C_2
REMARK    2  A    between atoms: C_2  and  C_3
REMARK    3  A    between atoms: C_2  and  N_4
REMARK    4  A    between atoms: C_7  and  N_8
REMARK    5  A    between atoms: C_13  and  C_14
REMARK    6  A    between atoms: C_19  and  N_20
REMARK    7  A    between atoms: N_25  and  C_26
REMARK    8  A    between atoms: C_29  and  C_30
REMARK                            x       y       z     vdW  Elec       q    Type
REMARK                         _______ _______ _______ _____ _____    ______ ____
ROOT
ATOM      1  N   UNL     1       1.680   8.883  17.869  0.00  0.00    +0.000 N 
ATOM      2  C   UNL     1       2.321   7.718  18.303  0.00  0.00    +0.000 A 
ATOM      3  N   UNL     1       2.042   7.200  19.509  0.00  0.00    +0.000 NA
ATOM      4  C   UNL     1       2.730   6.127  19.908  0.00  0.00    +0.000 A 
ATOM      5  C   UNL     1       3.695   5.534  19.147  0.00  0.00    +0.000 A 
ATOM      6  C   UNL     1       3.938   6.105  17.910  0.00  0.00    +0.000 A 
ATOM      7  N   UNL     1       3.241   7.191  17.476  0.00  0.00    +0.000 NA
ATOM      8  H   UNL     1       2.088   9.168  16.990  0.00  0.00    +0.000 HD
ENDROOT
BRANCH   1  12
ATOM      9  N   UNL     1      -2.380  11.505  18.691  0.00  0.00    +0.000 N 
ATOM     10  C   UNL     1      -1.042  11.198  19.023  0.00  0.00    +0.000 A 
ATOM     11  C   UNL     1      -0.316  10.177  18.368  0.00  0.00    +0.000 A 
ATOM     12  C   UNL     1       1.040   9.890  18.613  0.00  0.00    +0.000 A 
ATOM     13  C   UNL     1       1.668  10.623  19.613  0.00  0.00    +0.000 A 
ATOM     14  C   UNL     1       1.003  11.647  20.280  0.00  0.00    +0.000 A 
ATOM     15  C   UNL     1      -0.337  11.952  20.008  0.00  0.00    +0.000 A 
ATOM     16  N   UNL     1      -0.971  13.043  20.673  0.00  0.00    +0.000 N 
ATOM     17  C   UNL     1      -0.282  13.938  21.583  0.00  0.00    +0.000 C 
ATOM     18  C   UNL     1      -2.283  13.380  20.357  0.00  0.00    +0.000 C 
ATOM     19  O   UNL     1      -2.769  14.475  20.653  0.00  0.00    +0.000 OA
ATOM     20  C   UNL     1      -3.107  12.222  19.778  0.00  0.00    +0.000 C 
ATOM     21  C   UNL     1      -4.489  12.760  19.389  0.00  0.00    +0.000 C 
BRANCH   9  23
ATOM     22  C   UNL     1      -2.580  11.179  16.222  0.00  0.00    +0.000 C 
ATOM     23  C   UNL     1      -3.154  10.860  17.605  0.00  0.00    +0.000 C 
ATOM     24  C   UNL     1      -3.455   9.382  17.849  0.00  0.00    +0.000 C 
ENDBRANCH   9  23
ENDBRANCH   1  12
BRANCH   6  25
ATOM     25  C   UNL     1       5.008   5.576  17.025  0.00  0.00    +0.000 A 
ATOM     26  C   UNL     1       4.838   4.311  16.411  0.00  0.00    +0.000 A 
ATOM     27  C   UNL     1       5.765   3.795  15.505  0.00  0.00    +0.000 A 
ATOM     28  C   UNL     1       6.897   4.532  15.192  0.00  0.00    +0.000 A 
ATOM     29  C   UNL     1       7.112   5.767  15.803  0.00  0.00    +0.000 A 
ATOM     30  C   UNL     1       6.207   6.277  16.754  0.00  0.00    +0.000 A 
BRANCH  30  31
ATOM     31  N   UNL     1       6.423   7.590  17.228  0.00  0.00    +0.000 N 
ATOM     32  H   UNL     1       6.581   7.635  18.229  0.00  0.00    +0.000 HD
ATOM     33  H   UNL     1       5.663   8.207  16.929  0.00  0.00    +0.000 HD
ENDBRANCH  30  31
ENDBRANCH   6  25
TORSDOF 4
ENDMDL
MODEL 6
REMARK VINA RESULT:      -7.6      3.316      9.554
REMARK  Name = 
REMARK  8 active torsions:
REMARK  status: ('A' for Active; 'I' for Inactive)
REMARK    1  A    between atoms: C_1  and  C_2
REMARK    2  A    between atoms: C_2  and  C_3
REMARK    3  A    between atoms: C_2  and  N_4
REMARK    4  A    between atoms: C_7  and  N_8
REMARK    5  A    between atoms: C_13  and  C_14
REMARK    6  A    between atoms: C_19  and  N_20
REMARK    7  A    between atoms: N_25  and  C_26
REMARK    8  A    between atoms: C_29  and  C_30
REMARK                            x       y       z     vdW  Elec       q    Type
REMARK                         _______ _______ _______ _____ _____    ______ ____
ROOT
ATOM      1  N   UNL     1       1.477   9.027  18.142  0.00  0.00    +0.000 N 
ATOM      2  C   UNL     1       2.108   7.863  18.594  0.00  0.00    +0.000 A 
ATOM      3  N   UNL     1       1.767   7.321  19.773  0.00  0.00    +0.000 NA
ATOM      4  C   UNL     1       2.446   6.251  20.195  0.00  0.00    +0.000 A 
ATOM      5  C   UNL     1       3.462   5.684  19.481  0.00  0.00    +0.000 A 
ATOM      6  C   UNL     1       3.768   6.279  18.270  0.00  0.00    +0.000 A 
ATOM      7  N   UNL     1       3.083   7.362  17.813  0.00  0.00    +0.000 NA
ATOM      8  H   UNL     1       1.931   9.332  17.293  0.00  0.00    +0.000 HD
ENDROOT
BRANCH   1  12
ATOM      9  N   UNL     1      -2.659  11.585  18.762  0.00  0.00    +0.000 N 
ATOM     10  C   UNL     1      -1.340  11.288  19.169  0.00  0.00    +0.000 A 
ATOM     11  C   UNL     1      -0.562  10.287  18.542  0.00  0.00    +0.000 A 
ATOM     12  C   UNL     1       0.779  10.012  18.864  0.00  0.00    +0.000 A 
ATOM     13  C   UNL     1       1.337  10.733  19.913  0.00  0.00    +0.000 A 
ATOM     14  C   UNL     1       0.619  11.737  20.556  0.00  0.00    +0.000 A 
ATOM     15  C   UNL     1      -0.706  12.031  20.208  0.00  0.00    +0.000 A 
ATOM     16  N   UNL     1      -1.392  13.103  20.854  0.00  0.00    +0.000 N 
ATOM     17  C   UNL     1      -0.772  13.988  21.820  0.00  0.00    +0.000 C 
ATOM     18  C   UNL     1      -2.687  13.430  20.464  0.00  0.00    +0.000 C 
ATOM     19  O   UNL     1      -3.204  14.513  20.750  0.00  0.00    +0.000 OA
ATOM     20  C   UNL     1      -3.460  12.274  19.815  0.00  0.00    +0.000 C 
ATOM     21  C   UNL     1      -4.822  12.802  19.352  0.00  0.00    +0.000 C 
BRANCH   9  23
ATOM     22  C   UNL     1      -2.675  11.262  16.284  0.00  0.00    +0.000 C 
ATOM     23  C   UNL     1      -3.357  10.952  17.619  0.00  0.00    +0.000 C 
ATOM     24  C   UNL     1      -3.698   9.478  17.839  0.00  0.00    +0.000 C 
ENDBRANCH   9  23
ENDBRANCH   1  12
BRANCH   6  25
ATOM     25  C   UNL     1       4.895   5.779  17.441  0.00  0.00    +0.000 A 
ATOM     26  C   UNL     1       6.098   6.525  17.382  0.00  0.00    +0.000 A 
ATOM     27  C   UNL     1       7.221   6.070  16.691  0.00  0.00    +0.000 A 
ATOM     28  C   UNL     1       7.168   4.851  16.030  0.00  0.00    +0.000 A 
ATOM     29  C   UNL     1       5.990   4.106  16.041  0.00  0.00    +0.000 A 
ATOM     30  C   UNL     1       4.836   4.577  16.696  0.00  0.00    +0.000 A 
BRANCH  30  31
ATOM     31  N   UNL     1       3.726   3.707  16.776  0.00  0.00    +0.000 N 
ATOM     32  H   UNL     1       2.853   4.144  16.497  0.00  0.00    +0.000 HD
ATOM     33  H   UNL     1       3.666   3.290  17.709  0.00  0.00    +0.000 HD
ENDBRANCH  30  31
ENDBRANCH   6  25
TORSDOF 4
ENDMDL
MODEL 7
REMARK VINA RESULT:      -7.5      3.556      9.609
REMARK  Name = 
REMARK  8 active torsions:
REMARK  status: ('A' for Active; 'I' for Inactive)
REMARK    1  A    between atoms: C_1  and  C_2
REMARK    2  A    between atoms: C_2  and  C_3
REMARK    3  A    between atoms: C_2  and  N_4
REMARK    4  A    between atoms: C_7  and  N_8
REMARK    5  A    between atoms: C_13  and  C_14
REMARK    6  A    between atoms: C_19  and  N_20
REMARK    7  A    between atoms: N_25  and  C_26
REMARK    8  A    between atoms: C_29  and  C_30
REMARK                            x       y       z     vdW  Elec       q    Type
REMARK                         _______ _______ _______ _____ _____    ______ ____
ROOT
ATOM      1  N   UNL     1       1.644  10.281  17.990  0.00  0.00    +0.000 N 
ATOM      2  C   UNL     1       1.725   9.091  18.722  0.00  0.00    +0.000 A 
ATOM      3  N   UNL     1       1.366   9.064  20.014  0.00  0.00    +0.000 NA
ATOM      4  C   UNL     1       1.527   7.923  20.689  0.00  0.00    +0.000 A 
ATOM      5  C   UNL     1       2.033   6.787  20.125  0.00  0.00    +0.000 A 
ATOM      6  C   UNL     1       2.381   6.870  18.788  0.00  0.00    +0.000 A 
ATOM      7  N   UNL     1       2.215   8.017  18.076  0.00  0.00    +0.000 NA
ATOM      8  H   UNL     1       2.045  10.126  17.076  0.00  0.00    +0.000 HD
ENDROOT
BRANCH   1  12
ATOM      9  N   UNL     1      -0.686  13.758  20.543  0.00  0.00    +0.000 N 
ATOM     10  C   UNL     1       0.417  13.360  19.756  0.00  0.00    +0.000 A 
ATOM     11  C   UNL     1       0.572  12.034  19.287  0.00  0.00    +0.000 A 
ATOM     12  C   UNL     1       1.612  11.613  18.438  0.00  0.00    +0.000 A 
ATOM     13  C   UNL     1       2.575  12.559  18.106  0.00  0.00    +0.000 A 
ATOM     14  C   UNL     1       2.465  13.878  18.530  0.00  0.00    +0.000 A 
ATOM     15  C   UNL     1       1.408  14.301  19.347  0.00  0.00    +0.000 A 
ATOM     16  N   UNL     1       1.297  15.674  19.720  0.00  0.00    +0.000 N 
ATOM     17  C   UNL     1       2.186  16.711  19.234  0.00  0.00    +0.000 C 
ATOM     18  C   UNL     1       0.215  16.100  20.482  0.00  0.00    +0.000 C 
ATOM     19  O   UNL     1      -0.100  17.290  20.566  0.00  0.00    +0.000 OA
ATOM     20  C   UNL     1      -0.429  14.997  21.332  0.00  0.00    +0.000 C 
ATOM     21  C   UNL     1      -1.659  15.584  22.036  0.00  0.00    +0.000 C 
BRANCH   9  23
ATOM     22  C   UNL     1      -2.535  12.311  19.688  0.00  0.00    +0.000 C 
ATOM     23  C   UNL     1      -1.822  12.883  20.916  0.00  0.00    +0.000 C 
ATOM     24  C   UNL     1      -1.488  11.859  22.000  0.00  0.00    +0.000 C 
ENDBRANCH   9  23
ENDBRANCH   1  12
BRANCH   6  25
ATOM     25  C   UNL     1       2.996   5.711  18.090  0.00  0.00    +0.000 A 
ATOM     26  C   UNL     1       2.286   4.487  18.019  0.00  0.00    +0.000 A 
ATOM     27  C   UNL     1       2.770   3.388  17.308  0.00  0.00    +0.000 A 
ATOM     28  C   UNL     1       3.988   3.483  16.650  0.00  0.00    +0.000 A 
ATOM     29  C   UNL     1       4.727   4.662  16.725  0.00  0.00    +0.000 A 
ATOM     30  C   UNL     1       4.272   5.762  17.478  0.00  0.00    +0.000 A 
BRANCH  30  31
ATOM     31  N   UNL     1       5.009   6.964  17.397  0.00  0.00    +0.000 N 
ATOM     32  H   UNL     1       4.753   7.539  16.602  0.00  0.00    +0.000 HD
ATOM     33  H   UNL     1       6.013   6.769  17.425  0.00  0.00    +0.000 HD
ENDBRANCH  30  31
ENDBRANCH   6  25
TORSDOF 4
ENDMDL
MODEL 8
REMARK VINA RESULT:      -7.4      1.735      2.258
REMARK  Name = 
REMARK  8 active torsions:
REMARK  status: ('A' for Active; 'I' for Inactive)
REMARK    1  A    between atoms: C_1  and  C_2
REMARK    2  A    between atoms: C_2  and  C_3
REMARK    3  A    between atoms: C_2  and  N_4
REMARK    4  A    between atoms: C_7  and  N_8
REMARK    5  A    between atoms: C_13  and  C_14
REMARK    6  A    between atoms: C_19  and  N_20
REMARK    7  A    between atoms: N_25  and  C_26
REMARK    8  A    between atoms: C_29  and  C_30
REMARK                            x       y       z     vdW  Elec       q    Type
REMARK                         _______ _______ _______ _____ _____    ______ ____
ROOT
ATOM      1  N   UNL     1       0.448   9.203  18.940  0.00  0.00    +0.000 N 
ATOM      2  C   UNL     1       0.399  10.429  19.614  0.00  0.00    +0.000 A 
ATOM      3  N   UNL     1       1.490  11.204  19.691  0.00  0.00    +0.000 NA
ATOM      4  C   UNL     1       1.414  12.331  20.404  0.00  0.00    +0.000 A 
ATOM      5  C   UNL     1       0.279  12.729  21.050  0.00  0.00    +0.000 A 
ATOM      6  C   UNL     1      -0.819  11.895  20.931  0.00  0.00    +0.000 A 
ATOM      7  N   UNL     1      -0.769  10.748  20.200  0.00  0.00    +0.000 NA
ATOM      8  H   UNL     1      -0.432   8.726  19.072  0.00  0.00    +0.000 HD
ENDROOT
BRANCH   1  12
ATOM      9  N   UNL     1       2.795   4.941  19.538  0.00  0.00    +0.000 N 
ATOM     10  C   UNL     1       2.719   6.212  18.929  0.00  0.00    +0.000 A 
ATOM     11  C   UNL     1       1.632   7.091  19.146  0.00  0.00    +0.000 A 
ATOM     12  C   UNL     1       1.553   8.394  18.621  0.00  0.00    +0.000 A 
ATOM     13  C   UNL     1       2.586   8.801  17.785  0.00  0.00    +0.000 A 
ATOM     14  C   UNL     1       3.684   7.980  17.548  0.00  0.00    +0.000 A 
ATOM     15  C   UNL     1       3.775   6.696  18.101  0.00  0.00    +0.000 A 
ATOM     16  N   UNL     1       4.941   5.904  17.879  0.00  0.00    +0.000 N 
ATOM     17  C   UNL     1       6.109   6.377  17.164  0.00  0.00    +0.000 C 
ATOM     18  C   UNL     1       5.052   4.653  18.478  0.00  0.00    +0.000 C 
ATOM     19  O   UNL     1       6.135   4.071  18.584  0.00  0.00    +0.000 OA
ATOM     20  C   UNL     1       3.708   4.000  18.827  0.00  0.00    +0.000 C 
ATOM     21  C   UNL     1       3.986   2.684  19.563  0.00  0.00    +0.000 C 
BRANCH   9  23
ATOM     22  C   UNL     1       0.786   3.484  19.831  0.00  0.00    +0.000 C 
ATOM     23  C   UNL     1       1.809   4.403  20.504  0.00  0.00    +0.000 C 
ATOM     24  C   UNL     1       2.433   3.842  21.782  0.00  0.00    +0.000 C 
ENDBRANCH   9  23
ENDBRANCH   1  12
BRANCH   6  25
ATOM     25  C   UNL     1      -2.087  12.203  21.642  0.00  0.00    +0.000 A 
ATOM     26  C   UNL     1      -2.157  12.024  23.045  0.00  0.00    +0.000 A 
ATOM     27  C   UNL     1      -3.289  12.374  23.782  0.00  0.00    +0.000 A 
ATOM     28  C   UNL     1      -4.391  12.908  23.130  0.00  0.00    +0.000 A 
ATOM     29  C   UNL     1      -4.368  13.068  21.745  0.00  0.00    +0.000 A 
ATOM     30  C   UNL     1      -3.249  12.675  20.985  0.00  0.00    +0.000 A 
BRANCH  30  31
ATOM     31  N   UNL     1      -3.247  12.991  19.608  0.00  0.00    +0.000 N 
ATOM     32  H   UNL     1      -3.860  13.765  19.374  0.00  0.00    +0.000 HD
ATOM     33  H   UNL     1      -3.449  12.157  19.051  0.00  0.00    +0.000 HD
ENDBRANCH  30  31
ENDBRANCH   6  25
TORSDOF 4
ENDMDL
MODEL 9
REMARK VINA RESULT:      -7.4      1.678      3.434
REMARK  Name = 
REMARK  8 active torsions:
REMARK  status: ('A' for Active; 'I' for Inactive)
REMARK    1  A    between atoms: C_1  and  C_2
REMARK    2  A    between atoms: C_2  and  C_3
REMARK    3  A    between atoms: C_2  and  N_4
REMARK    4  A    between atoms: C_7  and  N_8
REMARK    5  A    between atoms: C_13  and  C_14
REMARK    6  A    between atoms: C_19  and  N_20
REMARK    7  A    between atoms: N_25  and  C_26
REMARK    8  A    between atoms: C_29  and  C_30
REMARK                            x       y       z     vdW  Elec       q    Type
REMARK                         _______ _______ _______ _____ _____    ______ ____
ROOT
ATOM      1  N   UNL     1       1.539   8.917  20.081  0.00  0.00    +0.000 N 
ATOM      2  C   UNL     1       0.807   9.509  21.115  0.00  0.00    +0.000 A 
ATOM      3  N   UNL     1       0.721   8.911  22.313  0.00  0.00    +0.000 NA
ATOM      4  C   UNL     1      -0.047   9.479  23.247  0.00  0.00    +0.000 A 
ATOM      5  C   UNL     1      -0.740  10.636  23.040  0.00  0.00    +0.000 A 
ATOM      6  C   UNL     1      -0.611  11.214  21.789  0.00  0.00    +0.000 A 
ATOM      7  N   UNL     1       0.176  10.661  20.825  0.00  0.00    +0.000 NA
ATOM      8  H   UNL     1       1.407   9.460  19.239  0.00  0.00    +0.000 HD
ENDROOT
BRANCH   1  12
ATOM      9  N   UNL     1       4.380   5.680  17.738  0.00  0.00    +0.000 N 
ATOM     10  C   UNL     1       3.392   5.952  18.709  0.00  0.00    +0.000 A 
ATOM     11  C   UNL     1       2.959   7.267  19.000  0.00  0.00    +0.000 A 
ATOM     12  C   UNL     1       1.925   7.576  19.902  0.00  0.00    +0.000 A 
ATOM     13  C   UNL     1       1.351   6.514  20.591  0.00  0.00    +0.000 A 
ATOM     14  C   UNL     1       1.731   5.201  20.334  0.00  0.00    +0.000 A 
ATOM     15  C   UNL     1       2.738   4.896  19.409  0.00  0.00    +0.000 A 
ATOM     16  N   UNL     1       3.065   3.534  19.133  0.00  0.00    +0.000 N 
ATOM     17  C   UNL     1       2.354   2.407  19.701  0.00  0.00    +0.000 C 
ATOM     18  C   UNL     1       4.023   3.234  18.171  0.00  0.00    +0.000 C 
ATOM     19  O   UNL     1       4.122   2.110  17.671  0.00  0.00    +0.000 OA
ATOM     20  C   UNL     1       5.041   4.356  17.924  0.00  0.00    +0.000 C 
ATOM     21  C   UNL     1       5.966   3.926  16.780  0.00  0.00    +0.000 C 
BRANCH   9  23
ATOM     22  C   UNL     1       6.409   7.100  17.403  0.00  0.00    +0.000 C 
ATOM     23  C   UNL     1       5.028   6.699  16.879  0.00  0.00    +0.000 C 
ATOM     24  C   UNL     1       4.977   6.375  15.385  0.00  0.00    +0.000 C 
ENDBRANCH   9  23
ENDBRANCH   1  12
BRANCH   6  25
ATOM     25  C   UNL     1      -1.368  12.443  21.437  0.00  0.00    +0.000 A 
ATOM     26  C   UNL     1      -2.727  12.555  21.820  0.00  0.00    +0.000 A 
ATOM     27  C   UNL     1      -3.468  13.715  21.595  0.00  0.00    +0.000 A 
ATOM     28  C   UNL     1      -2.869  14.798  20.971  0.00  0.00    +0.000 A 
ATOM     29  C   UNL     1      -1.542  14.711  20.552  0.00  0.00    +0.000 A 
ATOM     30  C   UNL     1      -0.797  13.530  20.732  0.00  0.00    +0.000 A 
BRANCH  30  31
ATOM     31  N   UNL     1       0.577  13.563  20.404  0.00  0.00    +0.000 N 
ATOM     32  H   UNL     1       0.754  13.465  19.409  0.00  0.00    +0.000 HD
ATOM     33  H   UNL     1       1.092  12.874  20.957  0.00  0.00    +0.000 HD
ENDBRANCH  30  31
ENDBRANCH   6  25
TORSDOF 4
ENDMDL
