MODEL 1
REMARK VINA RESULT:      -8.3      0.000      0.000
REMARK  Name = 
REMARK  3 active torsions:
REMARK  status: ('A' for Active; 'I' for Inactive)
REMARK    1  A    between atoms: C_1  and  C_2
REMARK    2  A    between atoms: C_13  and  C_14
REMARK    3  A    between atoms: C_16  and  C_17
REMARK                            x       y       z     vdW  Elec       q    Type
REMARK                         _______ _______ _______ _____ _____    ______ ____
ROOT
ATOM      1  C   UNL     1       5.590   4.250  13.766  0.00  0.00    +0.000 C 
ATOM      2  C   UNL     1       5.844   4.487  15.219  0.00  0.00    +0.000 A 
ATOM      3  C   UNL     1       4.903   4.993  16.032  0.00  0.00    +0.000 A 
ATOM      4  C   UNL     1       5.209   5.218  17.420  0.00  0.00    +0.000 A 
ATOM      5  C   UNL     1       6.418   4.942  17.907  0.00  0.00    +0.000 A 
ATOM      6  C   UNL     1       7.469   4.380  17.052  0.00  0.00    +0.000 A 
ATOM      7  O   UNL     1       8.593   4.104  17.445  0.00  0.00    +0.000 OA
ATOM      8  N   UNL     1       7.090   4.184  15.732  0.00  0.00    +0.000 N 
ATOM      9  C   UNL     1       6.410   5.337  19.308  0.00  0.00    +0.000 C 
ATOM     10  O   UNL     1       7.335   5.242  20.098  0.00  0.00    +0.000 OA
ATOM     11  O   UNL     1       5.175   5.866  19.627  0.00  0.00    +0.000 OA
ATOM     12  C   UNL     1       4.417   5.777  18.466  0.00  0.00    +0.000 C 
ATOM     13  C   UNL     1       3.133   6.141  18.332  0.00  0.00    +0.000 C 
ATOM     14  H   UNL     1       7.811   3.807  15.127  0.00  0.00    +0.000 HD
ENDROOT
BRANCH  13  15
ATOM     15  C   UNL     1       2.363   6.760  19.349  0.00  0.00    +0.000 A 
ATOM     16  C   UNL     1       1.943   8.068  19.483  0.00  0.00    +0.000 A 
ATOM     17  C   UNL     1       1.141   8.295  20.645  0.00  0.00    +0.000 A 
ATOM     18  C   UNL     1       0.972   7.126  21.359  0.00  0.00    +0.000 A 
ATOM     19  S   UNL     1       1.746   5.794  20.630  0.00  0.00    +0.000 S 
BRANCH  17  20
ATOM     20  C   UNL     1       0.588   9.570  21.085  0.00  0.00    +0.000 A 
ATOM     21  C   UNL     1       0.763  10.737  20.331  0.00  0.00    +0.000 A 
ATOM     22  C   UNL     1       0.194  11.940  20.750  0.00  0.00    +0.000 A 
ATOM     23  C   UNL     1      -0.543  11.990  21.932  0.00  0.00    +0.000 A 
ATOM     24  C   UNL     1      -0.703  10.841  22.702  0.00  0.00    +0.000 A 
ATOM     25  C   UNL     1      -0.140   9.636  22.282  0.00  0.00    +0.000 A 
ENDBRANCH  17  20
ENDBRANCH  13  15
TORSDOF 2
ENDMDL
MODEL 2
REMARK VINA RESULT:      -8.3      3.199      4.055
REMARK  Name = 
REMARK  3 active torsions:
REMARK  status: ('A' for Active; 'I' for Inactive)
REMARK    1  A    between atoms: C_1  and  C_2
REMARK    2  A    between atoms: C_13  and  C_14
REMARK    3  A    between atoms: C_16  and  C_17
REMARK                            x       y       z     vdW  Elec       q    Type
REMARK                         _______ _______ _______ _____ _____    ______ ____
ROOT
ATOM      1  C   UNL     1       7.103   4.858  16.686  0.00  0.00    +0.000 C 
ATOM      2  C   UNL     1       5.914   4.871  17.590  0.00  0.00    +0.000 A 
ATOM      3  C   UNL     1       4.997   5.850  17.545  0.00  0.00    +0.000 A 
ATOM      4  C   UNL     1       3.881   5.821  18.453  0.00  0.00    +0.000 A 
ATOM      5  C   UNL     1       3.752   4.842  19.347  0.00  0.00    +0.000 A 
ATOM      6  C   UNL     1       4.729   3.750  19.420  0.00  0.00    +0.000 A 
ATOM      7  O   UNL     1       4.658   2.824  20.215  0.00  0.00    +0.000 OA
ATOM      8  N   UNL     1       5.766   3.847  18.505  0.00  0.00    +0.000 N 
ATOM      9  C   UNL     1       2.566   5.142  20.137  0.00  0.00    +0.000 C 
ATOM     10  O   UNL     1       2.115   4.479  21.056  0.00  0.00    +0.000 OA
ATOM     11  O   UNL     1       2.013   6.329  19.697  0.00  0.00    +0.000 OA
ATOM     12  C   UNL     1       2.812   6.747  18.639  0.00  0.00    +0.000 C 
ATOM     13  C   UNL     1       2.616   7.840  17.887  0.00  0.00    +0.000 C 
ATOM     14  H   UNL     1       6.455   3.104  18.553  0.00  0.00    +0.000 HD
ENDROOT
BRANCH  13  15
ATOM     15  C   UNL     1       1.596   8.797  18.111  0.00  0.00    +0.000 A 
ATOM     16  C   UNL     1       0.343   8.921  17.544  0.00  0.00    +0.000 A 
ATOM     17  C   UNL     1      -0.417  10.013  18.069  0.00  0.00    +0.000 A 
ATOM     18  C   UNL     1       0.297  10.684  19.040  0.00  0.00    +0.000 A 
ATOM     19  S   UNL     1       1.833   9.999  19.318  0.00  0.00    +0.000 S 
BRANCH  17  20
ATOM     20  C   UNL     1      -1.749  10.428  17.645  0.00  0.00    +0.000 A 
ATOM     21  C   UNL     1      -2.540  11.259  18.448  0.00  0.00    +0.000 A 
ATOM     22  C   UNL     1      -3.798  11.676  18.007  0.00  0.00    +0.000 A 
ATOM     23  C   UNL     1      -4.279  11.254  16.769  0.00  0.00    +0.000 A 
ATOM     24  C   UNL     1      -3.510  10.408  15.974  0.00  0.00    +0.000 A 
ATOM     25  C   UNL     1      -2.251   9.996  16.409  0.00  0.00    +0.000 A 
ENDBRANCH  17  20
ENDBRANCH  13  15
TORSDOF 2
ENDMDL
MODEL 3
REMARK VINA RESULT:      -8.2      2.434      3.059
REMARK  Name = 
REMARK  3 active torsions:
REMARK  status: ('A' for Active; 'I' for Inactive)
REMARK    1  A    between atoms: C_1  and  C_2
REMARK    2  A    between atoms: C_13  and  C_14
REMARK    3  A    between atoms: C_16  and  C_17
REMARK                            x       y       z     vdW  Elec       q    Type
REMARK                         _______ _______ _______ _____ _____    ______ ____
ROOT
ATOM      1  C   UNL     1       5.620   3.963  15.631  0.00  0.00    +0.000 C 
ATOM      2  C   UNL     1       4.808   4.187  16.865  0.00  0.00    +0.000 A 
ATOM      3  C   UNL     1       4.162   5.341  17.092  0.00  0.00    +0.000 A 
ATOM      4  C   UNL     1       3.410   5.508  18.308  0.00  0.00    +0.000 A 
ATOM      5  C   UNL     1       3.356   4.536  19.217  0.00  0.00    +0.000 A 
ATOM      6  C   UNL     1       4.041   3.257  19.001  0.00  0.00    +0.000 A 
ATOM      7  O   UNL     1       4.022   2.330  19.797  0.00  0.00    +0.000 OA
ATOM      8  N   UNL     1       4.734   3.174  17.802  0.00  0.00    +0.000 N 
ATOM      9  C   UNL     1       2.575   5.045  20.335  0.00  0.00    +0.000 C 
ATOM     10  O   UNL     1       2.300   4.449  21.364  0.00  0.00    +0.000 OA
ATOM     11  O   UNL     1       2.187   6.343  20.068  0.00  0.00    +0.000 OA
ATOM     12  C   UNL     1       2.684   6.631  18.803  0.00  0.00    +0.000 C 
ATOM     13  C   UNL     1       2.507   7.777  18.128  0.00  0.00    +0.000 C 
ATOM     14  H   UNL     1       5.222   2.299  17.645  0.00  0.00    +0.000 HD
ENDROOT
BRANCH  13  15
ATOM     15  C   UNL     1       1.845   8.919  18.644  0.00  0.00    +0.000 A 
ATOM     16  C   UNL     1       1.052   9.065  19.764  0.00  0.00    +0.000 A 
ATOM     17  C   UNL     1       0.593  10.404  19.969  0.00  0.00    +0.000 A 
ATOM     18  C   UNL     1       1.072  11.242  18.984  0.00  0.00    +0.000 A 
ATOM     19  S   UNL     1       2.062  10.432  17.857  0.00  0.00    +0.000 S 
BRANCH  17  20
ATOM     20  C   UNL     1      -0.292  10.867  21.032  0.00  0.00    +0.000 A 
ATOM     21  C   UNL     1      -1.125  11.977  20.851  0.00  0.00    +0.000 A 
ATOM     22  C   UNL     1      -1.992  12.382  21.868  0.00  0.00    +0.000 A 
ATOM     23  C   UNL     1      -2.022  11.689  23.077  0.00  0.00    +0.000 A 
ATOM     24  C   UNL     1      -1.179  10.598  23.276  0.00  0.00    +0.000 A 
ATOM     25  C   UNL     1      -0.317  10.189  22.260  0.00  0.00    +0.000 A 
ENDBRANCH  17  20
ENDBRANCH  13  15
TORSDOF 2
ENDMDL
MODEL 4
REMARK VINA RESULT:      -8.2      3.402      4.293
REMARK  Name = 
REMARK  3 active torsions:
REMARK  status: ('A' for Active; 'I' for Inactive)
REMARK    1  A    between atoms: C_1  and  C_2
REMARK    2  A    between atoms: C_13  and  C_14
REMARK    3  A    between atoms: C_16  and  C_17
REMARK                            x       y       z     vdW  Elec       q    Type
REMARK                         _______ _______ _______ _____ _____    ______ ____
ROOT
ATOM      1  C   UNL     1       7.532   5.982  17.572  0.00  0.00    +0.000 C 
ATOM      2  C   UNL     1       6.083   5.619  17.608  0.00  0.00    +0.000 A 
ATOM      3  C   UNL     1       5.122   6.543  17.756  0.00  0.00    +0.000 A 
ATOM      4  C   UNL     1       3.743   6.133  17.802  0.00  0.00    +0.000 A 
ATOM      5  C   UNL     1       3.409   4.847  17.712  0.00  0.00    +0.000 A 
ATOM      6  C   UNL     1       4.431   3.809  17.539  0.00  0.00    +0.000 A 
ATOM      7  O   UNL     1       4.182   2.616  17.446  0.00  0.00    +0.000 OA
ATOM      8  N   UNL     1       5.732   4.288  17.494  0.00  0.00    +0.000 N 
ATOM      9  C   UNL     1       1.961   4.774  17.852  0.00  0.00    +0.000 C 
ATOM     10  O   UNL     1       1.275   3.765  17.823  0.00  0.00    +0.000 OA
ATOM     11  O   UNL     1       1.457   6.045  18.044  0.00  0.00    +0.000 OA
ATOM     12  C   UNL     1       2.554   6.897  17.995  0.00  0.00    +0.000 C 
ATOM     13  C   UNL     1       2.519   8.234  18.095  0.00  0.00    +0.000 C 
ATOM     14  H   UNL     1       6.450   3.579  17.387  0.00  0.00    +0.000 HD
ENDROOT
BRANCH  13  15
ATOM     15  C   UNL     1       1.349   8.990  18.355  0.00  0.00    +0.000 A 
ATOM     16  C   UNL     1       0.240   9.223  17.567  0.00  0.00    +0.000 A 
ATOM     17  C   UNL     1      -0.761  10.018  18.208  0.00  0.00    +0.000 A 
ATOM     18  C   UNL     1      -0.370  10.358  19.487  0.00  0.00    +0.000 A 
ATOM     19  S   UNL     1       1.154   9.717  19.900  0.00  0.00    +0.000 S 
BRANCH  17  20
ATOM     20  C   UNL     1      -2.019  10.469  17.625  0.00  0.00    +0.000 A 
ATOM     21  C   UNL     1      -2.955  11.183  18.382  0.00  0.00    +0.000 A 
ATOM     22  C   UNL     1      -4.137  11.639  17.795  0.00  0.00    +0.000 A 
ATOM     23  C   UNL     1      -4.397  11.372  16.452  0.00  0.00    +0.000 A 
ATOM     24  C   UNL     1      -3.484  10.642  15.697  0.00  0.00    +0.000 A 
ATOM     25  C   UNL     1      -2.300  10.191  16.279  0.00  0.00    +0.000 A 
ENDBRANCH  17  20
ENDBRANCH  13  15
TORSDOF 2
ENDMDL
MODEL 5
REMARK VINA RESULT:      -8.1      2.342      3.124
REMARK  Name = 
REMARK  3 active torsions:
REMARK  status: ('A' for Active; 'I' for Inactive)
REMARK    1  A    between atoms: C_1  and  C_2
REMARK    2  A    between atoms: C_13  and  C_14
REMARK    3  A    between atoms: C_16  and  C_17
REMARK                            x       y       z     vdW  Elec       q    Type
REMARK                         _______ _______ _______ _____ _____    ______ ____
ROOT
ATOM      1  C   UNL     1       6.082   4.373  15.723  0.00  0.00    +0.000 C 
ATOM      2  C   UNL     1       5.168   4.513  16.897  0.00  0.00    +0.000 A 
ATOM      3  C   UNL     1       4.465   5.635  17.122  0.00  0.00    +0.000 A 
ATOM      4  C   UNL     1       3.614   5.721  18.279  0.00  0.00    +0.000 A 
ATOM      5  C   UNL     1       3.523   4.706  19.137  0.00  0.00    +0.000 A 
ATOM      6  C   UNL     1       4.269   3.462  18.921  0.00  0.00    +0.000 A 
ATOM      7  O   UNL     1       4.220   2.498  19.671  0.00  0.00    +0.000 OA
ATOM      8  N   UNL     1       5.056   3.456  17.779  0.00  0.00    +0.000 N 
ATOM      9  C   UNL     1       2.639   5.137  20.210  0.00  0.00    +0.000 C 
ATOM     10  O   UNL     1       2.306   4.486  21.187  0.00  0.00    +0.000 OA
ATOM     11  O   UNL     1       2.227   6.434  19.970  0.00  0.00    +0.000 OA
ATOM     12  C   UNL     1       2.812   6.796  18.763  0.00  0.00    +0.000 C 
ATOM     13  C   UNL     1       2.648   7.966  18.127  0.00  0.00    +0.000 C 
ATOM     14  H   UNL     1       5.586   2.605  17.623  0.00  0.00    +0.000 HD
ENDROOT
BRANCH  13  15
ATOM     15  C   UNL     1       1.908   9.061  18.637  0.00  0.00    +0.000 A 
ATOM     16  C   UNL     1       1.113   9.159  19.761  0.00  0.00    +0.000 A 
ATOM     17  C   UNL     1       0.559  10.462  19.959  0.00  0.00    +0.000 A 
ATOM     18  C   UNL     1       0.968  11.324  18.962  0.00  0.00    +0.000 A 
ATOM     19  S   UNL     1       2.008  10.578  17.835  0.00  0.00    +0.000 S 
BRANCH  17  20
ATOM     20  C   UNL     1      -0.351  10.869  21.024  0.00  0.00    +0.000 A 
ATOM     21  C   UNL     1      -0.371  10.203  22.255  0.00  0.00    +0.000 A 
ATOM     22  C   UNL     1      -1.223  10.631  23.274  0.00  0.00    +0.000 A 
ATOM     23  C   UNL     1      -2.070  11.718  23.066  0.00  0.00    +0.000 A 
ATOM     24  C   UNL     1      -2.076  12.372  21.836  0.00  0.00    +0.000 A 
ATOM     25  C   UNL     1      -1.221  11.950  20.819  0.00  0.00    +0.000 A 
ENDBRANCH  17  20
ENDBRANCH  13  15
TORSDOF 2
ENDMDL
MODEL 6
REMARK VINA RESULT:      -8.1      2.950      3.772
REMARK  Name = 
REMARK  3 active torsions:
REMARK  status: ('A' for Active; 'I' for Inactive)
REMARK    1  A    between atoms: C_1  and  C_2
REMARK    2  A    between atoms: C_13  and  C_14
REMARK    3  A    between atoms: C_16  and  C_17
REMARK                            x       y       z     vdW  Elec       q    Type
REMARK                         _______ _______ _______ _____ _____    ______ ____
ROOT
ATOM      1  C   UNL     1       6.532   4.776  15.910  0.00  0.00    +0.000 C 
ATOM      2  C   UNL     1       5.492   4.926  16.973  0.00  0.00    +0.000 A 
ATOM      3  C   UNL     1       4.658   5.977  17.008  0.00  0.00    +0.000 A 
ATOM      4  C   UNL     1       3.688   6.079  18.067  0.00  0.00    +0.000 A 
ATOM      5  C   UNL     1       3.615   5.151  19.019  0.00  0.00    +0.000 A 
ATOM      6  C   UNL     1       4.504   3.984  19.009  0.00  0.00    +0.000 A 
ATOM      7  O   UNL     1       4.478   3.100  19.852  0.00  0.00    +0.000 OA
ATOM      8  N   UNL     1       5.400   3.955  17.951  0.00  0.00    +0.000 N 
ATOM      9  C   UNL     1       2.585   5.582  19.953  0.00  0.00    +0.000 C 
ATOM     10  O   UNL     1       2.222   4.997  20.960  0.00  0.00    +0.000 OA
ATOM     11  O   UNL     1       2.068   6.793  19.536  0.00  0.00    +0.000 OA
ATOM     12  C   UNL     1       2.733   7.099  18.355  0.00  0.00    +0.000 C 
ATOM     13  C   UNL     1       2.515   8.173  17.582  0.00  0.00    +0.000 C 
ATOM     14  H   UNL     1       6.029   3.159  17.939  0.00  0.00    +0.000 HD
ENDROOT
BRANCH  13  15
ATOM     15  C   UNL     1       1.617   9.222  17.900  0.00  0.00    +0.000 A 
ATOM     16  C   UNL     1       0.237   9.250  17.899  0.00  0.00    +0.000 A 
ATOM     17  C   UNL     1      -0.310  10.502  18.323  0.00  0.00    +0.000 A 
ATOM     18  C   UNL     1       0.694  11.391  18.645  0.00  0.00    +0.000 A 
ATOM     19  S   UNL     1       2.250  10.721  18.455  0.00  0.00    +0.000 S 
BRANCH  17  20
ATOM     20  C   UNL     1      -1.723  10.857  18.387  0.00  0.00    +0.000 A 
ATOM     21  C   UNL     1      -2.671  10.212  17.583  0.00  0.00    +0.000 A 
ATOM     22  C   UNL     1      -4.024  10.541  17.686  0.00  0.00    +0.000 A 
ATOM     23  C   UNL     1      -4.437  11.525  18.582  0.00  0.00    +0.000 A 
ATOM     24  C   UNL     1      -3.500  12.189  19.369  0.00  0.00    +0.000 A 
ATOM     25  C   UNL     1      -2.148  11.858  19.272  0.00  0.00    +0.000 A 
ENDBRANCH  17  20
ENDBRANCH  13  15
TORSDOF 2
ENDMDL
MODEL 7
REMARK VINA RESULT:      -8.1      2.912      3.734
REMARK  Name = 
REMARK  3 active torsions:
REMARK  status: ('A' for Active; 'I' for Inactive)
REMARK    1  A    between atoms: C_1  and  C_2
REMARK    2  A    between atoms: C_13  and  C_14
REMARK    3  A    between atoms: C_16  and  C_17
REMARK                            x       y       z     vdW  Elec       q    Type
REMARK                         _______ _______ _______ _____ _____    ______ ____
ROOT
ATOM      1  C   UNL     1       6.477   4.989  15.602  0.00  0.00    +0.000 C 
ATOM      2  C   UNL     1       5.502   5.115  16.726  0.00  0.00    +0.000 A 
ATOM      3  C   UNL     1       4.647   6.146  16.814  0.00  0.00    +0.000 A 
ATOM      4  C   UNL     1       3.741   6.226  17.929  0.00  0.00    +0.000 A 
ATOM      5  C   UNL     1       3.749   5.297  18.884  0.00  0.00    +0.000 A 
ATOM      6  C   UNL     1       4.662   4.152  18.818  0.00  0.00    +0.000 A 
ATOM      7  O   UNL     1       4.709   3.268  19.661  0.00  0.00    +0.000 OA
ATOM      8  N   UNL     1       5.493   4.143  17.708  0.00  0.00    +0.000 N 
ATOM      9  C   UNL     1       2.767   5.705  19.879  0.00  0.00    +0.000 C 
ATOM     10  O   UNL     1       2.481   5.112  20.907  0.00  0.00    +0.000 OA
ATOM     11  O   UNL     1       2.197   6.903  19.495  0.00  0.00    +0.000 OA
ATOM     12  C   UNL     1       2.782   7.224  18.276  0.00  0.00    +0.000 C 
ATOM     13  C   UNL     1       2.492   8.292  17.519  0.00  0.00    +0.000 C 
ATOM     14  H   UNL     1       6.138   3.362  17.656  0.00  0.00    +0.000 HD
ENDROOT
BRANCH  13  15
ATOM     15  C   UNL     1       1.590   9.320  17.892  0.00  0.00    +0.000 A 
ATOM     16  C   UNL     1       0.210   9.337  17.910  0.00  0.00    +0.000 A 
ATOM     17  C   UNL     1      -0.341  10.565  18.393  0.00  0.00    +0.000 A 
ATOM     18  C   UNL     1       0.661  11.448  18.739  0.00  0.00    +0.000 A 
ATOM     19  S   UNL     1       2.220  10.799  18.501  0.00  0.00    +0.000 S 
BRANCH  17  20
ATOM     20  C   UNL     1      -1.755  10.906  18.489  0.00  0.00    +0.000 A 
ATOM     21  C   UNL     1      -2.220  11.813  19.449  0.00  0.00    +0.000 A 
ATOM     22  C   UNL     1      -3.572  12.155  19.501  0.00  0.00    +0.000 A 
ATOM     23  C   UNL     1      -4.472  11.581  18.604  0.00  0.00    +0.000 A 
ATOM     24  C   UNL     1      -4.025  10.659  17.662  0.00  0.00    +0.000 A 
ATOM     25  C   UNL     1      -2.673  10.321  17.604  0.00  0.00    +0.000 A 
ENDBRANCH  17  20
ENDBRANCH  13  15
TORSDOF 2
ENDMDL
MODEL 8
REMARK VINA RESULT:      -7.9      0.503      1.105
REMARK  Name = 
REMARK  3 active torsions:
REMARK  status: ('A' for Active; 'I' for Inactive)
REMARK    1  A    between atoms: C_1  and  C_2
REMARK    2  A    between atoms: C_13  and  C_14
REMARK    3  A    between atoms: C_16  and  C_17
REMARK                            x       y       z     vdW  Elec       q    Type
REMARK                         _______ _______ _______ _____ _____    ______ ____
ROOT
ATOM      1  C   UNL     1       5.705   4.170  13.779  0.00  0.00    +0.000 C 
ATOM      2  C   UNL     1       5.916   4.459  15.230  0.00  0.00    +0.000 A 
ATOM      3  C   UNL     1       4.976   5.053  15.980  0.00  0.00    +0.000 A 
ATOM      4  C   UNL     1       5.241   5.324  17.369  0.00  0.00    +0.000 A 
ATOM      5  C   UNL     1       6.412   5.004  17.916  0.00  0.00    +0.000 A 
ATOM      6  C   UNL     1       7.461   4.346  17.130  0.00  0.00    +0.000 A 
ATOM      7  O   UNL     1       8.552   4.026  17.580  0.00  0.00    +0.000 OA
ATOM      8  N   UNL     1       7.123   4.111  15.806  0.00  0.00    +0.000 N 
ATOM      9  C   UNL     1       6.373   5.463  19.297  0.00  0.00    +0.000 C 
ATOM     10  O   UNL     1       7.261   5.353  20.128  0.00  0.00    +0.000 OA
ATOM     11  O   UNL     1       5.159   6.074  19.542  0.00  0.00    +0.000 OA
ATOM     12  C   UNL     1       4.442   5.974  18.356  0.00  0.00    +0.000 C 
ATOM     13  C   UNL     1       3.187   6.402  18.154  0.00  0.00    +0.000 C 
ATOM     14  H   UNL     1       7.844   3.667  15.248  0.00  0.00    +0.000 HD
ENDROOT
BRANCH  13  15
ATOM     15  C   UNL     1       2.416   7.109  19.111  0.00  0.00    +0.000 A 
ATOM     16  C   UNL     1       1.931   8.401  19.092  0.00  0.00    +0.000 A 
ATOM     17  C   UNL     1       1.152   8.736  20.243  0.00  0.00    +0.000 A 
ATOM     18  C   UNL     1       1.067   7.663  21.107  0.00  0.00    +0.000 A 
ATOM     19  S   UNL     1       1.891   6.288  20.526  0.00  0.00    +0.000 S 
BRANCH  17  20
ATOM     20  C   UNL     1       0.544  10.029  20.536  0.00  0.00    +0.000 A 
ATOM     21  C   UNL     1      -0.424  10.166  21.538  0.00  0.00    +0.000 A 
ATOM     22  C   UNL     1      -0.966  11.419  21.828  0.00  0.00    +0.000 A 
ATOM     23  C   UNL     1      -0.556  12.541  21.109  0.00  0.00    +0.000 A 
ATOM     24  C   UNL     1       0.387  12.411  20.094  0.00  0.00    +0.000 A 
ATOM     25  C   UNL     1       0.936  11.162  19.807  0.00  0.00    +0.000 A 
ENDBRANCH  17  20
ENDBRANCH  13  15
TORSDOF 2
ENDMDL
MODEL 9
REMARK VINA RESULT:      -7.9      1.289      1.728
REMARK  Name = 
REMARK  3 active torsions:
REMARK  status: ('A' for Active; 'I' for Inactive)
REMARK    1  A    between atoms: C_1  and  C_2
REMARK    2  A    between atoms: C_13  and  C_14
REMARK    3  A    between atoms: C_16  and  C_17
REMARK                            x       y       z     vdW  Elec       q    Type
REMARK                         _______ _______ _______ _____ _____    ______ ____
ROOT
ATOM      1  C   UNL     1       6.591   4.678  13.502  0.00  0.00    +0.000 C 
ATOM      2  C   UNL     1       6.530   4.860  14.983  0.00  0.00    +0.000 A 
ATOM      3  C   UNL     1       5.523   5.521  15.577  0.00  0.00    +0.000 A 
ATOM      4  C   UNL     1       5.525   5.682  17.008  0.00  0.00    +0.000 A 
ATOM      5  C   UNL     1       6.519   5.195  17.749  0.00  0.00    +0.000 A 
ATOM      6  C   UNL     1       7.631   4.460  17.137  0.00  0.00    +0.000 A 
ATOM      7  O   UNL     1       8.565   3.987  17.768  0.00  0.00    +0.000 OA
ATOM      8  N   UNL     1       7.548   4.339  15.758  0.00  0.00    +0.000 N 
ATOM      9  C   UNL     1       6.246   5.578  19.127  0.00  0.00    +0.000 C 
ATOM     10  O   UNL     1       6.928   5.318  20.105  0.00  0.00    +0.000 OA
ATOM     11  O   UNL     1       5.080   6.316  19.174  0.00  0.00    +0.000 OA
ATOM     12  C   UNL     1       4.615   6.368  17.865  0.00  0.00    +0.000 C 
ATOM     13  C   UNL     1       3.481   6.954  17.454  0.00  0.00    +0.000 C 
ATOM     14  H   UNL     1       8.317   3.843  15.320  0.00  0.00    +0.000 HD
ENDROOT
BRANCH  13  15
ATOM     15  C   UNL     1       2.610   7.695  18.291  0.00  0.00    +0.000 A 
ATOM     16  C   UNL     1       1.918   8.865  18.051  0.00  0.00    +0.000 A 
ATOM     17  C   UNL     1       1.102   9.282  19.149  0.00  0.00    +0.000 A 
ATOM     18  C   UNL     1       1.200   8.391  20.198  0.00  0.00    +0.000 A 
ATOM     19  S   UNL     1       2.235   7.081  19.852  0.00  0.00    +0.000 S 
BRANCH  17  20
ATOM     20  C   UNL     1       0.291  10.492  19.220  0.00  0.00    +0.000 A 
ATOM     21  C   UNL     1       0.592  11.515  20.127  0.00  0.00    +0.000 A 
ATOM     22  C   UNL     1      -0.175  12.682  20.153  0.00  0.00    +0.000 A 
ATOM     23  C   UNL     1      -1.255  12.827  19.285  0.00  0.00    +0.000 A 
ATOM     24  C   UNL     1      -1.578  11.805  18.397  0.00  0.00    +0.000 A 
ATOM     25  C   UNL     1      -0.810  10.641  18.364  0.00  0.00    +0.000 A 
ENDBRANCH  17  20
ENDBRANCH  13  15
TORSDOF 2
ENDMDL
