MODEL 1
REMARK VINA RESULT:      -7.2      0.000      0.000
REMARK  Name = 
REMARK  11 active torsions:
REMARK  status: ('A' for Active; 'I' for Inactive)
REMARK    1  A    between atoms: C_1  and  C_2
REMARK    2  A    between atoms: C_2  and  C_3
REMARK    3  A    between atoms: C_3  and  C_4
REMARK    4  A    between atoms: C_3  and  C_6
REMARK    5  A    between atoms: C_4  and  C_5
REMARK    6  A    between atoms: C_6  and  N_7
REMARK    7  A    between atoms: N_13  and  C_14
REMARK    8  A    between atoms: C_16  and  C_17
REMARK    9  A    between atoms: C_18  and  O_19
REMARK   10  A    between atoms: O_19  and  C_20
REMARK   11  A    between atoms: C_22  and  C_23
REMARK                            x       y       z     vdW  Elec       q    Type
REMARK                         _______ _______ _______ _____ _____    ______ ____
ROOT
ATOM      1  N   UNL     1       6.123   4.871  15.990  0.00  0.00    +0.000 N 
ATOM      2  C   UNL     1       6.966   5.895  16.364  0.00  0.00    +0.000 A 
ATOM      3  C   UNL     1       6.531   6.885  17.161  0.00  0.00    +0.000 A 
ATOM      4 CL   UNL     1       7.633   8.123  17.656  0.00  0.00    +0.000 Cl
ATOM      5  N   UNL     1       5.239   7.041  17.565  0.00  0.00    +0.000 NA
ATOM      6  C   UNL     1       4.381   6.106  17.254  0.00  0.00    +0.000 A 
ATOM      7  N   UNL     1       3.012   6.206  17.464  0.00  0.00    +0.000 N 
ATOM      8  C   UNL     1       4.847   4.808  16.546  0.00  0.00    +0.000 A 
ATOM      9  O   UNL     1       4.069   3.863  16.490  0.00  0.00    +0.000 OA
ATOM     10  H   UNL     1       2.506   5.346  17.264  0.00  0.00    +0.000 HD
ENDROOT
BRANCH   7  11
ATOM     11  C   UNL     1       2.398   6.951  18.497  0.00  0.00    +0.000 A 
ATOM     12  C   UNL     1       1.936   8.252  18.262  0.00  0.00    +0.000 A 
ATOM     13  C   UNL     1       1.468   9.068  19.303  0.00  0.00    +0.000 A 
ATOM     14  C   UNL     1       1.140  10.505  19.013  0.00  0.00    +0.000 C 
ATOM     15  C   UNL     1       1.384   8.552  20.602  0.00  0.00    +0.000 A 
ATOM     16  C   UNL     1       1.794   7.238  20.841  0.00  0.00    +0.000 A 
ATOM     17  C   UNL     1       2.332   6.443  19.808  0.00  0.00    +0.000 A 
ATOM     18  C   UNL     1       2.837   5.065  20.148  0.00  0.00    +0.000 C 
BRANCH  15  19
ATOM     19  O   UNL     1       0.918   9.420  21.554  0.00  0.00    +0.000 OA
ATOM     20  C   UNL     1      -0.301   9.092  22.206  0.00  0.00    +0.000 C 
ENDBRANCH  15  19
ENDBRANCH   7  11
BRANCH   1  21
ATOM     21  C   UNL     1       6.553   3.855  15.024  0.00  0.00    +0.000 C 
BRANCH  21  22
ATOM     22  C   UNL     1       6.547   4.393  13.567  0.00  0.00    +0.000 C 
BRANCH  22  24
ATOM     23  C   UNL     1       7.901   5.767  11.870  0.00  0.00    +0.000 C 
ATOM     24  C   UNL     1       7.888   5.086  13.230  0.00  0.00    +0.000 C 
ENDBRANCH  22  24
BRANCH  22  25
ATOM     25  C   UNL     1       6.125   3.316  12.544  0.00  0.00    +0.000 C 
ATOM     26  C   UNL     1       4.740   3.476  11.934  0.00  0.00    +0.000 C 
ENDBRANCH  22  25
ENDBRANCH  21  22
ENDBRANCH   1  21
TORSDOF 6
ENDMDL
MODEL 2
REMARK VINA RESULT:      -6.8      0.512      1.375
REMARK  Name = 
REMARK  11 active torsions:
REMARK  status: ('A' for Active; 'I' for Inactive)
REMARK    1  A    between atoms: C_1  and  C_2
REMARK    2  A    between atoms: C_2  and  C_3
REMARK    3  A    between atoms: C_3  and  C_4
REMARK    4  A    between atoms: C_3  and  C_6
REMARK    5  A    between atoms: C_4  and  C_5
REMARK    6  A    between atoms: C_6  and  N_7
REMARK    7  A    between atoms: N_13  and  C_14
REMARK    8  A    between atoms: C_16  and  C_17
REMARK    9  A    between atoms: C_18  and  O_19
REMARK   10  A    between atoms: O_19  and  C_20
REMARK   11  A    between atoms: C_22  and  C_23
REMARK                            x       y       z     vdW  Elec       q    Type
REMARK                         _______ _______ _______ _____ _____    ______ ____
ROOT
ATOM      1  N   UNL     1       5.923   4.641  16.288  0.00  0.00    +0.000 N 
ATOM      2  C   UNL     1       6.790   5.682  16.538  0.00  0.00    +0.000 A 
ATOM      3  C   UNL     1       6.379   6.772  17.209  0.00  0.00    +0.000 A 
ATOM      4 CL   UNL     1       7.511   8.033  17.555  0.00  0.00    +0.000 Cl
ATOM      5  N   UNL     1       5.091   7.006  17.587  0.00  0.00    +0.000 NA
ATOM      6  C   UNL     1       4.211   6.061  17.388  0.00  0.00    +0.000 A 
ATOM      7  N   UNL     1       2.844   6.218  17.581  0.00  0.00    +0.000 N 
ATOM      8  C   UNL     1       4.645   4.676  16.844  0.00  0.00    +0.000 A 
ATOM      9  O   UNL     1       3.845   3.750  16.899  0.00  0.00    +0.000 OA
ATOM     10  H   UNL     1       2.318   5.353  17.485  0.00  0.00    +0.000 HD
ENDROOT
BRANCH   7  11
ATOM     11  C   UNL     1       2.249   7.097  18.515  0.00  0.00    +0.000 A 
ATOM     12  C   UNL     1       1.915   8.407  18.151  0.00  0.00    +0.000 A 
ATOM     13  C   UNL     1       1.470   9.344  19.095  0.00  0.00    +0.000 A 
ATOM     14  C   UNL     1       1.284  10.774  18.673  0.00  0.00    +0.000 C 
ATOM     15  C   UNL     1       1.278   8.950  20.425  0.00  0.00    +0.000 A 
ATOM     16  C   UNL     1       1.559   7.631  20.791  0.00  0.00    +0.000 A 
ATOM     17  C   UNL     1       2.075   6.708  19.857  0.00  0.00    +0.000 A 
ATOM     18  C   UNL     1       2.439   5.327  20.334  0.00  0.00    +0.000 C 
BRANCH  15  19
ATOM     19  O   UNL     1       0.844   9.931  21.276  0.00  0.00    +0.000 OA
ATOM     20  C   UNL     1       0.036   9.540  22.378  0.00  0.00    +0.000 C 
ENDBRANCH  15  19
ENDBRANCH   7  11
BRANCH   1  21
ATOM     21  C   UNL     1       6.328   3.506  15.453  0.00  0.00    +0.000 C 
BRANCH  21  22
ATOM     22  C   UNL     1       6.511   3.910  13.964  0.00  0.00    +0.000 C 
BRANCH  22  24
ATOM     23  C   UNL     1       5.026   3.257  11.972  0.00  0.00    +0.000 C 
ATOM     24  C   UNL     1       5.143   4.058  13.260  0.00  0.00    +0.000 C 
ENDBRANCH  22  24
BRANCH  22  25
ATOM     25  C   UNL     1       7.436   5.135  13.797  0.00  0.00    +0.000 C 
ATOM     26  C   UNL     1       7.882   5.450  12.377  0.00  0.00    +0.000 C 
ENDBRANCH  22  25
ENDBRANCH  21  22
ENDBRANCH   1  21
TORSDOF 6
ENDMDL
MODEL 3
REMARK VINA RESULT:      -6.8      4.358      9.486
REMARK  Name = 
REMARK  11 active torsions:
REMARK  status: ('A' for Active; 'I' for Inactive)
REMARK    1  A    between atoms: C_1  and  C_2
REMARK    2  A    between atoms: C_2  and  C_3
REMARK    3  A    between atoms: C_3  and  C_4
REMARK    4  A    between atoms: C_3  and  C_6
REMARK    5  A    between atoms: C_4  and  C_5
REMARK    6  A    between atoms: C_6  and  N_7
REMARK    7  A    between atoms: N_13  and  C_14
REMARK    8  A    between atoms: C_16  and  C_17
REMARK    9  A    between atoms: C_18  and  O_19
REMARK   10  A    between atoms: O_19  and  C_20
REMARK   11  A    between atoms: C_22  and  C_23
REMARK                            x       y       z     vdW  Elec       q    Type
REMARK                         _______ _______ _______ _____ _____    ______ ____
ROOT
ATOM      1  N   UNL     1       0.280  11.153  20.790  0.00  0.00    +0.000 N 
ATOM      2  C   UNL     1      -0.435  11.138  19.611  0.00  0.00    +0.000 A 
ATOM      3  C   UNL     1      -0.399  10.066  18.801  0.00  0.00    +0.000 A 
ATOM      4 CL   UNL     1      -1.354  10.059  17.360  0.00  0.00    +0.000 Cl
ATOM      5  N   UNL     1       0.407   8.983  18.988  0.00  0.00    +0.000 NA
ATOM      6  C   UNL     1       1.111   8.924  20.088  0.00  0.00    +0.000 A 
ATOM      7  N   UNL     1       2.083   7.963  20.337  0.00  0.00    +0.000 N 
ATOM      8  C   UNL     1       0.946   9.998  21.193  0.00  0.00    +0.000 A 
ATOM      9  O   UNL     1       1.435   9.781  22.295  0.00  0.00    +0.000 OA
ATOM     10  H   UNL     1       2.456   7.999  21.283  0.00  0.00    +0.000 HD
ENDROOT
BRANCH   7  11
ATOM     11  C   UNL     1       2.079   6.647  19.821  0.00  0.00    +0.000 A 
ATOM     12  C   UNL     1       1.542   5.589  20.565  0.00  0.00    +0.000 A 
ATOM     13  C   UNL     1       1.667   4.256  20.147  0.00  0.00    +0.000 A 
ATOM     14  C   UNL     1       1.213   3.158  21.066  0.00  0.00    +0.000 C 
ATOM     15  C   UNL     1       2.274   3.969  18.917  0.00  0.00    +0.000 A 
ATOM     16  C   UNL     1       2.768   5.020  18.141  0.00  0.00    +0.000 A 
ATOM     17  C   UNL     1       2.708   6.354  18.595  0.00  0.00    +0.000 A 
ATOM     18  C   UNL     1       3.337   7.432  17.751  0.00  0.00    +0.000 C 
BRANCH  15  19
ATOM     19  O   UNL     1       2.352   2.641  18.592  0.00  0.00    +0.000 OA
ATOM     20  C   UNL     1       3.643   2.056  18.508  0.00  0.00    +0.000 C 
ENDBRANCH  15  19
ENDBRANCH   7  11
BRANCH   1  21
ATOM     21  C   UNL     1       0.343  12.363  21.617  0.00  0.00    +0.000 C 
BRANCH  21  22
ATOM     22  C   UNL     1      -1.066  12.845  22.059  0.00  0.00    +0.000 C 
BRANCH  22  24
ATOM     23  C   UNL     1      -3.111  12.221  23.484  0.00  0.00    +0.000 C 
ATOM     24  C   UNL     1      -1.684  11.872  23.089  0.00  0.00    +0.000 C 
ENDBRANCH  22  24
BRANCH  22  25
ATOM     25  C   UNL     1      -1.067  14.321  22.513  0.00  0.00    +0.000 C 
ATOM     26  C   UNL     1       0.253  15.065  22.379  0.00  0.00    +0.000 C 
ENDBRANCH  22  25
ENDBRANCH  21  22
ENDBRANCH   1  21
TORSDOF 6
ENDMDL
MODEL 4
REMARK VINA RESULT:      -6.5      3.479      4.946
REMARK  Name = 
REMARK  11 active torsions:
REMARK  status: ('A' for Active; 'I' for Inactive)
REMARK    1  A    between atoms: C_1  and  C_2
REMARK    2  A    between atoms: C_2  and  C_3
REMARK    3  A    between atoms: C_3  and  C_4
REMARK    4  A    between atoms: C_3  and  C_6
REMARK    5  A    between atoms: C_4  and  C_5
REMARK    6  A    between atoms: C_6  and  N_7
REMARK    7  A    between atoms: N_13  and  C_14
REMARK    8  A    between atoms: C_16  and  C_17
REMARK    9  A    between atoms: C_18  and  O_19
REMARK   10  A    between atoms: O_19  and  C_20
REMARK   11  A    between atoms: C_22  and  C_23
REMARK                            x       y       z     vdW  Elec       q    Type
REMARK                         _______ _______ _______ _____ _____    ______ ____
ROOT
ATOM      1  N   UNL     1       4.167   6.359  18.126  0.00  0.00    +0.000 N 
ATOM      2  C   UNL     1       3.624   5.679  19.195  0.00  0.00    +0.000 A 
ATOM      3  C   UNL     1       2.495   6.110  19.780  0.00  0.00    +0.000 A 
ATOM      4 CL   UNL     1       1.811   5.199  21.081  0.00  0.00    +0.000 Cl
ATOM      5  N   UNL     1       1.863   7.279  19.475  0.00  0.00    +0.000 NA
ATOM      6  C   UNL     1       2.317   7.977  18.468  0.00  0.00    +0.000 A 
ATOM      7  N   UNL     1       1.873   9.253  18.143  0.00  0.00    +0.000 N 
ATOM      8  C   UNL     1       3.466   7.433  17.581  0.00  0.00    +0.000 A 
ATOM      9  O   UNL     1       3.698   7.995  16.517  0.00  0.00    +0.000 OA
ATOM     10  H   UNL     1       2.254   9.605  17.268  0.00  0.00    +0.000 HD
ENDROOT
BRANCH   7  11
ATOM     11  C   UNL     1       0.573   9.750  18.391  0.00  0.00    +0.000 A 
ATOM     12  C   UNL     1      -0.458   9.549  17.464  0.00  0.00    +0.000 A 
ATOM     13  C   UNL     1      -1.710  10.164  17.610  0.00  0.00    +0.000 A 
ATOM     14  C   UNL     1      -2.717  10.040  16.501  0.00  0.00    +0.000 C 
ATOM     15  C   UNL     1      -1.974  10.938  18.747  0.00  0.00    +0.000 A 
ATOM     16  C   UNL     1      -0.971  11.104  19.705  0.00  0.00    +0.000 A 
ATOM     17  C   UNL     1       0.312  10.546  19.523  0.00  0.00    +0.000 A 
ATOM     18  C   UNL     1       1.375  10.835  20.550  0.00  0.00    +0.000 C 
BRANCH  15  19
ATOM     19  O   UNL     1      -3.222  11.499  18.803  0.00  0.00    +0.000 OA
ATOM     20  C   UNL     1      -3.454  12.499  19.785  0.00  0.00    +0.000 C 
ENDBRANCH  15  19
ENDBRANCH   7  11
BRANCH   1  21
ATOM     21  C   UNL     1       5.462   5.966  17.561  0.00  0.00    +0.000 C 
BRANCH  21  22
ATOM     22  C   UNL     1       6.646   6.704  18.242  0.00  0.00    +0.000 C 
BRANCH  22  24
ATOM     23  C   UNL     1       7.818   4.459  17.805  0.00  0.00    +0.000 C 
ATOM     24  C   UNL     1       7.743   5.705  18.675  0.00  0.00    +0.000 C 
ENDBRANCH  22  24
BRANCH  22  25
ATOM     25  C   UNL     1       7.173   7.881  17.393  0.00  0.00    +0.000 C 
ATOM     26  C   UNL     1       8.229   8.760  18.045  0.00  0.00    +0.000 C 
ENDBRANCH  22  25
ENDBRANCH  21  22
ENDBRANCH   1  21
TORSDOF 6
ENDMDL
MODEL 5
REMARK VINA RESULT:      -6.4      2.667      4.204
REMARK  Name = 
REMARK  11 active torsions:
REMARK  status: ('A' for Active; 'I' for Inactive)
REMARK    1  A    between atoms: C_1  and  C_2
REMARK    2  A    between atoms: C_2  and  C_3
REMARK    3  A    between atoms: C_3  and  C_4
REMARK    4  A    between atoms: C_3  and  C_6
REMARK    5  A    between atoms: C_4  and  C_5
REMARK    6  A    between atoms: C_6  and  N_7
REMARK    7  A    between atoms: N_13  and  C_14
REMARK    8  A    between atoms: C_16  and  C_17
REMARK    9  A    between atoms: C_18  and  O_19
REMARK   10  A    between atoms: O_19  and  C_20
REMARK   11  A    between atoms: C_22  and  C_23
REMARK                            x       y       z     vdW  Elec       q    Type
REMARK                         _______ _______ _______ _____ _____    ______ ____
ROOT
ATOM      1  N   UNL     1       3.479   4.358  18.298  0.00  0.00    +0.000 N 
ATOM      2  C   UNL     1       2.800   3.668  19.278  0.00  0.00    +0.000 A 
ATOM      3  C   UNL     1       2.010   4.315  20.152  0.00  0.00    +0.000 A 
ATOM      4 CL   UNL     1       1.127   3.409  21.331  0.00  0.00    +0.000 Cl
ATOM      5  N   UNL     1       1.900   5.670  20.236  0.00  0.00    +0.000 NA
ATOM      6  C   UNL     1       2.512   6.394  19.336  0.00  0.00    +0.000 A 
ATOM      7  N   UNL     1       2.613   7.778  19.389  0.00  0.00    +0.000 N 
ATOM      8  C   UNL     1       3.245   5.724  18.146  0.00  0.00    +0.000 A 
ATOM      9  O   UNL     1       3.594   6.426  17.205  0.00  0.00    +0.000 OA
ATOM     10  H   UNL     1       3.027   8.188  18.555  0.00  0.00    +0.000 HD
ENDROOT
BRANCH   7  11
ATOM     11  C   UNL     1       1.668   8.642  19.987  0.00  0.00    +0.000 A 
ATOM     12  C   UNL     1       1.492   8.658  21.377  0.00  0.00    +0.000 A 
ATOM     13  C   UNL     1       0.457   9.387  21.980  0.00  0.00    +0.000 A 
ATOM     14  C   UNL     1       0.221   9.234  23.457  0.00  0.00    +0.000 C 
ATOM     15  C   UNL     1      -0.381  10.184  21.191  0.00  0.00    +0.000 A 
ATOM     16  C   UNL     1      -0.184  10.218  19.809  0.00  0.00    +0.000 A 
ATOM     17  C   UNL     1       0.810   9.429  19.194  0.00  0.00    +0.000 A 
ATOM     18  C   UNL     1       0.915   9.443  17.691  0.00  0.00    +0.000 C 
BRANCH  15  19
ATOM     19  O   UNL     1      -1.363  10.859  21.866  0.00  0.00    +0.000 OA
ATOM     20  C   UNL     1      -1.263  12.273  21.940  0.00  0.00    +0.000 C 
ENDBRANCH  15  19
ENDBRANCH   7  11
BRANCH   1  21
ATOM     21  C   UNL     1       4.435   3.676  17.420  0.00  0.00    +0.000 C 
BRANCH  21  22
ATOM     22  C   UNL     1       5.660   4.570  17.082  0.00  0.00    +0.000 C 
BRANCH  22  24
ATOM     23  C   UNL     1       7.499   5.911  18.274  0.00  0.00    +0.000 C 
ATOM     24  C   UNL     1       6.621   4.669  18.289  0.00  0.00    +0.000 C 
ENDBRANCH  22  24
BRANCH  22  25
ATOM     25  C   UNL     1       6.350   4.149  15.766  0.00  0.00    +0.000 C 
ATOM     26  C   UNL     1       5.656   4.570  14.480  0.00  0.00    +0.000 C 
ENDBRANCH  22  25
ENDBRANCH  21  22
ENDBRANCH   1  21
TORSDOF 6
ENDMDL
MODEL 6
REMARK VINA RESULT:      -6.4      4.393      9.347
REMARK  Name = 
REMARK  11 active torsions:
REMARK  status: ('A' for Active; 'I' for Inactive)
REMARK    1  A    between atoms: C_1  and  C_2
REMARK    2  A    between atoms: C_2  and  C_3
REMARK    3  A    between atoms: C_3  and  C_4
REMARK    4  A    between atoms: C_3  and  C_6
REMARK    5  A    between atoms: C_4  and  C_5
REMARK    6  A    between atoms: C_6  and  N_7
REMARK    7  A    between atoms: N_13  and  C_14
REMARK    8  A    between atoms: C_16  and  C_17
REMARK    9  A    between atoms: C_18  and  O_19
REMARK   10  A    between atoms: O_19  and  C_20
REMARK   11  A    between atoms: C_22  and  C_23
REMARK                            x       y       z     vdW  Elec       q    Type
REMARK                         _______ _______ _______ _____ _____    ______ ____
ROOT
ATOM      1  N   UNL     1       0.239  11.244  20.831  0.00  0.00    +0.000 N 
ATOM      2  C   UNL     1      -0.448  11.238  19.636  0.00  0.00    +0.000 A 
ATOM      3  C   UNL     1      -0.400  10.171  18.822  0.00  0.00    +0.000 A 
ATOM      4 CL   UNL     1      -1.322  10.177  17.358  0.00  0.00    +0.000 Cl
ATOM      5  N   UNL     1       0.395   9.082  19.021  0.00  0.00    +0.000 NA
ATOM      6  C   UNL     1       1.073   9.012  20.136  0.00  0.00    +0.000 A 
ATOM      7  N   UNL     1       2.033   8.045  20.402  0.00  0.00    +0.000 N 
ATOM      8  C   UNL     1       0.889  10.082  21.243  0.00  0.00    +0.000 A 
ATOM      9  O   UNL     1       1.351   9.856  22.355  0.00  0.00    +0.000 OA
ATOM     10  H   UNL     1       2.385   8.073  21.357  0.00  0.00    +0.000 HD
ENDROOT
BRANCH   7  11
ATOM     11  C   UNL     1       2.034   6.731  19.879  0.00  0.00    +0.000 A 
ATOM     12  C   UNL     1       1.528   5.663  20.630  0.00  0.00    +0.000 A 
ATOM     13  C   UNL     1       1.659   4.334  20.202  0.00  0.00    +0.000 A 
ATOM     14  C   UNL     1       1.243   3.225  21.126  0.00  0.00    +0.000 C 
ATOM     15  C   UNL     1       2.240   4.061  18.957  0.00  0.00    +0.000 A 
ATOM     16  C   UNL     1       2.702   5.122  18.174  0.00  0.00    +0.000 A 
ATOM     17  C   UNL     1       2.636   6.453  18.637  0.00  0.00    +0.000 A 
ATOM     18  C   UNL     1       3.231   7.543  17.784  0.00  0.00    +0.000 C 
BRANCH  15  19
ATOM     19  O   UNL     1       2.327   2.736  18.623  0.00  0.00    +0.000 OA
ATOM     20  C   UNL     1       3.621   2.189  18.418  0.00  0.00    +0.000 C 
ENDBRANCH  15  19
ENDBRANCH   7  11
BRANCH   1  21
ATOM     21  C   UNL     1       0.291  12.448  21.666  0.00  0.00    +0.000 C 
BRANCH  21  22
ATOM     22  C   UNL     1      -1.117  12.877  22.163  0.00  0.00    +0.000 C 
BRANCH  22  24
ATOM     23  C   UNL     1      -1.460  14.930  20.656  0.00  0.00    +0.000 C 
ATOM     24  C   UNL     1      -1.930  13.530  21.022  0.00  0.00    +0.000 C 
ENDBRANCH  22  24
BRANCH  22  25
ATOM     25  C   UNL     1      -1.861  11.732  22.884  0.00  0.00    +0.000 C 
ATOM     26  C   UNL     1      -3.121  12.123  23.642  0.00  0.00    +0.000 C 
ENDBRANCH  22  25
ENDBRANCH  21  22
ENDBRANCH   1  21
TORSDOF 6
ENDMDL
MODEL 7
REMARK VINA RESULT:      -6.4      4.343      8.889
REMARK  Name = 
REMARK  11 active torsions:
REMARK  status: ('A' for Active; 'I' for Inactive)
REMARK    1  A    between atoms: C_1  and  C_2
REMARK    2  A    between atoms: C_2  and  C_3
REMARK    3  A    between atoms: C_3  and  C_4
REMARK    4  A    between atoms: C_3  and  C_6
REMARK    5  A    between atoms: C_4  and  C_5
REMARK    6  A    between atoms: C_6  and  N_7
REMARK    7  A    between atoms: N_13  and  C_14
REMARK    8  A    between atoms: C_16  and  C_17
REMARK    9  A    between atoms: C_18  and  O_19
REMARK   10  A    between atoms: O_19  and  C_20
REMARK   11  A    between atoms: C_22  and  C_23
REMARK                            x       y       z     vdW  Elec       q    Type
REMARK                         _______ _______ _______ _____ _____    ______ ____
ROOT
ATOM      1  N   UNL     1       0.130  11.327  20.899  0.00  0.00    +0.000 N 
ATOM      2  C   UNL     1      -0.596  11.287  19.729  0.00  0.00    +0.000 A 
ATOM      3  C   UNL     1      -0.547  10.211  18.927  0.00  0.00    +0.000 A 
ATOM      4 CL   UNL     1      -1.518  10.172  17.496  0.00  0.00    +0.000 Cl
ATOM      5  N   UNL     1       0.283   9.146  19.113  0.00  0.00    +0.000 NA
ATOM      6  C   UNL     1       1.001   9.110  20.205  0.00  0.00    +0.000 A 
ATOM      7  N   UNL     1       1.995   8.172  20.450  0.00  0.00    +0.000 N 
ATOM      8  C   UNL     1       0.825  10.189  21.303  0.00  0.00    +0.000 A 
ATOM      9  O   UNL     1       1.330   9.991  22.402  0.00  0.00    +0.000 OA
ATOM     10  H   UNL     1       2.378   8.223  21.392  0.00  0.00    +0.000 HD
ENDROOT
BRANCH   7  11
ATOM     11  C   UNL     1       2.014   6.852  19.944  0.00  0.00    +0.000 A 
ATOM     12  C   UNL     1       1.556   5.782  20.723  0.00  0.00    +0.000 A 
ATOM     13  C   UNL     1       1.709   4.451  20.308  0.00  0.00    +0.000 A 
ATOM     14  C   UNL     1       1.346   3.344  21.258  0.00  0.00    +0.000 C 
ATOM     15  C   UNL     1       2.260   4.175  19.050  0.00  0.00    +0.000 A 
ATOM     16  C   UNL     1       2.673   5.236  18.241  0.00  0.00    +0.000 A 
ATOM     17  C   UNL     1       2.588   6.572  18.689  0.00  0.00    +0.000 A 
ATOM     18  C   UNL     1       3.130   7.664  17.805  0.00  0.00    +0.000 C 
BRANCH  15  19
ATOM     19  O   UNL     1       2.371   2.848  18.731  0.00  0.00    +0.000 OA
ATOM     20  C   UNL     1       2.885   2.518  17.449  0.00  0.00    +0.000 C 
ENDBRANCH  15  19
ENDBRANCH   7  11
BRANCH   1  21
ATOM     21  C   UNL     1       0.177  12.544  21.716  0.00  0.00    +0.000 C 
BRANCH  21  22
ATOM     22  C   UNL     1       0.893  13.713  20.985  0.00  0.00    +0.000 C 
BRANCH  22  24
ATOM     23  C   UNL     1       0.973  16.281  20.989  0.00  0.00    +0.000 C 
ATOM     24  C   UNL     1       0.811  15.014  21.815  0.00  0.00    +0.000 C 
ENDBRANCH  22  24
BRANCH  22  25
ATOM     25  C   UNL     1       2.325  13.342  20.544  0.00  0.00    +0.000 C 
ATOM     26  C   UNL     1       2.602  13.399  19.049  0.00  0.00    +0.000 C 
ENDBRANCH  22  25
ENDBRANCH  21  22
ENDBRANCH   1  21
TORSDOF 6
ENDMDL
MODEL 8
REMARK VINA RESULT:      -6.4      3.829      8.230
REMARK  Name = 
REMARK  11 active torsions:
REMARK  status: ('A' for Active; 'I' for Inactive)
REMARK    1  A    between atoms: C_1  and  C_2
REMARK    2  A    between atoms: C_2  and  C_3
REMARK    3  A    between atoms: C_3  and  C_4
REMARK    4  A    between atoms: C_3  and  C_6
REMARK    5  A    between atoms: C_4  and  C_5
REMARK    6  A    between atoms: C_6  and  N_7
REMARK    7  A    between atoms: N_13  and  C_14
REMARK    8  A    between atoms: C_16  and  C_17
REMARK    9  A    between atoms: C_18  and  O_19
REMARK   10  A    between atoms: O_19  and  C_20
REMARK   11  A    between atoms: C_22  and  C_23
REMARK                            x       y       z     vdW  Elec       q    Type
REMARK                         _______ _______ _______ _____ _____    ______ ____
ROOT
ATOM      1  N   UNL     1       0.869  10.779  19.351  0.00  0.00    +0.000 N 
ATOM      2  C   UNL     1       0.699  10.550  20.700  0.00  0.00    +0.000 A 
ATOM      3  C   UNL     1       1.049   9.373  21.246  0.00  0.00    +0.000 A 
ATOM      4 CL   UNL     1       0.877   9.144  22.951  0.00  0.00    +0.000 Cl
ATOM      5  N   UNL     1       1.471   8.288  20.538  0.00  0.00    +0.000 NA
ATOM      6  C   UNL     1       1.660   8.429  19.252  0.00  0.00    +0.000 A 
ATOM      7  N   UNL     1       1.937   7.378  18.387  0.00  0.00    +0.000 N 
ATOM      8  C   UNL     1       1.517   9.818  18.578  0.00  0.00    +0.000 A 
ATOM      9  O   UNL     1       1.934   9.957  17.434  0.00  0.00    +0.000 OA
ATOM     10  H   UNL     1       2.163   7.678  17.442  0.00  0.00    +0.000 HD
ENDROOT
BRANCH   7  11
ATOM     11  C   UNL     1       2.618   6.190  18.740  0.00  0.00    +0.000 A 
ATOM     12  C   UNL     1       2.099   5.332  19.717  0.00  0.00    +0.000 A 
ATOM     13  C   UNL     1       2.828   4.234  20.196  0.00  0.00    +0.000 A 
ATOM     14  C   UNL     1       2.285   3.448  21.356  0.00  0.00    +0.000 C 
ATOM     15  C   UNL     1       4.076   3.933  19.637  0.00  0.00    +0.000 A 
ATOM     16  C   UNL     1       4.584   4.752  18.626  0.00  0.00    +0.000 A 
ATOM     17  C   UNL     1       3.883   5.898  18.194  0.00  0.00    +0.000 A 
ATOM     18  C   UNL     1       4.524   6.789  17.162  0.00  0.00    +0.000 C 
BRANCH  15  19
ATOM     19  O   UNL     1       4.715   2.845  20.168  0.00  0.00    +0.000 OA
ATOM     20  C   UNL     1       4.532   1.592  19.524  0.00  0.00    +0.000 C 
ENDBRANCH  15  19
ENDBRANCH   7  11
BRANCH   1  21
ATOM     21  C   UNL     1       0.378  12.012  18.728  0.00  0.00    +0.000 C 
BRANCH  21  22
ATOM     22  C   UNL     1      -1.172  12.045  18.635  0.00  0.00    +0.000 C 
BRANCH  22  24
ATOM     23  C   UNL     1      -1.932  10.200  17.015  0.00  0.00    +0.000 C 
ATOM     24  C   UNL     1      -1.745  10.619  18.466  0.00  0.00    +0.000 C 
ENDBRANCH  22  24
BRANCH  22  25
ATOM     25  C   UNL     1      -1.815  12.844  19.789  0.00  0.00    +0.000 C 
ATOM     26  C   UNL     1      -3.294  12.592  20.038  0.00  0.00    +0.000 C 
ENDBRANCH  22  25
ENDBRANCH  21  22
ENDBRANCH   1  21
TORSDOF 6
ENDMDL
MODEL 9
REMARK VINA RESULT:      -6.3      4.379      9.577
REMARK  Name = 
REMARK  11 active torsions:
REMARK  status: ('A' for Active; 'I' for Inactive)
REMARK    1  A    between atoms: C_1  and  C_2
REMARK    2  A    between atoms: C_2  and  C_3
REMARK    3  A    between atoms: C_3  and  C_4
REMARK    4  A    between atoms: C_3  and  C_6
REMARK    5  A    between atoms: C_4  and  C_5
REMARK    6  A    between atoms: C_6  and  N_7
REMARK    7  A    between atoms: N_13  and  C_14
REMARK    8  A    between atoms: C_16  and  C_17
REMARK    9  A    between atoms: C_18  and  O_19
REMARK   10  A    between atoms: O_19  and  C_20
REMARK   11  A    between atoms: C_22  and  C_23
REMARK                            x       y       z     vdW  Elec       q    Type
REMARK                         _______ _______ _______ _____ _____    ______ ____
ROOT
ATOM      1  N   UNL     1      -0.034  11.385  20.701  0.00  0.00    +0.000 N 
ATOM      2  C   UNL     1      -0.718  11.286  19.509  0.00  0.00    +0.000 A 
ATOM      3  C   UNL     1      -0.600  10.192  18.738  0.00  0.00    +0.000 A 
ATOM      4 CL   UNL     1      -1.519  10.077  17.277  0.00  0.00    +0.000 Cl
ATOM      5  N   UNL     1       0.264   9.166  18.980  0.00  0.00    +0.000 NA
ATOM      6  C   UNL     1       0.945   9.186  20.096  0.00  0.00    +0.000 A 
ATOM      7  N   UNL     1       1.967   8.296  20.399  0.00  0.00    +0.000 N 
ATOM      8  C   UNL     1       0.691  10.286  21.158  0.00  0.00    +0.000 A 
ATOM      9  O   UNL     1       1.165  10.136  22.278  0.00  0.00    +0.000 OA
ATOM     10  H   UNL     1       2.315   8.386  21.351  0.00  0.00    +0.000 HD
ENDROOT
BRANCH   7  11
ATOM     11  C   UNL     1       2.054   6.965  19.930  0.00  0.00    +0.000 A 
ATOM     12  C   UNL     1       1.617   5.897  20.724  0.00  0.00    +0.000 A 
ATOM     13  C   UNL     1       1.836   4.563  20.350  0.00  0.00    +0.000 A 
ATOM     14  C   UNL     1       1.490   3.468  21.318  0.00  0.00    +0.000 C 
ATOM     15  C   UNL     1       2.435   4.279  19.116  0.00  0.00    +0.000 A 
ATOM     16  C   UNL     1       2.829   5.335  18.291  0.00  0.00    +0.000 A 
ATOM     17  C   UNL     1       2.676   6.676  18.700  0.00  0.00    +0.000 A 
ATOM     18  C   UNL     1       3.200   7.767  17.803  0.00  0.00    +0.000 C 
BRANCH  15  19
ATOM     19  O   UNL     1       2.609   2.950  18.836  0.00  0.00    +0.000 OA
ATOM     20  C   UNL     1       2.590   2.553  17.472  0.00  0.00    +0.000 C 
ENDBRANCH  15  19
ENDBRANCH   7  11
BRANCH   1  21
ATOM     21  C   UNL     1      -0.063  12.623  21.486  0.00  0.00    +0.000 C 
BRANCH  21  22
ATOM     22  C   UNL     1      -1.477  12.926  22.052  0.00  0.00    +0.000 C 
BRANCH  22  24
ATOM     23  C   UNL     1      -1.945  14.779  23.769  0.00  0.00    +0.000 C 
ATOM     24  C   UNL     1      -1.395  13.382  23.527  0.00  0.00    +0.000 C 
ENDBRANCH  22  24
BRANCH  22  25
ATOM     25  C   UNL     1      -2.281  13.882  21.145  0.00  0.00    +0.000 C 
ATOM     26  C   UNL     1      -3.627  13.370  20.656  0.00  0.00    +0.000 C 
ENDBRANCH  22  25
ENDBRANCH  21  22
ENDBRANCH   1  21
TORSDOF 6
ENDMDL
