MODEL 1
REMARK VINA RESULT:      -6.8      0.000      0.000
REMARK  Name = 
REMARK  6 active torsions:
REMARK  status: ('A' for Active; 'I' for Inactive)
REMARK    1  A    between atoms: C_1  and  N_2
REMARK    2  A    between atoms: N_2  and  C_3
REMARK    3  A    between atoms: N_2  and  N_4
REMARK    4  A    between atoms: N_5  and  C_6
REMARK    5  A    between atoms: C_9  and  N_10
REMARK    6  A    between atoms: C_14  and  C_15
REMARK                            x       y       z     vdW  Elec       q    Type
REMARK                         _______ _______ _______ _____ _____    ______ ____
ROOT
ATOM      1  C   UNL     1       5.478   4.809  17.981  0.00  0.00    +0.000 A 
ATOM      2  C   UNL     1       4.754   4.282  16.886  0.00  0.00    +0.000 A 
ATOM      3  C   UNL     1       5.274   4.275  15.591  0.00  0.00    +0.000 A 
ATOM      4  C   UNL     1       6.534   4.827  15.362  0.00  0.00    +0.000 A 
ATOM      5  C   UNL     1       7.263   5.387  16.419  0.00  0.00    +0.000 A 
ATOM      6  C   UNL     1       6.740   5.389  17.730  0.00  0.00    +0.000 A 
ENDROOT
BRANCH   6   7
ATOM      7  C   UNL     1       7.599   6.025  18.774  0.00  0.00    +0.000 C 
ATOM      8  N   UNL     1       7.806   5.375  19.953  0.00  0.00    +0.000 N 
ATOM      9  O   UNL     1       8.113   7.123  18.585  0.00  0.00    +0.000 OA
ATOM     10  H   UNL     1       7.464   4.439  20.134  0.00  0.00    +0.000 HD
ATOM     11  H   UNL     1       8.420   5.809  20.632  0.00  0.00    +0.000 HD
ENDBRANCH   6   7
BRANCH   4  12
ATOM     12  N   UNL     1       7.089   4.821  14.002  0.00  0.00    +0.000 N 
ATOM     13  O   UNL     1       8.022   5.600  13.760  0.00  0.00    +0.000 OA
ATOM     14  O   UNL     1       6.592   4.042  13.179  0.00  0.00    +0.000 OA
ENDBRANCH   4  12
BRANCH   1  16
ATOM     15  N   UNL     1       3.834   4.125  19.259  0.00  0.00    +0.000 NA
ATOM     16  N   UNL     1       4.886   4.797  19.267  0.00  0.00    +0.000 NA
BRANCH  15  18
ATOM     17  C   UNL     1       2.818   2.865  20.973  0.00  0.00    +0.000 C 
ATOM     18  N   UNL     1       3.107   4.181  20.422  0.00  0.00    +0.000 N 
ATOM     19  C   UNL     1       2.098   5.214  20.609  0.00  0.00    +0.000 C 
ENDBRANCH  15  18
ENDBRANCH   1  16
TORSDOF 4
ENDMDL
MODEL 2
REMARK VINA RESULT:      -6.8      3.353      5.791
REMARK  Name = 
REMARK  6 active torsions:
REMARK  status: ('A' for Active; 'I' for Inactive)
REMARK    1  A    between atoms: C_1  and  N_2
REMARK    2  A    between atoms: N_2  and  C_3
REMARK    3  A    between atoms: N_2  and  N_4
REMARK    4  A    between atoms: N_5  and  C_6
REMARK    5  A    between atoms: C_9  and  N_10
REMARK    6  A    between atoms: C_14  and  C_15
REMARK                            x       y       z     vdW  Elec       q    Type
REMARK                         _______ _______ _______ _____ _____    ______ ____
ROOT
ATOM      1  C   UNL     1       4.405   4.140  17.328  0.00  0.00    +0.000 A 
ATOM      2  C   UNL     1       3.097   3.608  17.238  0.00  0.00    +0.000 A 
ATOM      3  C   UNL     1       2.397   3.176  18.365  0.00  0.00    +0.000 A 
ATOM      4  C   UNL     1       3.011   3.246  19.615  0.00  0.00    +0.000 A 
ATOM      5  C   UNL     1       4.318   3.736  19.734  0.00  0.00    +0.000 A 
ATOM      6  C   UNL     1       5.025   4.179  18.595  0.00  0.00    +0.000 A 
ENDROOT
BRANCH   6   7
ATOM      7  C   UNL     1       6.415   4.668  18.840  0.00  0.00    +0.000 C 
ATOM      8  N   UNL     1       7.416   4.273  18.006  0.00  0.00    +0.000 N 
ATOM      9  O   UNL     1       6.665   5.414  19.782  0.00  0.00    +0.000 OA
ATOM     10  H   UNL     1       7.255   3.717  17.175  0.00  0.00    +0.000 HD
ATOM     11  H   UNL     1       8.344   4.644  18.170  0.00  0.00    +0.000 HD
ENDBRANCH   6   7
BRANCH   4  12
ATOM     12  N   UNL     1       2.278   2.795  20.806  0.00  0.00    +0.000 N 
ATOM     13  O   UNL     1       2.942   2.518  21.815  0.00  0.00    +0.000 OA
ATOM     14  O   UNL     1       1.046   2.716  20.730  0.00  0.00    +0.000 OA
ENDBRANCH   4  12
BRANCH   1  16
ATOM     15  N   UNL     1       5.572   3.565  15.565  0.00  0.00    +0.000 NA
ATOM     16  N   UNL     1       5.065   4.548  16.143  0.00  0.00    +0.000 NA
BRANCH  15  18
ATOM     17  C   UNL     1       7.132   5.099  14.685  0.00  0.00    +0.000 C 
ATOM     18  N   UNL     1       6.364   3.877  14.488  0.00  0.00    +0.000 N 
ATOM     19  C   UNL     1       5.912   3.590  13.134  0.00  0.00    +0.000 C 
ENDBRANCH  15  18
ENDBRANCH   1  16
TORSDOF 4
ENDMDL
MODEL 3
REMARK VINA RESULT:      -6.6      0.821      1.113
REMARK  Name = 
REMARK  6 active torsions:
REMARK  status: ('A' for Active; 'I' for Inactive)
REMARK    1  A    between atoms: C_1  and  N_2
REMARK    2  A    between atoms: N_2  and  C_3
REMARK    3  A    between atoms: N_2  and  N_4
REMARK    4  A    between atoms: N_5  and  C_6
REMARK    5  A    between atoms: C_9  and  N_10
REMARK    6  A    between atoms: C_14  and  C_15
REMARK                            x       y       z     vdW  Elec       q    Type
REMARK                         _______ _______ _______ _____ _____    ______ ____
ROOT
ATOM      1  C   UNL     1       5.394   4.530  18.151  0.00  0.00    +0.000 A 
ATOM      2  C   UNL     1       4.702   4.058  17.012  0.00  0.00    +0.000 A 
ATOM      3  C   UNL     1       5.245   4.142  15.730  0.00  0.00    +0.000 A 
ATOM      4  C   UNL     1       6.497   4.731  15.560  0.00  0.00    +0.000 A 
ATOM      5  C   UNL     1       7.195   5.240  16.663  0.00  0.00    +0.000 A 
ATOM      6  C   UNL     1       6.648   5.150  17.961  0.00  0.00    +0.000 A 
ENDROOT
BRANCH   6   7
ATOM      7  C   UNL     1       7.474   5.738  19.058  0.00  0.00    +0.000 C 
ATOM      8  N   UNL     1       8.183   6.877  18.821  0.00  0.00    +0.000 N 
ATOM      9  O   UNL     1       7.527   5.208  20.164  0.00  0.00    +0.000 OA
ATOM     10  H   UNL     1       8.122   7.393  17.951  0.00  0.00    +0.000 HD
ATOM     11  H   UNL     1       8.708   7.278  19.588  0.00  0.00    +0.000 HD
ENDBRANCH   6   7
BRANCH   4  12
ATOM     12  N   UNL     1       7.077   4.821  14.212  0.00  0.00    +0.000 N 
ATOM     13  O   UNL     1       6.593   4.096  13.332  0.00  0.00    +0.000 OA
ATOM     14  O   UNL     1       8.013   5.610  14.038  0.00  0.00    +0.000 OA
ENDBRANCH   4  12
BRANCH   1  16
ATOM     15  N   UNL     1       3.560   4.190  19.302  0.00  0.00    +0.000 NA
ATOM     16  N   UNL     1       4.780   4.427  19.423  0.00  0.00    +0.000 NA
BRANCH  15  18
ATOM     17  C   UNL     1       2.643   2.904  21.052  0.00  0.00    +0.000 C 
ATOM     18  N   UNL     1       2.849   4.225  20.475  0.00  0.00    +0.000 N 
ATOM     19  C   UNL     1       1.785   5.202  20.661  0.00  0.00    +0.000 C 
ENDBRANCH  15  18
ENDBRANCH   1  16
TORSDOF 4
ENDMDL
MODEL 4
REMARK VINA RESULT:      -6.6      3.366      5.812
REMARK  Name = 
REMARK  6 active torsions:
REMARK  status: ('A' for Active; 'I' for Inactive)
REMARK    1  A    between atoms: C_1  and  N_2
REMARK    2  A    between atoms: N_2  and  C_3
REMARK    3  A    between atoms: N_2  and  N_4
REMARK    4  A    between atoms: N_5  and  C_6
REMARK    5  A    between atoms: C_9  and  N_10
REMARK    6  A    between atoms: C_14  and  C_15
REMARK                            x       y       z     vdW  Elec       q    Type
REMARK                         _______ _______ _______ _____ _____    ______ ____
ROOT
ATOM      1  C   UNL     1       4.205   4.528  17.478  0.00  0.00    +0.000 A 
ATOM      2  C   UNL     1       2.857   4.103  17.423  0.00  0.00    +0.000 A 
ATOM      3  C   UNL     1       2.202   3.578  18.538  0.00  0.00    +0.000 A 
ATOM      4  C   UNL     1       2.902   3.442  19.736  0.00  0.00    +0.000 A 
ATOM      5  C   UNL     1       4.248   3.821  19.815  0.00  0.00    +0.000 A 
ATOM      6  C   UNL     1       4.910   4.359  18.689  0.00  0.00    +0.000 A 
ENDROOT
BRANCH   6   7
ATOM      7  C   UNL     1       6.347   4.715  18.887  0.00  0.00    +0.000 C 
ATOM      8  N   UNL     1       7.273   4.269  17.992  0.00  0.00    +0.000 N 
ATOM      9  O   UNL     1       6.704   5.397  19.843  0.00  0.00    +0.000 OA
ATOM     10  H   UNL     1       7.026   3.762  17.151  0.00  0.00    +0.000 HD
ATOM     11  H   UNL     1       8.236   4.551  18.126  0.00  0.00    +0.000 HD
ENDBRANCH   6   7
BRANCH   4  12
ATOM     12  N   UNL     1       2.218   2.892  20.914  0.00  0.00    +0.000 N 
ATOM     13  O   UNL     1       0.980   2.850  20.890  0.00  0.00    +0.000 OA
ATOM     14  O   UNL     1       2.917   2.506  21.859  0.00  0.00    +0.000 OA
ENDBRANCH   4  12
BRANCH   1  16
ATOM     15  N   UNL     1       5.129   4.109  15.535  0.00  0.00    +0.000 NA
ATOM     16  N   UNL     1       4.815   5.039  16.307  0.00  0.00    +0.000 NA
BRANCH  15  18
ATOM     17  C   UNL     1       5.645   3.639  13.283  0.00  0.00    +0.000 C 
ATOM     18  N   UNL     1       5.864   4.493  14.442  0.00  0.00    +0.000 N 
ATOM     19  C   UNL     1       7.199   5.049  14.611  0.00  0.00    +0.000 C 
ENDBRANCH  15  18
ENDBRANCH   1  16
TORSDOF 4
ENDMDL
MODEL 5
REMARK VINA RESULT:      -6.6      2.262      3.067
REMARK  Name = 
REMARK  6 active torsions:
REMARK  status: ('A' for Active; 'I' for Inactive)
REMARK    1  A    between atoms: C_1  and  N_2
REMARK    2  A    between atoms: N_2  and  C_3
REMARK    3  A    between atoms: N_2  and  N_4
REMARK    4  A    between atoms: N_5  and  C_6
REMARK    5  A    between atoms: C_9  and  N_10
REMARK    6  A    between atoms: C_14  and  C_15
REMARK                            x       y       z     vdW  Elec       q    Type
REMARK                         _______ _______ _______ _____ _____    ______ ____
ROOT
ATOM      1  C   UNL     1       3.615   4.417  17.799  0.00  0.00    +0.000 A 
ATOM      2  C   UNL     1       4.492   3.608  17.039  0.00  0.00    +0.000 A 
ATOM      3  C   UNL     1       5.649   4.122  16.452  0.00  0.00    +0.000 A 
ATOM      4  C   UNL     1       5.940   5.478  16.598  0.00  0.00    +0.000 A 
ATOM      5  C   UNL     1       5.075   6.314  17.316  0.00  0.00    +0.000 A 
ATOM      6  C   UNL     1       3.907   5.793  17.915  0.00  0.00    +0.000 A 
ENDROOT
BRANCH   6   7
ATOM      7  C   UNL     1       3.054   6.779  18.644  0.00  0.00    +0.000 C 
ATOM      8  N   UNL     1       2.680   6.515  19.927  0.00  0.00    +0.000 N 
ATOM      9  O   UNL     1       2.684   7.816  18.103  0.00  0.00    +0.000 OA
ATOM     10  H   UNL     1       3.013   5.710  20.444  0.00  0.00    +0.000 HD
ATOM     11  H   UNL     1       2.131   7.213  20.414  0.00  0.00    +0.000 HD
ENDBRANCH   6   7
BRANCH   4  12
ATOM     12  N   UNL     1       7.159   6.025  15.986  0.00  0.00    +0.000 N 
ATOM     13  O   UNL     1       7.564   5.493  14.942  0.00  0.00    +0.000 OA
ATOM     14  O   UNL     1       7.708   6.981  16.548  0.00  0.00    +0.000 OA
ENDBRANCH   4  12
BRANCH   1  16
ATOM     15  N   UNL     1       2.706   3.316  19.461  0.00  0.00    +0.000 NA
ATOM     16  N   UNL     1       2.450   3.836  18.355  0.00  0.00    +0.000 NA
BRANCH  15  18
ATOM     17  C   UNL     1       0.566   2.398  19.085  0.00  0.00    +0.000 C 
ATOM     18  N   UNL     1       1.675   2.594  20.009  0.00  0.00    +0.000 N 
ATOM     19  C   UNL     1       1.344   2.738  21.419  0.00  0.00    +0.000 C 
ENDBRANCH  15  18
ENDBRANCH   1  16
TORSDOF 4
ENDMDL
MODEL 6
REMARK VINA RESULT:      -6.6      2.389      3.111
REMARK  Name = 
REMARK  6 active torsions:
REMARK  status: ('A' for Active; 'I' for Inactive)
REMARK    1  A    between atoms: C_1  and  N_2
REMARK    2  A    between atoms: N_2  and  C_3
REMARK    3  A    between atoms: N_2  and  N_4
REMARK    4  A    between atoms: N_5  and  C_6
REMARK    5  A    between atoms: C_9  and  N_10
REMARK    6  A    between atoms: C_14  and  C_15
REMARK                            x       y       z     vdW  Elec       q    Type
REMARK                         _______ _______ _______ _____ _____    ______ ____
ROOT
ATOM      1  C   UNL     1       3.409   4.667  17.693  0.00  0.00    +0.000 A 
ATOM      2  C   UNL     1       4.275   3.793  16.995  0.00  0.00    +0.000 A 
ATOM      3  C   UNL     1       5.496   4.224  16.474  0.00  0.00    +0.000 A 
ATOM      4  C   UNL     1       5.864   5.561  16.621  0.00  0.00    +0.000 A 
ATOM      5  C   UNL     1       5.014   6.460  17.278  0.00  0.00    +0.000 A 
ATOM      6  C   UNL     1       3.781   6.023  17.811  0.00  0.00    +0.000 A 
ENDROOT
BRANCH   6   7
ATOM      7  C   UNL     1       2.951   7.071  18.477  0.00  0.00    +0.000 C 
ATOM      8  N   UNL     1       2.575   6.898  19.775  0.00  0.00    +0.000 N 
ATOM      9  O   UNL     1       2.601   8.080  17.872  0.00  0.00    +0.000 OA
ATOM     10  H   UNL     1       2.893   6.121  20.342  0.00  0.00    +0.000 HD
ATOM     11  H   UNL     1       2.043   7.637  20.217  0.00  0.00    +0.000 HD
ENDBRANCH   6   7
BRANCH   4  12
ATOM     12  N   UNL     1       7.149   6.022  16.077  0.00  0.00    +0.000 N 
ATOM     13  O   UNL     1       7.691   6.990  16.630  0.00  0.00    +0.000 OA
ATOM     14  O   UNL     1       7.611   5.418  15.101  0.00  0.00    +0.000 OA
ENDBRANCH   4  12
BRANCH   1  16
ATOM     15  N   UNL     1       2.312   3.747  19.352  0.00  0.00    +0.000 NA
ATOM     16  N   UNL     1       2.179   4.169  18.185  0.00  0.00    +0.000 NA
BRANCH  15  18
ATOM     17  C   UNL     1       1.343   2.789  21.277  0.00  0.00    +0.000 C 
ATOM     18  N   UNL     1       1.211   3.105  19.861  0.00  0.00    +0.000 N 
ATOM     19  C   UNL     1       0.465   2.163  19.040  0.00  0.00    +0.000 C 
ENDBRANCH  15  18
ENDBRANCH   1  16
TORSDOF 4
ENDMDL
MODEL 7
REMARK VINA RESULT:      -6.4      2.118      2.966
REMARK  Name = 
REMARK  6 active torsions:
REMARK  status: ('A' for Active; 'I' for Inactive)
REMARK    1  A    between atoms: C_1  and  N_2
REMARK    2  A    between atoms: N_2  and  C_3
REMARK    3  A    between atoms: N_2  and  N_4
REMARK    4  A    between atoms: N_5  and  C_6
REMARK    5  A    between atoms: C_9  and  N_10
REMARK    6  A    between atoms: C_14  and  C_15
REMARK                            x       y       z     vdW  Elec       q    Type
REMARK                         _______ _______ _______ _____ _____    ______ ____
ROOT
ATOM      1  C   UNL     1       3.813   5.269  17.640  0.00  0.00    +0.000 A 
ATOM      2  C   UNL     1       4.468   6.361  17.025  0.00  0.00    +0.000 A 
ATOM      3  C   UNL     1       5.387   6.184  15.990  0.00  0.00    +0.000 A 
ATOM      4  C   UNL     1       5.689   4.891  15.563  0.00  0.00    +0.000 A 
ATOM      5  C   UNL     1       5.083   3.786  16.174  0.00  0.00    +0.000 A 
ATOM      6  C   UNL     1       4.148   3.964  17.218  0.00  0.00    +0.000 A 
ENDROOT
BRANCH   6   7
ATOM      7  C   UNL     1       3.577   2.714  17.802  0.00  0.00    +0.000 C 
ATOM      8  N   UNL     1       4.255   2.073  18.795  0.00  0.00    +0.000 N 
ATOM      9  O   UNL     1       2.512   2.257  17.399  0.00  0.00    +0.000 OA
ATOM     10  H   UNL     1       5.101   2.442  19.212  0.00  0.00    +0.000 HD
ATOM     11  H   UNL     1       3.833   1.247  19.201  0.00  0.00    +0.000 HD
ENDBRANCH   6   7
BRANCH   4  12
ATOM     12  N   UNL     1       6.653   4.697  14.471  0.00  0.00    +0.000 N 
ATOM     13  O   UNL     1       7.672   5.401  14.475  0.00  0.00    +0.000 OA
ATOM     14  O   UNL     1       6.389   3.845  13.614  0.00  0.00    +0.000 OA
ENDBRANCH   4  12
BRANCH   1  16
ATOM     15  N   UNL     1       3.329   5.033  19.764  0.00  0.00    +0.000 NA
ATOM     16  N   UNL     1       2.903   5.517  18.695  0.00  0.00    +0.000 NA
BRANCH  15  18
ATOM     17  C   UNL     1       2.103   3.773  21.336  0.00  0.00    +0.000 C 
ATOM     18  N   UNL     1       2.445   5.089  20.813  0.00  0.00    +0.000 N 
ATOM     19  C   UNL     1       1.403   6.105  20.845  0.00  0.00    +0.000 C 
ENDBRANCH  15  18
ENDBRANCH   1  16
TORSDOF 4
ENDMDL
MODEL 8
REMARK VINA RESULT:      -6.4      0.843      1.197
REMARK  Name = 
REMARK  6 active torsions:
REMARK  status: ('A' for Active; 'I' for Inactive)
REMARK    1  A    between atoms: C_1  and  N_2
REMARK    2  A    between atoms: N_2  and  C_3
REMARK    3  A    between atoms: N_2  and  N_4
REMARK    4  A    between atoms: N_5  and  C_6
REMARK    5  A    between atoms: C_9  and  N_10
REMARK    6  A    between atoms: C_14  and  C_15
REMARK                            x       y       z     vdW  Elec       q    Type
REMARK                         _______ _______ _______ _____ _____    ______ ____
ROOT
ATOM      1  C   UNL     1       5.161   4.732  17.977  0.00  0.00    +0.000 A 
ATOM      2  C   UNL     1       4.499   4.347  16.788  0.00  0.00    +0.000 A 
ATOM      3  C   UNL     1       5.135   4.377  15.546  0.00  0.00    +0.000 A 
ATOM      4  C   UNL     1       6.454   4.824  15.468  0.00  0.00    +0.000 A 
ATOM      5  C   UNL     1       7.127   5.244  16.622  0.00  0.00    +0.000 A 
ATOM      6  C   UNL     1       6.487   5.208  17.880  0.00  0.00    +0.000 A 
ENDROOT
BRANCH   6   7
ATOM      7  C   UNL     1       7.296   5.694  19.038  0.00  0.00    +0.000 C 
ATOM      8  N   UNL     1       8.115   6.770  18.873  0.00  0.00    +0.000 N 
ATOM      9  O   UNL     1       7.238   5.135  20.129  0.00  0.00    +0.000 OA
ATOM     10  H   UNL     1       8.151   7.309  18.017  0.00  0.00    +0.000 HD
ATOM     11  H   UNL     1       8.628   7.103  19.680  0.00  0.00    +0.000 HD
ENDBRANCH   6   7
BRANCH   4  12
ATOM     12  N   UNL     1       7.130   4.855  14.164  0.00  0.00    +0.000 N 
ATOM     13  O   UNL     1       8.083   5.637  14.032  0.00  0.00    +0.000 OA
ATOM     14  O   UNL     1       6.707   4.104  13.277  0.00  0.00    +0.000 OA
ENDBRANCH   4  12
BRANCH   1  16
ATOM     15  N   UNL     1       3.603   3.778  19.187  0.00  0.00    +0.000 NA
ATOM     16  N   UNL     1       4.454   4.692  19.203  0.00  0.00    +0.000 NA
BRANCH  15  18
ATOM     17  C   UNL     1       2.385   5.089  20.723  0.00  0.00    +0.000 C 
ATOM     18  N   UNL     1       2.762   3.757  20.272  0.00  0.00    +0.000 N 
ATOM     19  C   UNL     1       2.904   2.728  21.293  0.00  0.00    +0.000 C 
ENDBRANCH  15  18
ENDBRANCH   1  16
TORSDOF 4
ENDMDL
MODEL 9
REMARK VINA RESULT:      -6.4      1.531      1.732
REMARK  Name = 
REMARK  6 active torsions:
REMARK  status: ('A' for Active; 'I' for Inactive)
REMARK    1  A    between atoms: C_1  and  N_2
REMARK    2  A    between atoms: N_2  and  C_3
REMARK    3  A    between atoms: N_2  and  N_4
REMARK    4  A    between atoms: N_5  and  C_6
REMARK    5  A    between atoms: C_9  and  N_10
REMARK    6  A    between atoms: C_14  and  C_15
REMARK                            x       y       z     vdW  Elec       q    Type
REMARK                         _______ _______ _______ _____ _____    ______ ____
ROOT
ATOM      1  C   UNL     1       5.208   4.078  16.421  0.00  0.00    +0.000 A 
ATOM      2  C   UNL     1       4.784   3.960  15.077  0.00  0.00    +0.000 A 
ATOM      3  C   UNL     1       5.614   4.299  14.008  0.00  0.00    +0.000 A 
ATOM      4  C   UNL     1       6.892   4.792  14.269  0.00  0.00    +0.000 A 
ATOM      5  C   UNL     1       7.331   4.953  15.590  0.00  0.00    +0.000 A 
ATOM      6  C   UNL     1       6.494   4.604  16.672  0.00  0.00    +0.000 A 
ENDROOT
BRANCH   6   7
ATOM      7  C   UNL     1       7.062   4.831  18.035  0.00  0.00    +0.000 C 
ATOM      8  N   UNL     1       6.319   5.494  18.964  0.00  0.00    +0.000 N 
ATOM      9  O   UNL     1       8.187   4.433  18.324  0.00  0.00    +0.000 OA
ATOM     10  H   UNL     1       5.362   5.782  18.801  0.00  0.00    +0.000 HD
ATOM     11  H   UNL     1       6.710   5.605  19.892  0.00  0.00    +0.000 HD
ENDBRANCH   6   7
BRANCH   4  12
ATOM     12  N   UNL     1       7.772   5.148  13.148  0.00  0.00    +0.000 N 
ATOM     13  O   UNL     1       8.713   5.920  13.382  0.00  0.00    +0.000 OA
ATOM     14  O   UNL     1       7.521   4.660  12.040  0.00  0.00    +0.000 OA
ENDBRANCH   4  12
BRANCH   1  16
ATOM     15  N   UNL     1       3.503   4.658  17.669  0.00  0.00    +0.000 NA
ATOM     16  N   UNL     1       4.311   3.730  17.459  0.00  0.00    +0.000 NA
BRANCH  15  18
ATOM     17  C   UNL     1       1.480   3.731  18.449  0.00  0.00    +0.000 C 
ATOM     18  N   UNL     1       2.691   4.478  18.761  0.00  0.00    +0.000 N 
ATOM     19  C   UNL     1       2.586   5.514  19.778  0.00  0.00    +0.000 C 
ENDBRANCH  15  18
ENDBRANCH   1  16
TORSDOF 4
ENDMDL
