MODEL 1
REMARK VINA RESULT:      -7.7      0.000      0.000
REMARK  Name = 
REMARK  5 active torsions:
REMARK  status: ('A' for Active; 'I' for Inactive)
REMARK    1  A    between atoms: C_5  and  C_6
REMARK    2  A    between atoms: C_10  and  N_11
REMARK    3  A    between atoms: N_15  and  C_16
REMARK    4  A    between atoms: C_16  and  C_17
REMARK    5  A    between atoms: C_17  and  N_18
REMARK                            x       y       z     vdW  Elec       q    Type
REMARK                         _______ _______ _______ _____ _____    ______ ____
ROOT
ATOM      1  O   UNL     1       0.710   3.385  18.059  0.00  0.00    +0.000 OA
ATOM      2  C   UNL     1       1.886   3.244  18.379  0.00  0.00    +0.000 C 
ATOM      3  C   UNL     1       2.431   1.905  18.816  0.00  0.00    +0.000 C 
ATOM      4  S   UNL     1       4.139   2.149  19.306  0.00  0.00    +0.000 S 
ATOM      5  C   UNL     1       4.047   3.954  19.152  0.00  0.00    +0.000 C 
ATOM      6  N   UNL     1       2.828   4.267  18.433  0.00  0.00    +0.000 N 
ENDROOT
BRANCH   5   7
ATOM      7  C   UNL     1       5.347   4.479  18.574  0.00  0.00    +0.000 A 
ATOM      8  C   UNL     1       6.201   5.317  19.312  0.00  0.00    +0.000 A 
ATOM      9  C   UNL     1       7.296   5.944  18.707  0.00  0.00    +0.000 A 
ATOM     10  C   UNL     1       7.558   5.748  17.351  0.00  0.00    +0.000 A 
ATOM     11  C   UNL     1       6.733   4.897  16.610  0.00  0.00    +0.000 A 
ATOM     12  C   UNL     1       5.639   4.256  17.214  0.00  0.00    +0.000 A 
BRANCH  11  13
ATOM     13  N   UNL     1       6.986   4.704  15.177  0.00  0.00    +0.000 N 
ATOM     14  O   UNL     1       7.780   5.477  14.621  0.00  0.00    +0.000 OA
ATOM     15  O   UNL     1       6.390   3.778  14.607  0.00  0.00    +0.000 OA
ENDBRANCH  11  13
ENDBRANCH   5   7
BRANCH   6  16
ATOM     16  C   UNL     1       2.383   5.657  18.302  0.00  0.00    +0.000 C 
BRANCH  16  17
ATOM     17  C   UNL     1       2.451   6.517  19.585  0.00  0.00    +0.000 C 
BRANCH  17  18
ATOM     18  N   UNL     1       2.246   7.975  19.445  0.00  0.00    +0.000 NA
ATOM     19  C   UNL     1       1.983   8.365  18.047  0.00  0.00    +0.000 C 
ATOM     20  C   UNL     1       1.790   9.879  17.915  0.00  0.00    +0.000 C 
ATOM     21  C   UNL     1       0.657  10.368  18.807  0.00  0.00    +0.000 C 
ATOM     22  C   UNL     1       0.875   9.900  20.239  0.00  0.00    +0.000 C 
ATOM     23  C   UNL     1       1.119   8.392  20.302  0.00  0.00    +0.000 C 
ENDBRANCH  17  18
ENDBRANCH  16  17
ENDBRANCH   6  16
TORSDOF 5
ENDMDL
MODEL 2
REMARK VINA RESULT:      -7.5      2.294      4.812
REMARK  Name = 
REMARK  5 active torsions:
REMARK  status: ('A' for Active; 'I' for Inactive)
REMARK    1  A    between atoms: C_5  and  C_6
REMARK    2  A    between atoms: C_10  and  N_11
REMARK    3  A    between atoms: N_15  and  C_16
REMARK    4  A    between atoms: C_16  and  C_17
REMARK    5  A    between atoms: C_17  and  N_18
REMARK                            x       y       z     vdW  Elec       q    Type
REMARK                         _______ _______ _______ _____ _____    ______ ____
ROOT
ATOM      1  O   UNL     1       7.559   6.624  16.715  0.00  0.00    +0.000 OA
ATOM      2  C   UNL     1       6.752   5.717  16.541  0.00  0.00    +0.000 C 
ATOM      3  C   UNL     1       7.052   4.559  15.618  0.00  0.00    +0.000 C 
ATOM      4  S   UNL     1       5.587   3.528  15.550  0.00  0.00    +0.000 S 
ATOM      5  C   UNL     1       4.579   4.694  16.507  0.00  0.00    +0.000 C 
ATOM      6  N   UNL     1       5.481   5.658  17.103  0.00  0.00    +0.000 N 
ENDROOT
BRANCH   5   7
ATOM      7  C   UNL     1       3.668   3.925  17.443  0.00  0.00    +0.000 A 
ATOM      8  C   UNL     1       2.273   3.901  17.267  0.00  0.00    +0.000 A 
ATOM      9  C   UNL     1       1.432   3.349  18.240  0.00  0.00    +0.000 A 
ATOM     10  C   UNL     1       1.969   2.810  19.409  0.00  0.00    +0.000 A 
ATOM     11  C   UNL     1       3.355   2.802  19.587  0.00  0.00    +0.000 A 
ATOM     12  C   UNL     1       4.205   3.345  18.609  0.00  0.00    +0.000 A 
BRANCH  11  13
ATOM     13  N   UNL     1       3.928   2.260  20.825  0.00  0.00    +0.000 N 
ATOM     14  O   UNL     1       5.090   1.830  20.785  0.00  0.00    +0.000 OA
ATOM     15  O   UNL     1       3.214   2.262  21.839  0.00  0.00    +0.000 OA
ENDBRANCH  11  13
ENDBRANCH   5   7
BRANCH   6  16
ATOM     16  C   UNL     1       4.950   6.836  17.796  0.00  0.00    +0.000 C 
BRANCH  16  17
ATOM     17  C   UNL     1       3.583   7.359  17.299  0.00  0.00    +0.000 C 
BRANCH  17  18
ATOM     18  N   UNL     1       2.486   7.456  18.286  0.00  0.00    +0.000 NA
ATOM     19  C   UNL     1       2.799   6.734  19.534  0.00  0.00    +0.000 C 
ATOM     20  C   UNL     1       1.647   6.829  20.539  0.00  0.00    +0.000 C 
ATOM     21  C   UNL     1       1.311   8.280  20.855  0.00  0.00    +0.000 C 
ATOM     22  C   UNL     1       1.068   9.056  19.568  0.00  0.00    +0.000 C 
ATOM     23  C   UNL     1       2.222   8.877  18.582  0.00  0.00    +0.000 C 
ENDBRANCH  17  18
ENDBRANCH  16  17
ENDBRANCH   6  16
TORSDOF 5
ENDMDL
MODEL 3
REMARK VINA RESULT:      -7.5      0.377      1.262
REMARK  Name = 
REMARK  5 active torsions:
REMARK  status: ('A' for Active; 'I' for Inactive)
REMARK    1  A    between atoms: C_5  and  C_6
REMARK    2  A    between atoms: C_10  and  N_11
REMARK    3  A    between atoms: N_15  and  C_16
REMARK    4  A    between atoms: C_16  and  C_17
REMARK    5  A    between atoms: C_17  and  N_18
REMARK                            x       y       z     vdW  Elec       q    Type
REMARK                         _______ _______ _______ _____ _____    ______ ____
ROOT
ATOM      1  O   UNL     1       0.784   3.336  18.119  0.00  0.00    +0.000 OA
ATOM      2  C   UNL     1       1.955   3.244  18.476  0.00  0.00    +0.000 C 
ATOM      3  C   UNL     1       2.506   1.962  19.052  0.00  0.00    +0.000 C 
ATOM      4  S   UNL     1       4.199   2.277  19.552  0.00  0.00    +0.000 S 
ATOM      5  C   UNL     1       4.088   4.057  19.222  0.00  0.00    +0.000 C 
ATOM      6  N   UNL     1       2.882   4.281  18.450  0.00  0.00    +0.000 N 
ENDROOT
BRANCH   5   7
ATOM      7  C   UNL     1       5.394   4.543  18.623  0.00  0.00    +0.000 A 
ATOM      8  C   UNL     1       6.283   5.357  19.347  0.00  0.00    +0.000 A 
ATOM      9  C   UNL     1       7.387   5.951  18.724  0.00  0.00    +0.000 A 
ATOM     10  C   UNL     1       7.623   5.745  17.365  0.00  0.00    +0.000 A 
ATOM     11  C   UNL     1       6.762   4.917  16.638  0.00  0.00    +0.000 A 
ATOM     12  C   UNL     1       5.660   4.308  17.260  0.00  0.00    +0.000 A 
BRANCH  11  13
ATOM     13  N   UNL     1       6.989   4.713  15.202  0.00  0.00    +0.000 N 
ATOM     14  O   UNL     1       6.334   3.827  14.634  0.00  0.00    +0.000 OA
ATOM     15  O   UNL     1       7.822   5.440  14.642  0.00  0.00    +0.000 OA
ENDBRANCH  11  13
ENDBRANCH   5   7
BRANCH   6  16
ATOM     16  C   UNL     1       2.423   5.646  18.176  0.00  0.00    +0.000 C 
BRANCH  16  17
ATOM     17  C   UNL     1       2.532   6.649  19.347  0.00  0.00    +0.000 C 
BRANCH  17  18
ATOM     18  N   UNL     1       1.583   7.784  19.368  0.00  0.00    +0.000 NA
ATOM     19  C   UNL     1       1.494   8.406  20.703  0.00  0.00    +0.000 C 
ATOM     20  C   UNL     1       0.496   9.568  20.713  0.00  0.00    +0.000 C 
ATOM     21  C   UNL     1       0.868  10.621  19.678  0.00  0.00    +0.000 C 
ATOM     22  C   UNL     1       1.045   9.976  18.311  0.00  0.00    +0.000 C 
ATOM     23  C   UNL     1       2.006   8.789  18.374  0.00  0.00    +0.000 C 
ENDBRANCH  17  18
ENDBRANCH  16  17
ENDBRANCH   6  16
TORSDOF 5
ENDMDL
MODEL 4
REMARK VINA RESULT:      -7.4      1.727      2.232
REMARK  Name = 
REMARK  5 active torsions:
REMARK  status: ('A' for Active; 'I' for Inactive)
REMARK    1  A    between atoms: C_5  and  C_6
REMARK    2  A    between atoms: C_10  and  N_11
REMARK    3  A    between atoms: N_15  and  C_16
REMARK    4  A    between atoms: C_16  and  C_17
REMARK    5  A    between atoms: C_17  and  N_18
REMARK                            x       y       z     vdW  Elec       q    Type
REMARK                         _______ _______ _______ _____ _____    ______ ____
ROOT
ATOM      1  O   UNL     1       0.511   4.029  20.279  0.00  0.00    +0.000 OA
ATOM      2  C   UNL     1       1.483   3.638  19.642  0.00  0.00    +0.000 C 
ATOM      3  C   UNL     1       1.568   2.223  19.120  0.00  0.00    +0.000 C 
ATOM      4  S   UNL     1       3.179   2.024  18.357  0.00  0.00    +0.000 S 
ATOM      5  C   UNL     1       3.771   3.647  18.909  0.00  0.00    +0.000 C 
ATOM      6  N   UNL     1       2.618   4.395  19.370  0.00  0.00    +0.000 N 
ENDROOT
BRANCH   5   7
ATOM      7  C   UNL     1       4.614   4.277  17.817  0.00  0.00    +0.000 A 
ATOM      8  C   UNL     1       4.566   3.820  16.488  0.00  0.00    +0.000 A 
ATOM      9  C   UNL     1       5.481   4.280  15.534  0.00  0.00    +0.000 A 
ATOM     10  C   UNL     1       6.464   5.203  15.890  0.00  0.00    +0.000 A 
ATOM     11  C   UNL     1       6.508   5.686  17.201  0.00  0.00    +0.000 A 
ATOM     12  C   UNL     1       5.585   5.238  18.160  0.00  0.00    +0.000 A 
BRANCH  11  13
ATOM     13  N   UNL     1       7.554   6.639  17.591  0.00  0.00    +0.000 N 
ATOM     14  O   UNL     1       7.907   7.484  16.755  0.00  0.00    +0.000 OA
ATOM     15  O   UNL     1       8.022   6.544  18.734  0.00  0.00    +0.000 OA
ENDBRANCH  11  13
ENDBRANCH   5   7
BRANCH   6  16
ATOM     16  C   UNL     1       2.795   5.686  20.042  0.00  0.00    +0.000 C 
BRANCH  16  17
ATOM     17  C   UNL     1       2.457   6.941  19.204  0.00  0.00    +0.000 C 
BRANCH  17  18
ATOM     18  N   UNL     1       2.001   8.146  19.929  0.00  0.00    +0.000 NA
ATOM     19  C   UNL     1       1.265   9.076  19.052  0.00  0.00    +0.000 C 
ATOM     20  C   UNL     1       0.815  10.326  19.813  0.00  0.00    +0.000 C 
ATOM     21  C   UNL     1      -0.048   9.959  21.012  0.00  0.00    +0.000 C 
ATOM     22  C   UNL     1       0.668   8.936  21.883  0.00  0.00    +0.000 C 
ATOM     23  C   UNL     1       1.144   7.739  21.060  0.00  0.00    +0.000 C 
ENDBRANCH  17  18
ENDBRANCH  16  17
ENDBRANCH   6  16
TORSDOF 5
ENDMDL
MODEL 5
REMARK VINA RESULT:      -7.4      3.414      5.001
REMARK  Name = 
REMARK  5 active torsions:
REMARK  status: ('A' for Active; 'I' for Inactive)
REMARK    1  A    between atoms: C_5  and  C_6
REMARK    2  A    between atoms: C_10  and  N_11
REMARK    3  A    between atoms: N_15  and  C_16
REMARK    4  A    between atoms: C_16  and  C_17
REMARK    5  A    between atoms: C_17  and  N_18
REMARK                            x       y       z     vdW  Elec       q    Type
REMARK                         _______ _______ _______ _____ _____    ______ ____
ROOT
ATOM      1  O   UNL     1       5.353   3.776  19.435  0.00  0.00    +0.000 OA
ATOM      2  C   UNL     1       5.788   4.398  18.472  0.00  0.00    +0.000 C 
ATOM      3  C   UNL     1       6.716   5.577  18.647  0.00  0.00    +0.000 C 
ATOM      4  S   UNL     1       7.019   6.272  17.021  0.00  0.00    +0.000 S 
ATOM      5  C   UNL     1       5.805   5.198  16.207  0.00  0.00    +0.000 C 
ATOM      6  N   UNL     1       5.457   4.148  17.144  0.00  0.00    +0.000 N 
ENDROOT
BRANCH   5   7
ATOM      7  C   UNL     1       6.336   4.770  14.853  0.00  0.00    +0.000 A 
ATOM      8  C   UNL     1       7.520   5.308  14.317  0.00  0.00    +0.000 A 
ATOM      9  C   UNL     1       7.896   5.048  12.994  0.00  0.00    +0.000 A 
ATOM     10  C   UNL     1       7.096   4.248  12.180  0.00  0.00    +0.000 A 
ATOM     11  C   UNL     1       5.929   3.685  12.706  0.00  0.00    +0.000 A 
ATOM     12  C   UNL     1       5.552   3.932  14.036  0.00  0.00    +0.000 A 
BRANCH  11  13
ATOM     13  N   UNL     1       5.068   2.861  11.849  0.00  0.00    +0.000 N 
ATOM     14  O   UNL     1       3.953   3.311  11.547  0.00  0.00    +0.000 OA
ATOM     15  O   UNL     1       5.507   1.763  11.477  0.00  0.00    +0.000 OA
ENDBRANCH  11  13
ENDBRANCH   5   7
BRANCH   6  16
ATOM     16  C   UNL     1       4.364   3.220  16.840  0.00  0.00    +0.000 C 
BRANCH  16  17
ATOM     17  C   UNL     1       2.943   3.827  16.816  0.00  0.00    +0.000 C 
BRANCH  17  18
ATOM     18  N   UNL     1       2.053   3.536  17.962  0.00  0.00    +0.000 NA
ATOM     19  C   UNL     1       2.413   2.273  18.635  0.00  0.00    +0.000 C 
ATOM     20  C   UNL     1       1.474   1.977  19.807  0.00  0.00    +0.000 C 
ATOM     21  C   UNL     1       1.477   3.117  20.816  0.00  0.00    +0.000 C 
ATOM     22  C   UNL     1       1.189   4.439  20.119  0.00  0.00    +0.000 C 
ATOM     23  C   UNL     1       2.118   4.653  18.924  0.00  0.00    +0.000 C 
ENDBRANCH  17  18
ENDBRANCH  16  17
ENDBRANCH   6  16
TORSDOF 5
ENDMDL
MODEL 6
REMARK VINA RESULT:      -7.3      3.310      4.991
REMARK  Name = 
REMARK  5 active torsions:
REMARK  status: ('A' for Active; 'I' for Inactive)
REMARK    1  A    between atoms: C_5  and  C_6
REMARK    2  A    between atoms: C_10  and  N_11
REMARK    3  A    between atoms: N_15  and  C_16
REMARK    4  A    between atoms: C_16  and  C_17
REMARK    5  A    between atoms: C_17  and  N_18
REMARK                            x       y       z     vdW  Elec       q    Type
REMARK                         _______ _______ _______ _____ _____    ______ ____
ROOT
ATOM      1  O   UNL     1       6.000   4.221  19.348  0.00  0.00    +0.000 OA
ATOM      2  C   UNL     1       6.268   4.802  18.301  0.00  0.00    +0.000 C 
ATOM      3  C   UNL     1       7.031   6.105  18.294  0.00  0.00    +0.000 C 
ATOM      4  S   UNL     1       7.110   6.676  16.596  0.00  0.00    +0.000 S 
ATOM      5  C   UNL     1       6.001   5.377  15.984  0.00  0.00    +0.000 C 
ATOM      6  N   UNL     1       5.877   4.385  17.033  0.00  0.00    +0.000 N 
ENDROOT
BRANCH   5   7
ATOM      7  C   UNL     1       6.483   4.898  14.629  0.00  0.00    +0.000 A 
ATOM      8  C   UNL     1       7.619   5.447  14.009  0.00  0.00    +0.000 A 
ATOM      9  C   UNL     1       7.942   5.132  12.684  0.00  0.00    +0.000 A 
ATOM     10  C   UNL     1       7.134   4.261  11.952  0.00  0.00    +0.000 A 
ATOM     11  C   UNL     1       6.016   3.686  12.563  0.00  0.00    +0.000 A 
ATOM     12  C   UNL     1       5.694   3.990  13.896  0.00  0.00    +0.000 A 
BRANCH  11  13
ATOM     13  N   UNL     1       5.147   2.787  11.793  0.00  0.00    +0.000 N 
ATOM     14  O   UNL     1       3.999   3.176  11.534  0.00  0.00    +0.000 OA
ATOM     15  O   UNL     1       5.613   1.692  11.448  0.00  0.00    +0.000 OA
ENDBRANCH  11  13
ENDBRANCH   5   7
BRANCH   6  16
ATOM     16  C   UNL     1       4.907   3.294  16.906  0.00  0.00    +0.000 C 
BRANCH  16  17
ATOM     17  C   UNL     1       3.419   3.683  17.071  0.00  0.00    +0.000 C 
BRANCH  17  18
ATOM     18  N   UNL     1       2.871   3.728  18.443  0.00  0.00    +0.000 NA
ATOM     19  C   UNL     1       2.620   5.109  18.895  0.00  0.00    +0.000 C 
ATOM     20  C   UNL     1       2.068   5.140  20.323  0.00  0.00    +0.000 C 
ATOM     21  C   UNL     1       0.790   4.322  20.437  0.00  0.00    +0.000 C 
ATOM     22  C   UNL     1       1.014   2.917  19.896  0.00  0.00    +0.000 C 
ATOM     23  C   UNL     1       1.618   2.949  18.492  0.00  0.00    +0.000 C 
ENDBRANCH  17  18
ENDBRANCH  16  17
ENDBRANCH   6  16
TORSDOF 5
ENDMDL
MODEL 7
REMARK VINA RESULT:      -7.2      2.303      4.665
REMARK  Name = 
REMARK  5 active torsions:
REMARK  status: ('A' for Active; 'I' for Inactive)
REMARK    1  A    between atoms: C_5  and  C_6
REMARK    2  A    between atoms: C_10  and  N_11
REMARK    3  A    between atoms: N_15  and  C_16
REMARK    4  A    between atoms: C_16  and  C_17
REMARK    5  A    between atoms: C_17  and  N_18
REMARK                            x       y       z     vdW  Elec       q    Type
REMARK                         _______ _______ _______ _____ _____    ______ ____
ROOT
ATOM      1  O   UNL     1       6.455   7.721  17.165  0.00  0.00    +0.000 OA
ATOM      2  C   UNL     1       6.053   6.570  17.028  0.00  0.00    +0.000 C 
ATOM      3  C   UNL     1       6.950   5.479  16.494  0.00  0.00    +0.000 C 
ATOM      4  S   UNL     1       5.959   3.993  16.337  0.00  0.00    +0.000 S 
ATOM      5  C   UNL     1       4.408   4.844  16.739  0.00  0.00    +0.000 C 
ATOM      6  N   UNL     1       4.754   6.141  17.283  0.00  0.00    +0.000 N 
ENDROOT
BRANCH   5   7
ATOM      7  C   UNL     1       3.543   3.941  17.596  0.00  0.00    +0.000 A 
ATOM      8  C   UNL     1       2.187   3.713  17.300  0.00  0.00    +0.000 A 
ATOM      9  C   UNL     1       1.357   3.034  18.198  0.00  0.00    +0.000 A 
ATOM     10  C   UNL     1       1.863   2.571  19.412  0.00  0.00    +0.000 A 
ATOM     11  C   UNL     1       3.216   2.765  19.709  0.00  0.00    +0.000 A 
ATOM     12  C   UNL     1       4.057   3.436  18.806  0.00  0.00    +0.000 A 
BRANCH  11  13
ATOM     13  N   UNL     1       3.753   2.302  20.994  0.00  0.00    +0.000 N 
ATOM     14  O   UNL     1       3.013   2.367  21.987  0.00  0.00    +0.000 OA
ATOM     15  O   UNL     1       4.915   1.872  21.011  0.00  0.00    +0.000 OA
ENDBRANCH  11  13
ENDBRANCH   5   7
BRANCH   6  16
ATOM     16  C   UNL     1       3.710   7.136  17.543  0.00  0.00    +0.000 C 
BRANCH  16  17
ATOM     17  C   UNL     1       2.895   6.944  18.843  0.00  0.00    +0.000 C 
BRANCH  17  18
ATOM     18  N   UNL     1       2.287   8.145  19.455  0.00  0.00    +0.000 NA
ATOM     19  C   UNL     1       1.475   8.908  18.488  0.00  0.00    +0.000 C 
ATOM     20  C   UNL     1       0.867  10.158  19.132  0.00  0.00    +0.000 C 
ATOM     21  C   UNL     1       0.019   9.795  20.343  0.00  0.00    +0.000 C 
ATOM     22  C   UNL     1       0.821   8.936  21.310  0.00  0.00    +0.000 C 
ATOM     23  C   UNL     1       1.451   7.738  20.600  0.00  0.00    +0.000 C 
ENDBRANCH  17  18
ENDBRANCH  16  17
ENDBRANCH   6  16
TORSDOF 5
ENDMDL
MODEL 8
REMARK VINA RESULT:      -7.2      2.802      5.976
REMARK  Name = 
REMARK  5 active torsions:
REMARK  status: ('A' for Active; 'I' for Inactive)
REMARK    1  A    between atoms: C_5  and  C_6
REMARK    2  A    between atoms: C_10  and  N_11
REMARK    3  A    between atoms: N_15  and  C_16
REMARK    4  A    between atoms: C_16  and  C_17
REMARK    5  A    between atoms: C_17  and  N_18
REMARK                            x       y       z     vdW  Elec       q    Type
REMARK                         _______ _______ _______ _____ _____    ______ ____
ROOT
ATOM      1  O   UNL     1       2.091   9.619  17.620  0.00  0.00    +0.000 OA
ATOM      2  C   UNL     1       1.963   8.789  18.515  0.00  0.00    +0.000 C 
ATOM      3  C   UNL     1       1.240   9.118  19.799  0.00  0.00    +0.000 C 
ATOM      4  S   UNL     1       1.377   7.691  20.877  0.00  0.00    +0.000 S 
ATOM      5  C   UNL     1       2.515   6.816  19.768  0.00  0.00    +0.000 C 
ATOM      6  N   UNL     1       2.489   7.502  18.492  0.00  0.00    +0.000 N 
ENDROOT
BRANCH   5   7
ATOM      7  C   UNL     1       2.183   5.337  19.767  0.00  0.00    +0.000 A 
ATOM      8  C   UNL     1       0.927   4.859  20.179  0.00  0.00    +0.000 A 
ATOM      9  C   UNL     1       0.698   3.489  20.353  0.00  0.00    +0.000 A 
ATOM     10  C   UNL     1       1.720   2.570  20.121  0.00  0.00    +0.000 A 
ATOM     11  C   UNL     1       2.968   3.028  19.686  0.00  0.00    +0.000 A 
ATOM     12  C   UNL     1       3.200   4.400  19.498  0.00  0.00    +0.000 A 
BRANCH  11  13
ATOM     13  N   UNL     1       4.058   2.070  19.462  0.00  0.00    +0.000 N 
ATOM     14  O   UNL     1       5.079   2.185  20.155  0.00  0.00    +0.000 OA
ATOM     15  O   UNL     1       3.892   1.203  18.592  0.00  0.00    +0.000 OA
ENDBRANCH  11  13
ENDBRANCH   5   7
BRANCH   6  16
ATOM     16  C   UNL     1       3.439   7.136  17.437  0.00  0.00    +0.000 C 
BRANCH  16  17
ATOM     17  C   UNL     1       4.935   7.168  17.828  0.00  0.00    +0.000 C 
BRANCH  17  18
ATOM     18  N   UNL     1       5.878   6.394  16.991  0.00  0.00    +0.000 NA
ATOM     19  C   UNL     1       6.426   5.228  17.709  0.00  0.00    +0.000 C 
ATOM     20  C   UNL     1       7.413   4.447  16.836  0.00  0.00    +0.000 C 
ATOM     21  C   UNL     1       6.760   3.993  15.539  0.00  0.00    +0.000 C 
ATOM     22  C   UNL     1       6.118   5.176  14.829  0.00  0.00    +0.000 C 
ATOM     23  C   UNL     1       5.189   5.950  15.764  0.00  0.00    +0.000 C 
ENDBRANCH  17  18
ENDBRANCH  16  17
ENDBRANCH   6  16
TORSDOF 5
ENDMDL
MODEL 9
REMARK VINA RESULT:      -7.1      3.631      5.108
REMARK  Name = 
REMARK  5 active torsions:
REMARK  status: ('A' for Active; 'I' for Inactive)
REMARK    1  A    between atoms: C_5  and  C_6
REMARK    2  A    between atoms: C_10  and  N_11
REMARK    3  A    between atoms: N_15  and  C_16
REMARK    4  A    between atoms: C_16  and  C_17
REMARK    5  A    between atoms: C_17  and  N_18
REMARK                            x       y       z     vdW  Elec       q    Type
REMARK                         _______ _______ _______ _____ _____    ______ ____
ROOT
ATOM      1  O   UNL     1       7.796   5.346  20.593  0.00  0.00    +0.000 OA
ATOM      2  C   UNL     1       7.556   5.773  19.468  0.00  0.00    +0.000 C 
ATOM      3  C   UNL     1       8.256   6.994  18.922  0.00  0.00    +0.000 C 
ATOM      4  S   UNL     1       7.545   7.352  17.315  0.00  0.00    +0.000 S 
ATOM      5  C   UNL     1       6.250   6.092  17.478  0.00  0.00    +0.000 C 
ATOM      6  N   UNL     1       6.608   5.245  18.598  0.00  0.00    +0.000 N 
ENDROOT
BRANCH   5   7
ATOM      7  C   UNL     1       6.031   5.415  16.139  0.00  0.00    +0.000 A 
ATOM      8  C   UNL     1       5.069   4.404  15.967  0.00  0.00    +0.000 A 
ATOM      9  C   UNL     1       5.006   3.660  14.784  0.00  0.00    +0.000 A 
ATOM     10  C   UNL     1       5.907   3.910  13.748  0.00  0.00    +0.000 A 
ATOM     11  C   UNL     1       6.853   4.929  13.893  0.00  0.00    +0.000 A 
ATOM     12  C   UNL     1       6.913   5.687  15.074  0.00  0.00    +0.000 A 
BRANCH  11  13
ATOM     13  N   UNL     1       7.820   5.183  12.818  0.00  0.00    +0.000 N 
ATOM     14  O   UNL     1       8.787   5.916  13.073  0.00  0.00    +0.000 OA
ATOM     15  O   UNL     1       7.612   4.651  11.719  0.00  0.00    +0.000 OA
ENDBRANCH  11  13
ENDBRANCH   5   7
BRANCH   6  16
ATOM     16  C   UNL     1       5.667   4.236  19.092  0.00  0.00    +0.000 C 
BRANCH  16  17
ATOM     17  C   UNL     1       4.323   4.769  19.639  0.00  0.00    +0.000 C 
BRANCH  17  18
ATOM     18  N   UNL     1       3.214   3.803  19.796  0.00  0.00    +0.000 NA
ATOM     19  C   UNL     1       1.945   4.468  20.147  0.00  0.00    +0.000 C 
ATOM     20  C   UNL     1       0.811   3.453  20.322  0.00  0.00    +0.000 C 
ATOM     21  C   UNL     1       0.623   2.615  19.065  0.00  0.00    +0.000 C 
ATOM     22  C   UNL     1       1.946   1.990  18.646  0.00  0.00    +0.000 C 
ATOM     23  C   UNL     1       3.052   3.041  18.543  0.00  0.00    +0.000 C 
ENDBRANCH  17  18
ENDBRANCH  16  17
ENDBRANCH   6  16
TORSDOF 5
ENDMDL
