MODEL 1
REMARK VINA RESULT:      -8.2      0.000      0.000
REMARK  Name = 
REMARK  5 active torsions:
REMARK  status: ('A' for Active; 'I' for Inactive)
REMARK    1  A    between atoms: C_1  and  S_2
REMARK    2  A    between atoms: S_2  and  C_5
REMARK    3  A    between atoms: C_11  and  C_12
REMARK    4  A    between atoms: C_15  and  N_16
REMARK    5  A    between atoms: N_16  and  C_17
REMARK                            x       y       z     vdW  Elec       q    Type
REMARK                         _______ _______ _______ _____ _____    ______ ____
ROOT
ATOM      1  C   UNL     1       1.559   8.247  19.274  0.00  0.00    +0.000 A 
ATOM      2  C   UNL     1       1.268   8.143  20.621  0.00  0.00    +0.000 A 
ATOM      3  C   UNL     1       1.471   6.909  21.250  0.00  0.00    +0.000 A 
ATOM      4  C   UNL     1       2.016   5.811  20.585  0.00  0.00    +0.000 A 
ATOM      5  N   UNL     1       2.194   4.683  21.279  0.00  0.00    +0.000 NA
ATOM      6  C   UNL     1       2.721   3.612  20.638  0.00  0.00    +0.000 A 
ATOM      7  C   UNL     1       3.134   3.610  19.313  0.00  0.00    +0.000 A 
ATOM      8  C   UNL     1       2.977   4.793  18.566  0.00  0.00    +0.000 A 
ATOM      9  C   UNL     1       2.354   5.919  19.215  0.00  0.00    +0.000 A 
ATOM     10  C   UNL     1       2.021   7.135  18.574  0.00  0.00    +0.000 A 
ENDROOT
BRANCH   7  11
ATOM     11  C   UNL     1       3.673   2.318  18.811  0.00  0.00    +0.000 C 
ATOM     12  N   UNL     1       4.755   1.767  19.443  0.00  0.00    +0.000 N 
ATOM     13  O   UNL     1       3.149   1.742  17.870  0.00  0.00    +0.000 OA
ATOM     14  H   UNL     1       5.028   2.054  20.373  0.00  0.00    +0.000 HD
ATOM     15  H   UNL     1       4.984   0.820  19.158  0.00  0.00    +0.000 HD
ENDBRANCH   7  11
BRANCH   1  17
ATOM     16  C   UNL     1      -0.246   9.881  17.868  0.00  0.00    +0.000 C 
ATOM     17  S   UNL     1       1.440   9.801  18.420  0.00  0.00    +0.000 S 
ATOM     18  O   UNL     1       2.305   9.709  17.261  0.00  0.00    +0.000 OA
ATOM     19  O   UNL     1       1.628  10.847  19.408  0.00  0.00    +0.000 OA
ENDBRANCH   1  17
BRANCH   8  20
ATOM     20  N   UNL     1       3.468   4.850  17.225  0.00  0.00    +0.000 N 
ATOM     21  H   UNL     1       2.735   5.037  16.544  0.00  0.00    +0.000 HD
BRANCH  20  22
ATOM     22  C   UNL     1       4.779   4.939  16.721  0.00  0.00    +0.000 A 
ATOM     23  C   UNL     1       5.077   4.685  15.369  0.00  0.00    +0.000 A 
ATOM     24  C   UNL     1       6.397   4.457  14.935  0.00  0.00    +0.000 A 
ATOM     25  C   UNL     1       7.458   4.536  15.831  0.00  0.00    +0.000 A 
ATOM     26  C   UNL     1       7.167   4.893  17.129  0.00  0.00    +0.000 A 
ATOM     27  C   UNL     1       5.863   5.097  17.576  0.00  0.00    +0.000 A 
ATOM     28  C   UNL     1       5.912   5.344  19.039  0.00  0.00    +0.000 C 
ATOM     29  C   UNL     1       7.393   5.695  19.169  0.00  0.00    +0.000 C 
ATOM     30  O   UNL     1       8.115   5.023  18.114  0.00  0.00    +0.000 OA
ENDBRANCH  20  22
ENDBRANCH   8  20
TORSDOF 4
ENDMDL
MODEL 2
REMARK VINA RESULT:      -8.2      1.028      1.908
REMARK  Name = 
REMARK  5 active torsions:
REMARK  status: ('A' for Active; 'I' for Inactive)
REMARK    1  A    between atoms: C_1  and  S_2
REMARK    2  A    between atoms: S_2  and  C_5
REMARK    3  A    between atoms: C_11  and  C_12
REMARK    4  A    between atoms: C_15  and  N_16
REMARK    5  A    between atoms: N_16  and  C_17
REMARK                            x       y       z     vdW  Elec       q    Type
REMARK                         _______ _______ _______ _____ _____    ______ ____
ROOT
ATOM      1  C   UNL     1       1.519   8.285  19.335  0.00  0.00    +0.000 A 
ATOM      2  C   UNL     1       1.011   8.124  20.611  0.00  0.00    +0.000 A 
ATOM      3  C   UNL     1       1.161   6.879  21.232  0.00  0.00    +0.000 A 
ATOM      4  C   UNL     1       1.859   5.827  20.639  0.00  0.00    +0.000 A 
ATOM      5  N   UNL     1       1.970   4.684  21.324  0.00  0.00    +0.000 NA
ATOM      6  C   UNL     1       2.644   3.657  20.753  0.00  0.00    +0.000 A 
ATOM      7  C   UNL     1       3.274   3.717  19.518  0.00  0.00    +0.000 A 
ATOM      8  C   UNL     1       3.191   4.917  18.786  0.00  0.00    +0.000 A 
ATOM      9  C   UNL     1       2.417   5.994  19.350  0.00  0.00    +0.000 A 
ATOM     10  C   UNL     1       2.142   7.217  18.695  0.00  0.00    +0.000 A 
ENDROOT
BRANCH   7  11
ATOM     11  C   UNL     1       3.947   2.465  19.079  0.00  0.00    +0.000 C 
ATOM     12  N   UNL     1       4.914   1.924  19.883  0.00  0.00    +0.000 N 
ATOM     13  O   UNL     1       3.631   1.913  18.037  0.00  0.00    +0.000 OA
ATOM     14  H   UNL     1       4.999   2.180  20.856  0.00  0.00    +0.000 HD
ATOM     15  H   UNL     1       5.230   0.997  19.612  0.00  0.00    +0.000 HD
ENDBRANCH   7  11
BRANCH   1  17
ATOM     16  C   UNL     1      -0.190  10.007  17.916  0.00  0.00    +0.000 C 
ATOM     17  S   UNL     1       1.475   9.861  18.515  0.00  0.00    +0.000 S 
ATOM     18  O   UNL     1       2.372   9.768  17.381  0.00  0.00    +0.000 OA
ATOM     19  O   UNL     1       1.665  10.878  19.533  0.00  0.00    +0.000 OA
ENDBRANCH   1  17
BRANCH   8  20
ATOM     20  N   UNL     1       3.897   5.039  17.550  0.00  0.00    +0.000 N 
ATOM     21  H   UNL     1       3.277   5.069  16.743  0.00  0.00    +0.000 HD
BRANCH  20  22
ATOM     22  C   UNL     1       5.238   5.366  17.277  0.00  0.00    +0.000 A 
ATOM     23  C   UNL     1       6.003   6.167  18.146  0.00  0.00    +0.000 A 
ATOM     24  C   UNL     1       7.212   6.756  17.734  0.00  0.00    +0.000 A 
ATOM     25  C   UNL     1       7.719   6.511  16.461  0.00  0.00    +0.000 A 
ATOM     26  C   UNL     1       7.020   5.638  15.658  0.00  0.00    +0.000 A 
ATOM     27  C   UNL     1       5.809   5.068  16.046  0.00  0.00    +0.000 A 
ATOM     28  C   UNL     1       5.281   4.287  14.899  0.00  0.00    +0.000 C 
ATOM     29  C   UNL     1       6.569   4.159  14.088  0.00  0.00    +0.000 C 
ATOM     30  O   UNL     1       7.410   5.295  14.387  0.00  0.00    +0.000 OA
ENDBRANCH  20  22
ENDBRANCH   8  20
TORSDOF 4
ENDMDL
MODEL 3
REMARK VINA RESULT:      -8.0      1.122      1.205
REMARK  Name = 
REMARK  5 active torsions:
REMARK  status: ('A' for Active; 'I' for Inactive)
REMARK    1  A    between atoms: C_1  and  S_2
REMARK    2  A    between atoms: S_2  and  C_5
REMARK    3  A    between atoms: C_11  and  C_12
REMARK    4  A    between atoms: C_15  and  N_16
REMARK    5  A    between atoms: N_16  and  C_17
REMARK                            x       y       z     vdW  Elec       q    Type
REMARK                         _______ _______ _______ _____ _____    ______ ____
ROOT
ATOM      1  C   UNL     1       1.470   8.428  19.211  0.00  0.00    +0.000 A 
ATOM      2  C   UNL     1       1.273   8.354  20.578  0.00  0.00    +0.000 A 
ATOM      3  C   UNL     1       1.545   7.142  21.222  0.00  0.00    +0.000 A 
ATOM      4  C   UNL     1       2.068   6.038  20.549  0.00  0.00    +0.000 A 
ATOM      5  N   UNL     1       2.317   4.932  21.258  0.00  0.00    +0.000 NA
ATOM      6  C   UNL     1       2.823   3.855  20.610  0.00  0.00    +0.000 A 
ATOM      7  C   UNL     1       3.146   3.826  19.261  0.00  0.00    +0.000 A 
ATOM      8  C   UNL     1       2.912   4.985  18.496  0.00  0.00    +0.000 A 
ATOM      9  C   UNL     1       2.310   6.115  19.158  0.00  0.00    +0.000 A 
ATOM     10  C   UNL     1       1.909   7.308  18.510  0.00  0.00    +0.000 A 
ENDROOT
BRANCH   7  11
ATOM     11  C   UNL     1       3.677   2.532  18.756  0.00  0.00    +0.000 C 
ATOM     12  N   UNL     1       4.776   1.991  19.366  0.00  0.00    +0.000 N 
ATOM     13  O   UNL     1       3.134   1.947  17.832  0.00  0.00    +0.000 OA
ATOM     14  H   UNL     1       5.071   2.286  20.286  0.00  0.00    +0.000 HD
ATOM     15  H   UNL     1       5.003   1.042  19.083  0.00  0.00    +0.000 HD
ENDBRANCH   7  11
BRANCH   1  17
ATOM     16  C   UNL     1       1.213  11.201  19.593  0.00  0.00    +0.000 C 
ATOM     17  S   UNL     1       1.260   9.956  18.328  0.00  0.00    +0.000 S 
ATOM     18  O   UNL     1      -0.038   9.894  17.688  0.00  0.00    +0.000 OA
ATOM     19  O   UNL     1       2.465  10.168  17.548  0.00  0.00    +0.000 OA
ENDBRANCH   1  17
BRANCH   8  20
ATOM     20  N   UNL     1       3.310   5.016  17.124  0.00  0.00    +0.000 N 
ATOM     21  H   UNL     1       2.555   5.295  16.500  0.00  0.00    +0.000 HD
BRANCH  20  22
ATOM     22  C   UNL     1       4.584   4.975  16.527  0.00  0.00    +0.000 A 
ATOM     23  C   UNL     1       4.995   3.898  15.720  0.00  0.00    +0.000 A 
ATOM     24  C   UNL     1       6.349   3.694  15.393  0.00  0.00    +0.000 A 
ATOM     25  C   UNL     1       7.320   4.597  15.817  0.00  0.00    +0.000 A 
ATOM     26  C   UNL     1       6.894   5.706  16.512  0.00  0.00    +0.000 A 
ATOM     27  C   UNL     1       5.560   5.905  16.862  0.00  0.00    +0.000 A 
ATOM     28  C   UNL     1       5.483   7.125  17.704  0.00  0.00    +0.000 C 
ATOM     29  C   UNL     1       6.831   7.746  17.343  0.00  0.00    +0.000 C 
ATOM     30  O   UNL     1       7.739   6.683  16.978  0.00  0.00    +0.000 OA
ENDBRANCH  20  22
ENDBRANCH   8  20
TORSDOF 4
ENDMDL
MODEL 4
REMARK VINA RESULT:      -7.8      2.311      5.938
REMARK  Name = 
REMARK  5 active torsions:
REMARK  status: ('A' for Active; 'I' for Inactive)
REMARK    1  A    between atoms: C_1  and  S_2
REMARK    2  A    between atoms: S_2  and  C_5
REMARK    3  A    between atoms: C_11  and  C_12
REMARK    4  A    between atoms: C_15  and  N_16
REMARK    5  A    between atoms: N_16  and  C_17
REMARK                            x       y       z     vdW  Elec       q    Type
REMARK                         _______ _______ _______ _____ _____    ______ ____
ROOT
ATOM      1  C   UNL     1       6.204   5.677  17.417  0.00  0.00    +0.000 A 
ATOM      2  C   UNL     1       6.346   4.480  16.741  0.00  0.00    +0.000 A 
ATOM      3  C   UNL     1       5.441   3.449  17.020  0.00  0.00    +0.000 A 
ATOM      4  C   UNL     1       4.371   3.612  17.899  0.00  0.00    +0.000 A 
ATOM      5  N   UNL     1       3.546   2.576  18.081  0.00  0.00    +0.000 NA
ATOM      6  C   UNL     1       2.505   2.726  18.935  0.00  0.00    +0.000 A 
ATOM      7  C   UNL     1       2.202   3.901  19.610  0.00  0.00    +0.000 A 
ATOM      8  C   UNL     1       3.043   5.014  19.419  0.00  0.00    +0.000 A 
ATOM      9  C   UNL     1       4.194   4.846  18.567  0.00  0.00    +0.000 A 
ATOM     10  C   UNL     1       5.194   5.827  18.363  0.00  0.00    +0.000 A 
ENDROOT
BRANCH   7  11
ATOM     11  C   UNL     1       1.019   3.837  20.509  0.00  0.00    +0.000 C 
ATOM     12  N   UNL     1       0.891   2.766  21.351  0.00  0.00    +0.000 N 
ATOM     13  O   UNL     1       0.187   4.732  20.517  0.00  0.00    +0.000 OA
ATOM     14  H   UNL     1       1.676   2.172  21.576  0.00  0.00    +0.000 HD
ATOM     15  H   UNL     1       0.152   2.849  22.043  0.00  0.00    +0.000 HD
ENDBRANCH   7  11
BRANCH   1  17
ATOM     16  C   UNL     1       8.260   7.272  18.482  0.00  0.00    +0.000 C 
ATOM     17  S   UNL     1       7.235   7.076  17.045  0.00  0.00    +0.000 S 
ATOM     18  O   UNL     1       6.359   8.225  16.938  0.00  0.00    +0.000 OA
ATOM     19  O   UNL     1       8.097   6.691  15.942  0.00  0.00    +0.000 OA
ENDBRANCH   1  17
BRANCH   8  20
ATOM     20  N   UNL     1       2.712   6.261  20.033  0.00  0.00    +0.000 N 
ATOM     21  H   UNL     1       3.162   6.387  20.938  0.00  0.00    +0.000 HD
BRANCH  20  22
ATOM     22  C   UNL     1       2.095   7.414  19.515  0.00  0.00    +0.000 A 
ATOM     23  C   UNL     1       2.301   7.838  18.188  0.00  0.00    +0.000 A 
ATOM     24  C   UNL     1       1.959   9.136  17.766  0.00  0.00    +0.000 A 
ATOM     25  C   UNL     1       1.347  10.025  18.645  0.00  0.00    +0.000 A 
ATOM     26  C   UNL     1       1.050   9.564  19.908  0.00  0.00    +0.000 A 
ATOM     27  C   UNL     1       1.406   8.289  20.344  0.00  0.00    +0.000 A 
ATOM     28  C   UNL     1       1.044   8.177  21.780  0.00  0.00    +0.000 C 
ATOM     29  C   UNL     1       0.066   9.348  21.868  0.00  0.00    +0.000 C 
ATOM     30  O   UNL     1       0.435  10.326  20.872  0.00  0.00    +0.000 OA
ENDBRANCH  20  22
ENDBRANCH   8  20
TORSDOF 4
ENDMDL
MODEL 5
REMARK VINA RESULT:      -7.4      2.357      5.869
REMARK  Name = 
REMARK  5 active torsions:
REMARK  status: ('A' for Active; 'I' for Inactive)
REMARK    1  A    between atoms: C_1  and  S_2
REMARK    2  A    between atoms: S_2  and  C_5
REMARK    3  A    between atoms: C_11  and  C_12
REMARK    4  A    between atoms: C_15  and  N_16
REMARK    5  A    between atoms: N_16  and  C_17
REMARK                            x       y       z     vdW  Elec       q    Type
REMARK                         _______ _______ _______ _____ _____    ______ ____
ROOT
ATOM      1  C   UNL     1       5.607   4.693  16.398  0.00  0.00    +0.000 A 
ATOM      2  C   UNL     1       5.508   3.410  15.894  0.00  0.00    +0.000 A 
ATOM      3  C   UNL     1       4.695   2.493  16.570  0.00  0.00    +0.000 A 
ATOM      4  C   UNL     1       3.936   2.847  17.686  0.00  0.00    +0.000 A 
ATOM      5  N   UNL     1       3.171   1.906  18.247  0.00  0.00    +0.000 NA
ATOM      6  C   UNL     1       2.433   2.242  19.332  0.00  0.00    +0.000 A 
ATOM      7  C   UNL     1       2.377   3.514  19.885  0.00  0.00    +0.000 A 
ATOM      8  C   UNL     1       3.157   4.529  19.298  0.00  0.00    +0.000 A 
ATOM      9  C   UNL     1       4.000   4.168  18.186  0.00  0.00    +0.000 A 
ATOM     10  C   UNL     1       4.924   5.039  17.561  0.00  0.00    +0.000 A 
ENDROOT
BRANCH   7  11
ATOM     11  C   UNL     1       1.509   3.655  21.084  0.00  0.00    +0.000 C 
ATOM     12  N   UNL     1       1.760   2.865  22.173  0.00  0.00    +0.000 N 
ATOM     13  O   UNL     1       0.604   4.476  21.113  0.00  0.00    +0.000 OA
ATOM     14  H   UNL     1       2.647   2.396  22.294  0.00  0.00    +0.000 HD
ATOM     15  H   UNL     1       1.239   3.107  23.010  0.00  0.00    +0.000 HD
ENDBRANCH   7  11
BRANCH   1  17
ATOM     16  C   UNL     1       7.229   5.122  14.142  0.00  0.00    +0.000 C 
ATOM     17  S   UNL     1       6.524   5.953  15.544  0.00  0.00    +0.000 S 
ATOM     18  O   UNL     1       7.596   6.363  16.428  0.00  0.00    +0.000 OA
ATOM     19  O   UNL     1       5.562   6.918  15.043  0.00  0.00    +0.000 OA
ENDBRANCH   1  17
BRANCH   8  20
ATOM     20  N   UNL     1       3.058   5.867  19.790  0.00  0.00    +0.000 N 
ATOM     21  H   UNL     1       3.718   6.061  20.541  0.00  0.00    +0.000 HD
BRANCH  20  22
ATOM     22  C   UNL     1       2.407   7.000  19.269  0.00  0.00    +0.000 A 
ATOM     23  C   UNL     1       2.612   7.437  17.947  0.00  0.00    +0.000 A 
ATOM     24  C   UNL     1       2.229   8.724  17.526  0.00  0.00    +0.000 A 
ATOM     25  C   UNL     1       1.576   9.586  18.402  0.00  0.00    +0.000 A 
ATOM     26  C   UNL     1       1.282   9.110  19.660  0.00  0.00    +0.000 A 
ATOM     27  C   UNL     1       1.678   7.847  20.095  0.00  0.00    +0.000 A 
ATOM     28  C   UNL     1       1.305   7.716  21.526  0.00  0.00    +0.000 C 
ATOM     29  C   UNL     1       0.286   8.851  21.608  0.00  0.00    +0.000 C 
ATOM     30  O   UNL     1       0.631   9.845  20.620  0.00  0.00    +0.000 OA
ENDBRANCH  20  22
ENDBRANCH   8  20
TORSDOF 4
ENDMDL
MODEL 6
REMARK VINA RESULT:      -7.3      4.993      9.825
REMARK  Name = 
REMARK  5 active torsions:
REMARK  status: ('A' for Active; 'I' for Inactive)
REMARK    1  A    between atoms: C_1  and  S_2
REMARK    2  A    between atoms: S_2  and  C_5
REMARK    3  A    between atoms: C_11  and  C_12
REMARK    4  A    between atoms: C_15  and  N_16
REMARK    5  A    between atoms: N_16  and  C_17
REMARK                            x       y       z     vdW  Elec       q    Type
REMARK                         _______ _______ _______ _____ _____    ______ ____
ROOT
ATOM      1  C   UNL     1       1.032   9.533  19.648  0.00  0.00    +0.000 A 
ATOM      2  C   UNL     1       1.385   8.807  20.771  0.00  0.00    +0.000 A 
ATOM      3  C   UNL     1       0.781   9.136  21.989  0.00  0.00    +0.000 A 
ATOM      4  C   UNL     1      -0.206  10.116  22.095  0.00  0.00    +0.000 A 
ATOM      5  N   UNL     1      -0.741  10.339  23.300  0.00  0.00    +0.000 NA
ATOM      6  C   UNL     1      -1.698  11.291  23.410  0.00  0.00    +0.000 A 
ATOM      7  C   UNL     1      -2.203  12.029  22.348  0.00  0.00    +0.000 A 
ATOM      8  C   UNL     1      -1.671  11.798  21.065  0.00  0.00    +0.000 A 
ATOM      9  C   UNL     1      -0.603  10.837  20.945  0.00  0.00    +0.000 A 
ATOM     10  C   UNL     1       0.112  10.574  19.753  0.00  0.00    +0.000 A 
ENDROOT
BRANCH   7  11
ATOM     11  C   UNL     1      -3.243  13.032  22.701  0.00  0.00    +0.000 C 
ATOM     12  N   UNL     1      -4.369  12.608  23.354  0.00  0.00    +0.000 N 
ATOM     13  O   UNL     1      -3.091  14.215  22.438  0.00  0.00    +0.000 OA
ATOM     14  H   UNL     1      -4.401  11.718  23.831  0.00  0.00    +0.000 HD
ATOM     15  H   UNL     1      -4.970  13.349  23.702  0.00  0.00    +0.000 HD
ENDBRANCH   7  11
BRANCH   1  17
ATOM     16  C   UNL     1       2.691   7.694  18.319  0.00  0.00    +0.000 C 
ATOM     17  S   UNL     1       1.662   9.114  18.041  0.00  0.00    +0.000 S 
ATOM     18  O   UNL     1       2.499  10.218  17.617  0.00  0.00    +0.000 OA
ATOM     19  O   UNL     1       0.532   8.686  17.236  0.00  0.00    +0.000 OA
ENDBRANCH   1  17
BRANCH   8  20
ATOM     20  N   UNL     1      -2.225  12.481  19.939  0.00  0.00    +0.000 N 
ATOM     21  H   UNL     1      -1.575  13.144  19.521  0.00  0.00    +0.000 HD
BRANCH  20  22
ATOM     22  C   UNL     1      -3.381  12.228  19.178  0.00  0.00    +0.000 A 
ATOM     23  C   UNL     1      -4.674  12.411  19.703  0.00  0.00    +0.000 A 
ATOM     24  C   UNL     1      -5.810  11.862  19.077  0.00  0.00    +0.000 A 
ATOM     25  C   UNL     1      -5.687  11.167  17.878  0.00  0.00    +0.000 A 
ATOM     26  C   UNL     1      -4.432  11.089  17.316  0.00  0.00    +0.000 A 
ATOM     27  C   UNL     1      -3.298  11.606  17.939  0.00  0.00    +0.000 A 
ATOM     28  C   UNL     1      -2.116  11.238  17.120  0.00  0.00    +0.000 C 
ATOM     29  C   UNL     1      -2.831  10.895  15.814  0.00  0.00    +0.000 C 
ATOM     30  O   UNL     1      -4.167  10.447  16.131  0.00  0.00    +0.000 OA
ENDBRANCH  20  22
ENDBRANCH   8  20
TORSDOF 4
ENDMDL
MODEL 7
REMARK VINA RESULT:      -7.3      0.950      1.117
REMARK  Name = 
REMARK  5 active torsions:
REMARK  status: ('A' for Active; 'I' for Inactive)
REMARK    1  A    between atoms: C_1  and  S_2
REMARK    2  A    between atoms: S_2  and  C_5
REMARK    3  A    between atoms: C_11  and  C_12
REMARK    4  A    between atoms: C_15  and  N_16
REMARK    5  A    between atoms: N_16  and  C_17
REMARK                            x       y       z     vdW  Elec       q    Type
REMARK                         _______ _______ _______ _____ _____    ______ ____
ROOT
ATOM      1  C   UNL     1       1.315   8.809  19.632  0.00  0.00    +0.000 A 
ATOM      2  C   UNL     1       0.894   8.492  20.911  0.00  0.00    +0.000 A 
ATOM      3  C   UNL     1       1.111   7.189  21.375  0.00  0.00    +0.000 A 
ATOM      4  C   UNL     1       1.791   6.230  20.624  0.00  0.00    +0.000 A 
ATOM      5  N   UNL     1       1.969   5.021  21.165  0.00  0.00    +0.000 NA
ATOM      6  C   UNL     1       2.627   4.085  20.440  0.00  0.00    +0.000 A 
ATOM      7  C   UNL     1       3.174   4.301  19.183  0.00  0.00    +0.000 A 
ATOM      8  C   UNL     1       3.018   5.573  18.600  0.00  0.00    +0.000 A 
ATOM      9  C   UNL     1       2.260   6.557  19.330  0.00  0.00    +0.000 A 
ATOM     10  C   UNL     1       1.918   7.839  18.837  0.00  0.00    +0.000 A 
ENDROOT
BRANCH   7  11
ATOM     11  C   UNL     1       3.843   3.126  18.564  0.00  0.00    +0.000 C 
ATOM     12  N   UNL     1       4.916   2.568  19.205  0.00  0.00    +0.000 N 
ATOM     13  O   UNL     1       3.433   2.648  17.518  0.00  0.00    +0.000 OA
ATOM     14  H   UNL     1       5.100   2.745  20.183  0.00  0.00    +0.000 HD
ATOM     15  H   UNL     1       5.236   1.684  18.821  0.00  0.00    +0.000 HD
ENDBRANCH   7  11
BRANCH   1  17
ATOM     16  C   UNL     1       2.520  10.609  17.840  0.00  0.00    +0.000 C 
ATOM     17  S   UNL     1       1.185  10.466  19.002  0.00  0.00    +0.000 S 
ATOM     18  O   UNL     1       1.439  11.358  20.115  0.00  0.00    +0.000 OA
ATOM     19  O   UNL     1      -0.057  10.543  18.255  0.00  0.00    +0.000 OA
ENDBRANCH   1  17
BRANCH   8  20
ATOM     20  N   UNL     1       3.640   5.853  17.344  0.00  0.00    +0.000 N 
ATOM     21  H   UNL     1       3.166   6.589  16.825  0.00  0.00    +0.000 HD
BRANCH  20  22
ATOM     22  C   UNL     1       4.894   5.479  16.827  0.00  0.00    +0.000 A 
ATOM     23  C   UNL     1       5.040   4.957  15.528  0.00  0.00    +0.000 A 
ATOM     24  C   UNL     1       6.214   4.291  15.127  0.00  0.00    +0.000 A 
ATOM     25  C   UNL     1       7.294   4.182  15.997  0.00  0.00    +0.000 A 
ATOM     26  C   UNL     1       7.183   4.791  17.227  0.00  0.00    +0.000 A 
ATOM     27  C   UNL     1       6.017   5.432  17.643  0.00  0.00    +0.000 A 
ATOM     28  C   UNL     1       6.207   5.860  19.052  0.00  0.00    +0.000 C 
ATOM     29  C   UNL     1       7.730   5.775  19.121  0.00  0.00    +0.000 C 
ATOM     30  O   UNL     1       8.174   4.775  18.177  0.00  0.00    +0.000 OA
ENDBRANCH  20  22
ENDBRANCH   8  20
TORSDOF 4
ENDMDL
MODEL 8
REMARK VINA RESULT:      -7.3      8.298     10.794
REMARK  Name = 
REMARK  5 active torsions:
REMARK  status: ('A' for Active; 'I' for Inactive)
REMARK    1  A    between atoms: C_1  and  S_2
REMARK    2  A    between atoms: S_2  and  C_5
REMARK    3  A    between atoms: C_11  and  C_12
REMARK    4  A    between atoms: C_15  and  N_16
REMARK    5  A    between atoms: N_16  and  C_17
REMARK                            x       y       z     vdW  Elec       q    Type
REMARK                         _______ _______ _______ _____ _____    ______ ____
ROOT
ATOM      1  C   UNL     1      -3.295  14.296  23.053  0.00  0.00    +0.000 A 
ATOM      2  C   UNL     1      -4.071  13.928  24.136  0.00  0.00    +0.000 A 
ATOM      3  C   UNL     1      -5.240  13.197  23.896  0.00  0.00    +0.000 A 
ATOM      4  C   UNL     1      -5.608  12.773  22.619  0.00  0.00    +0.000 A 
ATOM      5  N   UNL     1      -6.731  12.058  22.495  0.00  0.00    +0.000 NA
ATOM      6  C   UNL     1      -7.095  11.646  21.257  0.00  0.00    +0.000 A 
ATOM      7  C   UNL     1      -6.361  11.874  20.101  0.00  0.00    +0.000 A 
ATOM      8  C   UNL     1      -5.164  12.607  20.208  0.00  0.00    +0.000 A 
ATOM      9  C   UNL     1      -4.800  13.112  21.508  0.00  0.00    +0.000 A 
ATOM     10  C   UNL     1      -3.694  13.957  21.763  0.00  0.00    +0.000 A 
ENDROOT
BRANCH   7  11
ATOM     11  C   UNL     1      -6.957  11.341  18.847  0.00  0.00    +0.000 C 
ATOM     12  N   UNL     1      -7.220  10.000  18.763  0.00  0.00    +0.000 N 
ATOM     13  O   UNL     1      -7.231  12.083  17.916  0.00  0.00    +0.000 OA
ATOM     14  H   UNL     1      -7.277   9.419  19.588  0.00  0.00    +0.000 HD
ATOM     15  H   UNL     1      -7.761   9.718  17.952  0.00  0.00    +0.000 HD
ENDBRANCH   7  11
BRANCH   1  17
ATOM     16  C   UNL     1      -1.950  16.093  24.745  0.00  0.00    +0.000 C 
ATOM     17  S   UNL     1      -1.739  15.126  23.271  0.00  0.00    +0.000 S 
ATOM     18  O   UNL     1      -1.581  16.023  22.145  0.00  0.00    +0.000 OA
ATOM     19  O   UNL     1      -0.746  14.106  23.555  0.00  0.00    +0.000 OA
ENDBRANCH   1  17
BRANCH   8  20
ATOM     20  N   UNL     1      -4.344  12.789  19.052  0.00  0.00    +0.000 N 
ATOM     21  H   UNL     1      -4.246  13.767  18.788  0.00  0.00    +0.000 HD
BRANCH  20  22
ATOM     22  C   UNL     1      -3.473  11.907  18.386  0.00  0.00    +0.000 A 
ATOM     23  C   UNL     1      -3.888  11.144  17.278  0.00  0.00    +0.000 A 
ATOM     24  C   UNL     1      -3.140  10.043  16.818  0.00  0.00    +0.000 A 
ATOM     25  C   UNL     1      -1.928   9.715  17.418  0.00  0.00    +0.000 A 
ATOM     26  C   UNL     1      -1.477  10.533  18.428  0.00  0.00    +0.000 A 
ATOM     27  C   UNL     1      -2.221  11.610  18.908  0.00  0.00    +0.000 A 
ATOM     28  C   UNL     1      -1.496  12.189  20.067  0.00  0.00    +0.000 C 
ATOM     29  C   UNL     1      -0.118  11.581  19.811  0.00  0.00    +0.000 C 
ATOM     30  O   UNL     1      -0.295  10.337  19.098  0.00  0.00    +0.000 OA
ENDBRANCH  20  22
ENDBRANCH   8  20
TORSDOF 4
ENDMDL
MODEL 9
REMARK VINA RESULT:      -7.3      7.146     11.615
REMARK  Name = 
REMARK  5 active torsions:
REMARK  status: ('A' for Active; 'I' for Inactive)
REMARK    1  A    between atoms: C_1  and  S_2
REMARK    2  A    between atoms: S_2  and  C_5
REMARK    3  A    between atoms: C_11  and  C_12
REMARK    4  A    between atoms: C_15  and  N_16
REMARK    5  A    between atoms: N_16  and  C_17
REMARK                            x       y       z     vdW  Elec       q    Type
REMARK                         _______ _______ _______ _____ _____    ______ ____
ROOT
ATOM      1  C   UNL     1      -0.611  10.894  19.950  0.00  0.00    +0.000 A 
ATOM      2  C   UNL     1      -0.187  10.188  18.839  0.00  0.00    +0.000 A 
ATOM      3  C   UNL     1      -1.064  10.072  17.754  0.00  0.00    +0.000 A 
ATOM      4  C   UNL     1      -2.312  10.695  17.730  0.00  0.00    +0.000 A 
ATOM      5  N   UNL     1      -3.067  10.544  16.637  0.00  0.00    +0.000 NA
ATOM      6  C   UNL     1      -4.280  11.146  16.609  0.00  0.00    +0.000 A 
ATOM      7  C   UNL     1      -4.787  11.950  17.620  0.00  0.00    +0.000 A 
ATOM      8  C   UNL     1      -4.002  12.142  18.773  0.00  0.00    +0.000 A 
ATOM      9  C   UNL     1      -2.738  11.452  18.846  0.00  0.00    +0.000 A 
ATOM     10  C   UNL     1      -1.887  11.449  19.977  0.00  0.00    +0.000 A 
ENDROOT
BRANCH   7  11
ATOM     11  C   UNL     1      -6.148  12.499  17.383  0.00  0.00    +0.000 C 
ATOM     12  N   UNL     1      -6.267  13.730  16.796  0.00  0.00    +0.000 N 
ATOM     13  O   UNL     1      -7.145  11.858  17.679  0.00  0.00    +0.000 OA
ATOM     14  H   UNL     1      -5.502  14.151  16.288  0.00  0.00    +0.000 HD
ATOM     15  H   UNL     1      -7.210  13.987  16.521  0.00  0.00    +0.000 HD
ENDBRANCH   7  11
BRANCH   1  17
ATOM     16  C   UNL     1       1.160   9.596  21.705  0.00  0.00    +0.000 C 
ATOM     17  S   UNL     1       0.475  11.189  21.325  0.00  0.00    +0.000 S 
ATOM     18  O   UNL     1      -0.358  11.614  22.432  0.00  0.00    +0.000 OA
ATOM     19  O   UNL     1       1.557  12.028  20.844  0.00  0.00    +0.000 OA
ENDBRANCH   1  17
BRANCH   8  20
ATOM     20  N   UNL     1      -4.457  13.030  19.795  0.00  0.00    +0.000 N 
ATOM     21  H   UNL     1      -4.492  14.000  19.488  0.00  0.00    +0.000 HD
BRANCH  20  22
ATOM     22  C   UNL     1      -5.083  12.779  21.031  0.00  0.00    +0.000 A 
ATOM     23  C   UNL     1      -6.400  12.287  21.113  0.00  0.00    +0.000 A 
ATOM     24  C   UNL     1      -7.134  12.340  22.313  0.00  0.00    +0.000 A 
ATOM     25  C   UNL     1      -6.549  12.831  23.476  0.00  0.00    +0.000 A 
ATOM     26  C   UNL     1      -5.226  13.207  23.411  0.00  0.00    +0.000 A 
ATOM     27  C   UNL     1      -4.497  13.182  22.223  0.00  0.00    +0.000 A 
ATOM     28  C   UNL     1      -3.159  13.765  22.494  0.00  0.00    +0.000 C 
ATOM     29  C   UNL     1      -3.153  13.645  24.017  0.00  0.00    +0.000 C 
ATOM     30  O   UNL     1      -4.520  13.696  24.482  0.00  0.00    +0.000 OA
ENDBRANCH  20  22
ENDBRANCH   8  20
TORSDOF 4
ENDMDL
