MODEL 1
REMARK VINA RESULT:      -8.4      0.000      0.000
REMARK  Name = 
REMARK  3 active torsions:
REMARK  status: ('A' for Active; 'I' for Inactive)
REMARK    1  A    between atoms: C_3  and  C_4
REMARK    2  A    between atoms: N_15  and  C_16
REMARK    3  A    between atoms: C_16  and  C_17
REMARK                            x       y       z     vdW  Elec       q    Type
REMARK                         _______ _______ _______ _____ _____    ______ ____
ROOT
ATOM      1  O   UNL     1       2.275   5.914  20.573  0.00  0.00    +0.000 OA
ATOM      2  C   UNL     1       2.503   6.596  19.586  0.00  0.00    +0.000 C 
ATOM      3  C   UNL     1       2.052   7.957  19.338  0.00  0.00    +0.000 C 
ATOM      4  C   UNL     1       2.529   8.262  18.128  0.00  0.00    +0.000 C 
ATOM      5  O   UNL     1       3.226   7.241  17.566  0.00  0.00    +0.000 OA
ATOM      6  C   UNL     1       3.245   6.127  18.391  0.00  0.00    +0.000 C 
ATOM      7  C   UNL     1       4.658   5.653  18.644  0.00  0.00    +0.000 C 
ATOM      8  C   UNL     1       4.906   4.868  17.367  0.00  0.00    +0.000 C 
ATOM      9  N   UNL     1       3.670   4.097  17.123  0.00  0.00    +0.000 NA
ATOM     10  C   UNL     1       2.587   4.927  17.709  0.00  0.00    +0.000 C 
ENDROOT
BRANCH   3  11
ATOM     11  C   UNL     1       1.205   8.813  20.227  0.00  0.00    +0.000 A 
ATOM     12  C   UNL     1       0.362   9.806  19.689  0.00  0.00    +0.000 A 
ATOM     13  C   UNL     1      -0.451  10.581  20.523  0.00  0.00    +0.000 A 
ATOM     14  C   UNL     1      -0.434  10.384  21.905  0.00  0.00    +0.000 A 
ATOM     15  C   UNL     1       0.399   9.413  22.455  0.00  0.00    +0.000 A 
ATOM     16  C   UNL     1       1.210   8.634  21.629  0.00  0.00    +0.000 A 
ENDBRANCH   3  11
BRANCH   9  17
ATOM     17  C   UNL     1       3.738   2.774  17.796  0.00  0.00    +0.000 C 
BRANCH  17  18
ATOM     18  C   UNL     1       2.876   2.750  19.037  0.00  0.00    +0.000 A 
ATOM     19  C   UNL     1       1.479   2.831  18.928  0.00  0.00    +0.000 A 
ATOM     20  C   UNL     1       0.680   2.815  20.075  0.00  0.00    +0.000 A 
ATOM     21  C   UNL     1       1.268   2.724  21.340  0.00  0.00    +0.000 A 
ATOM     22  C   UNL     1       2.658   2.646  21.458  0.00  0.00    +0.000 A 
ATOM     23  C   UNL     1       3.461   2.656  20.314  0.00  0.00    +0.000 A 
ENDBRANCH  17  18
ENDBRANCH   9  17
TORSDOF 3
ENDMDL
MODEL 2
REMARK VINA RESULT:      -8.4      0.046      1.008
REMARK  Name = 
REMARK  3 active torsions:
REMARK  status: ('A' for Active; 'I' for Inactive)
REMARK    1  A    between atoms: C_3  and  C_4
REMARK    2  A    between atoms: N_15  and  C_16
REMARK    3  A    between atoms: C_16  and  C_17
REMARK                            x       y       z     vdW  Elec       q    Type
REMARK                         _______ _______ _______ _____ _____    ______ ____
ROOT
ATOM      1  O   UNL     1       2.284   5.902  20.577  0.00  0.00    +0.000 OA
ATOM      2  C   UNL     1       2.514   6.590  19.594  0.00  0.00    +0.000 C 
ATOM      3  C   UNL     1       2.052   7.947  19.347  0.00  0.00    +0.000 C 
ATOM      4  C   UNL     1       2.537   8.262  18.141  0.00  0.00    +0.000 C 
ATOM      5  O   UNL     1       3.248   7.248  17.582  0.00  0.00    +0.000 OA
ATOM      6  C   UNL     1       3.270   6.133  18.404  0.00  0.00    +0.000 C 
ATOM      7  C   UNL     1       4.686   5.671  18.667  0.00  0.00    +0.000 C 
ATOM      8  C   UNL     1       4.953   4.893  17.390  0.00  0.00    +0.000 C 
ATOM      9  N   UNL     1       3.727   4.110  17.133  0.00  0.00    +0.000 NA
ATOM     10  C   UNL     1       2.630   4.928  17.712  0.00  0.00    +0.000 C 
ENDROOT
BRANCH   3  11
ATOM     11  C   UNL     1       1.189   8.793  20.231  0.00  0.00    +0.000 A 
ATOM     12  C   UNL     1       1.222   8.644  21.633  0.00  0.00    +0.000 A 
ATOM     13  C   UNL     1       0.438   9.460  22.455  0.00  0.00    +0.000 A 
ATOM     14  C   UNL     1      -0.395  10.431  21.896  0.00  0.00    +0.000 A 
ATOM     15  C   UNL     1      -0.447  10.586  20.514  0.00  0.00    +0.000 A 
ATOM     16  C   UNL     1       0.336   9.778  19.687  0.00  0.00    +0.000 A 
ENDBRANCH   3  11
BRANCH   9  17
ATOM     17  C   UNL     1       3.801   2.786  17.802  0.00  0.00    +0.000 C 
BRANCH  17  18
ATOM     18  C   UNL     1       2.915   2.744  19.025  0.00  0.00    +0.000 A 
ATOM     19  C   UNL     1       1.519   2.779  18.887  0.00  0.00    +0.000 A 
ATOM     20  C   UNL     1       0.698   2.746  20.019  0.00  0.00    +0.000 A 
ATOM     21  C   UNL     1       1.263   2.684  21.296  0.00  0.00    +0.000 A 
ATOM     22  C   UNL     1       2.651   2.653  21.442  0.00  0.00    +0.000 A 
ATOM     23  C   UNL     1       3.476   2.680  20.315  0.00  0.00    +0.000 A 
ENDBRANCH  17  18
ENDBRANCH   9  17
TORSDOF 3
ENDMDL
MODEL 3
REMARK VINA RESULT:      -8.4      0.123      1.017
REMARK  Name = 
REMARK  3 active torsions:
REMARK  status: ('A' for Active; 'I' for Inactive)
REMARK    1  A    between atoms: C_3  and  C_4
REMARK    2  A    between atoms: N_15  and  C_16
REMARK    3  A    between atoms: C_16  and  C_17
REMARK                            x       y       z     vdW  Elec       q    Type
REMARK                         _______ _______ _______ _____ _____    ______ ____
ROOT
ATOM      1  O   UNL     1       2.271   5.951  20.498  0.00  0.00    +0.000 OA
ATOM      2  C   UNL     1       2.531   6.624  19.513  0.00  0.00    +0.000 C 
ATOM      3  C   UNL     1       2.093   7.984  19.240  0.00  0.00    +0.000 C 
ATOM      4  C   UNL     1       2.608   8.278  18.042  0.00  0.00    +0.000 C 
ATOM      5  O   UNL     1       3.318   7.249  17.511  0.00  0.00    +0.000 OA
ATOM      6  C   UNL     1       3.307   6.143  18.345  0.00  0.00    +0.000 C 
ATOM      7  C   UNL     1       4.711   5.666  18.644  0.00  0.00    +0.000 C 
ATOM      8  C   UNL     1       4.994   4.869  17.383  0.00  0.00    +0.000 C 
ATOM      9  N   UNL     1       3.764   4.100  17.108  0.00  0.00    +0.000 NA
ATOM     10  C   UNL     1       2.666   4.939  17.653  0.00  0.00    +0.000 C 
ENDROOT
BRANCH   3  11
ATOM     11  C   UNL     1       1.223   8.851  20.096  0.00  0.00    +0.000 A 
ATOM     12  C   UNL     1       0.470   9.902  19.534  0.00  0.00    +0.000 A 
ATOM     13  C   UNL     1      -0.367  10.687  20.335  0.00  0.00    +0.000 A 
ATOM     14  C   UNL     1      -0.462  10.444  21.706  0.00  0.00    +0.000 A 
ATOM     15  C   UNL     1       0.281   9.415  22.280  0.00  0.00    +0.000 A 
ATOM     16  C   UNL     1       1.115   8.625  21.487  0.00  0.00    +0.000 A 
ENDBRANCH   3  11
BRANCH   9  17
ATOM     17  C   UNL     1       3.807   2.783  17.794  0.00  0.00    +0.000 C 
BRANCH  17  18
ATOM     18  C   UNL     1       2.916   2.777  19.015  0.00  0.00    +0.000 A 
ATOM     19  C   UNL     1       3.478   2.697  20.298  0.00  0.00    +0.000 A 
ATOM     20  C   UNL     1       2.654   2.685  21.429  0.00  0.00    +0.000 A 
ATOM     21  C   UNL     1       1.265   2.748  21.287  0.00  0.00    +0.000 A 
ATOM     22  C   UNL     1       0.698   2.825  20.013  0.00  0.00    +0.000 A 
ATOM     23  C   UNL     1       1.516   2.842  18.881  0.00  0.00    +0.000 A 
ENDBRANCH  17  18
ENDBRANCH   9  17
TORSDOF 3
ENDMDL
MODEL 4
REMARK VINA RESULT:      -8.4      0.363      1.469
REMARK  Name = 
REMARK  3 active torsions:
REMARK  status: ('A' for Active; 'I' for Inactive)
REMARK    1  A    between atoms: C_3  and  C_4
REMARK    2  A    between atoms: N_15  and  C_16
REMARK    3  A    between atoms: C_16  and  C_17
REMARK                            x       y       z     vdW  Elec       q    Type
REMARK                         _______ _______ _______ _____ _____    ______ ____
ROOT
ATOM      1  O   UNL     1       2.250   5.933  20.348  0.00  0.00    +0.000 OA
ATOM      2  C   UNL     1       2.594   6.577  19.369  0.00  0.00    +0.000 C 
ATOM      3  C   UNL     1       2.202   7.937  19.032  0.00  0.00    +0.000 C 
ATOM      4  C   UNL     1       2.808   8.192  17.868  0.00  0.00    +0.000 C 
ATOM      5  O   UNL     1       3.536   7.138  17.415  0.00  0.00    +0.000 OA
ATOM      6  C   UNL     1       3.444   6.054  18.273  0.00  0.00    +0.000 C 
ATOM      7  C   UNL     1       4.813   5.562  18.686  0.00  0.00    +0.000 C 
ATOM      8  C   UNL     1       5.174   4.729  17.468  0.00  0.00    +0.000 C 
ATOM      9  N   UNL     1       3.953   3.973  17.122  0.00  0.00    +0.000 NA
ATOM     10  C   UNL     1       2.833   4.843  17.565  0.00  0.00    +0.000 C 
ENDROOT
BRANCH   3  11
ATOM     11  C   UNL     1       1.287   8.839  19.800  0.00  0.00    +0.000 A 
ATOM     12  C   UNL     1       1.182   8.742  21.202  0.00  0.00    +0.000 A 
ATOM     13  C   UNL     1       0.349   9.610  21.917  0.00  0.00    +0.000 A 
ATOM     14  C   UNL     1      -0.395  10.584  21.249  0.00  0.00    +0.000 A 
ATOM     15  C   UNL     1      -0.310  10.689  19.863  0.00  0.00    +0.000 A 
ATOM     16  C   UNL     1       0.521   9.828  19.143  0.00  0.00    +0.000 A 
ENDBRANCH   3  11
BRANCH   9  17
ATOM     17  C   UNL     1       3.921   2.673  17.841  0.00  0.00    +0.000 C 
BRANCH  17  18
ATOM     18  C   UNL     1       2.968   2.723  19.012  0.00  0.00    +0.000 A 
ATOM     19  C   UNL     1       3.461   2.704  20.326  0.00  0.00    +0.000 A 
ATOM     20  C   UNL     1       2.579   2.744  21.410  0.00  0.00    +0.000 A 
ATOM     21  C   UNL     1       1.199   2.797  21.193  0.00  0.00    +0.000 A 
ATOM     22  C   UNL     1       0.700   2.813  19.888  0.00  0.00    +0.000 A 
ATOM     23  C   UNL     1       1.577   2.779  18.801  0.00  0.00    +0.000 A 
ENDBRANCH  17  18
ENDBRANCH   9  17
TORSDOF 3
ENDMDL
MODEL 5
REMARK VINA RESULT:      -8.2      1.798      4.094
REMARK  Name = 
REMARK  3 active torsions:
REMARK  status: ('A' for Active; 'I' for Inactive)
REMARK    1  A    between atoms: C_3  and  C_4
REMARK    2  A    between atoms: N_15  and  C_16
REMARK    3  A    between atoms: C_16  and  C_17
REMARK                            x       y       z     vdW  Elec       q    Type
REMARK                         _______ _______ _______ _____ _____    ______ ____
ROOT
ATOM      1  O   UNL     1       3.004   7.674  18.282  0.00  0.00    +0.000 OA
ATOM      2  C   UNL     1       2.579   6.864  19.091  0.00  0.00    +0.000 C 
ATOM      3  C   UNL     1       1.720   7.134  20.233  0.00  0.00    +0.000 C 
ATOM      4  C   UNL     1       1.550   5.948  20.825  0.00  0.00    +0.000 C 
ATOM      5  O   UNL     1       2.218   4.948  20.194  0.00  0.00    +0.000 OA
ATOM      6  C   UNL     1       2.927   5.423  19.103  0.00  0.00    +0.000 C 
ATOM      7  C   UNL     1       2.581   4.657  17.846  0.00  0.00    +0.000 C 
ATOM      8  C   UNL     1       3.453   3.427  18.037  0.00  0.00    +0.000 C 
ATOM      9  N   UNL     1       4.756   3.929  18.520  0.00  0.00    +0.000 NA
ATOM     10  C   UNL     1       4.427   5.169  19.269  0.00  0.00    +0.000 C 
ENDROOT
BRANCH   3  11
ATOM     11  C   UNL     1       1.176   8.459  20.672  0.00  0.00    +0.000 A 
ATOM     12  C   UNL     1       0.935   9.489  19.741  0.00  0.00    +0.000 A 
ATOM     13  C   UNL     1       0.397  10.712  20.155  0.00  0.00    +0.000 A 
ATOM     14  C   UNL     1       0.095  10.932  21.500  0.00  0.00    +0.000 A 
ATOM     15  C   UNL     1       0.335   9.928  22.435  0.00  0.00    +0.000 A 
ATOM     16  C   UNL     1       0.868   8.704  22.030  0.00  0.00    +0.000 A 
ENDBRANCH   3  11
BRANCH   9  17
ATOM     17  C   UNL     1       5.656   4.231  17.378  0.00  0.00    +0.000 C 
BRANCH  17  18
ATOM     18  C   UNL     1       6.495   5.457  17.656  0.00  0.00    +0.000 A 
ATOM     19  C   UNL     1       7.494   5.421  18.640  0.00  0.00    +0.000 A 
ATOM     20  C   UNL     1       8.267   6.557  18.902  0.00  0.00    +0.000 A 
ATOM     21  C   UNL     1       8.045   7.738  18.188  0.00  0.00    +0.000 A 
ATOM     22  C   UNL     1       7.050   7.783  17.209  0.00  0.00    +0.000 A 
ATOM     23  C   UNL     1       6.278   6.650  16.939  0.00  0.00    +0.000 A 
ENDBRANCH  17  18
ENDBRANCH   9  17
TORSDOF 3
ENDMDL
MODEL 6
REMARK VINA RESULT:      -8.2      1.818      4.004
REMARK  Name = 
REMARK  3 active torsions:
REMARK  status: ('A' for Active; 'I' for Inactive)
REMARK    1  A    between atoms: C_3  and  C_4
REMARK    2  A    between atoms: N_15  and  C_16
REMARK    3  A    between atoms: C_16  and  C_17
REMARK                            x       y       z     vdW  Elec       q    Type
REMARK                         _______ _______ _______ _____ _____    ______ ____
ROOT
ATOM      1  O   UNL     1       2.920   7.766  18.342  0.00  0.00    +0.000 OA
ATOM      2  C   UNL     1       2.508   6.939  19.142  0.00  0.00    +0.000 C 
ATOM      3  C   UNL     1       1.650   7.182  20.291  0.00  0.00    +0.000 C 
ATOM      4  C   UNL     1       1.496   5.985  20.865  0.00  0.00    +0.000 C 
ATOM      5  O   UNL     1       2.173   5.002  20.216  0.00  0.00    +0.000 OA
ATOM      6  C   UNL     1       2.872   5.502  19.129  0.00  0.00    +0.000 C 
ATOM      7  C   UNL     1       2.529   4.751  17.862  0.00  0.00    +0.000 C 
ATOM      8  C   UNL     1       3.416   3.529  18.031  0.00  0.00    +0.000 C 
ATOM      9  N   UNL     1       4.714   4.037  18.516  0.00  0.00    +0.000 NA
ATOM     10  C   UNL     1       4.375   5.262  19.286  0.00  0.00    +0.000 C 
ENDROOT
BRANCH   3  11
ATOM     11  C   UNL     1       1.094   8.493  20.753  0.00  0.00    +0.000 A 
ATOM     12  C   UNL     1       0.782   9.513  19.832  0.00  0.00    +0.000 A 
ATOM     13  C   UNL     1       0.232  10.724  20.268  0.00  0.00    +0.000 A 
ATOM     14  C   UNL     1      -0.011  10.940  21.625  0.00  0.00    +0.000 A 
ATOM     15  C   UNL     1       0.300   9.947  22.550  0.00  0.00    +0.000 A 
ATOM     16  C   UNL     1       0.846   8.735  22.123  0.00  0.00    +0.000 A 
ENDBRANCH   3  11
BRANCH   9  17
ATOM     17  C   UNL     1       5.607   4.366  17.375  0.00  0.00    +0.000 C 
BRANCH  17  18
ATOM     18  C   UNL     1       6.488   5.551  17.698  0.00  0.00    +0.000 A 
ATOM     19  C   UNL     1       6.349   6.751  16.985  0.00  0.00    +0.000 A 
ATOM     20  C   UNL     1       7.168   7.845  17.279  0.00  0.00    +0.000 A 
ATOM     21  C   UNL     1       8.135   7.749  18.284  0.00  0.00    +0.000 A 
ATOM     22  C   UNL     1       8.283   6.557  18.996  0.00  0.00    +0.000 A 
ATOM     23  C   UNL     1       7.464   5.462  18.710  0.00  0.00    +0.000 A 
ENDBRANCH  17  18
ENDBRANCH   9  17
TORSDOF 3
ENDMDL
MODEL 7
REMARK VINA RESULT:      -8.2      1.811      4.113
REMARK  Name = 
REMARK  3 active torsions:
REMARK  status: ('A' for Active; 'I' for Inactive)
REMARK    1  A    between atoms: C_3  and  C_4
REMARK    2  A    between atoms: N_15  and  C_16
REMARK    3  A    between atoms: C_16  and  C_17
REMARK                            x       y       z     vdW  Elec       q    Type
REMARK                         _______ _______ _______ _____ _____    ______ ____
ROOT
ATOM      1  O   UNL     1       3.025   7.660  18.270  0.00  0.00    +0.000 OA
ATOM      2  C   UNL     1       2.597   6.848  19.075  0.00  0.00    +0.000 C 
ATOM      3  C   UNL     1       1.723   7.113  20.207  0.00  0.00    +0.000 C 
ATOM      4  C   UNL     1       1.554   5.926  20.798  0.00  0.00    +0.000 C 
ATOM      5  O   UNL     1       2.236   4.930  20.175  0.00  0.00    +0.000 OA
ATOM      6  C   UNL     1       2.954   5.409  19.091  0.00  0.00    +0.000 C 
ATOM      7  C   UNL     1       2.627   4.640  17.831  0.00  0.00    +0.000 C 
ATOM      8  C   UNL     1       3.504   3.416  18.032  0.00  0.00    +0.000 C 
ATOM      9  N   UNL     1       4.798   3.926  18.529  0.00  0.00    +0.000 NA
ATOM     10  C   UNL     1       4.453   5.165  19.274  0.00  0.00    +0.000 C 
ENDROOT
BRANCH   3  11
ATOM     11  C   UNL     1       1.167   8.434  20.640  0.00  0.00    +0.000 A 
ATOM     12  C   UNL     1       0.864   8.685  21.993  0.00  0.00    +0.000 A 
ATOM     13  C   UNL     1       0.375   9.933  22.396  0.00  0.00    +0.000 A 
ATOM     14  C   UNL     1       0.174  10.947  21.458  0.00  0.00    +0.000 A 
ATOM     15  C   UNL     1       0.460  10.714  20.115  0.00  0.00    +0.000 A 
ATOM     16  C   UNL     1       0.952   9.473  19.707  0.00  0.00    +0.000 A 
ENDBRANCH   3  11
BRANCH   9  17
ATOM     17  C   UNL     1       5.709   4.233  17.397  0.00  0.00    +0.000 C 
BRANCH  17  18
ATOM     18  C   UNL     1       6.519   5.478  17.673  0.00  0.00    +0.000 A 
ATOM     19  C   UNL     1       6.288   6.650  16.937  0.00  0.00    +0.000 A 
ATOM     20  C   UNL     1       7.041   7.801  17.188  0.00  0.00    +0.000 A 
ATOM     21  C   UNL     1       8.034   7.791  18.171  0.00  0.00    +0.000 A 
ATOM     22  C   UNL     1       8.274   6.628  18.907  0.00  0.00    +0.000 A 
ATOM     23  C   UNL     1       7.521   5.476  18.664  0.00  0.00    +0.000 A 
ENDBRANCH  17  18
ENDBRANCH   9  17
TORSDOF 3
ENDMDL
MODEL 8
REMARK VINA RESULT:      -8.2      1.821      4.219
REMARK  Name = 
REMARK  3 active torsions:
REMARK  status: ('A' for Active; 'I' for Inactive)
REMARK    1  A    between atoms: C_3  and  C_4
REMARK    2  A    between atoms: N_15  and  C_16
REMARK    3  A    between atoms: C_16  and  C_17
REMARK                            x       y       z     vdW  Elec       q    Type
REMARK                         _______ _______ _______ _____ _____    ______ ____
ROOT
ATOM      1  O   UNL     1       2.933   7.720  18.288  0.00  0.00    +0.000 OA
ATOM      2  C   UNL     1       2.525   6.904  19.101  0.00  0.00    +0.000 C 
ATOM      3  C   UNL     1       1.664   7.161  20.245  0.00  0.00    +0.000 C 
ATOM      4  C   UNL     1       1.516   5.973  20.839  0.00  0.00    +0.000 C 
ATOM      5  O   UNL     1       2.199   4.983  20.207  0.00  0.00    +0.000 OA
ATOM      6  C   UNL     1       2.897   5.469  19.113  0.00  0.00    +0.000 C 
ATOM      7  C   UNL     1       2.559   4.696  17.858  0.00  0.00    +0.000 C 
ATOM      8  C   UNL     1       3.452   3.481  18.047  0.00  0.00    +0.000 C 
ATOM      9  N   UNL     1       4.748   4.005  18.526  0.00  0.00    +0.000 NA
ATOM     10  C   UNL     1       4.401   5.241  19.275  0.00  0.00    +0.000 C 
ENDROOT
BRANCH   3  11
ATOM     11  C   UNL     1       1.100   8.477  20.685  0.00  0.00    +0.000 A 
ATOM     12  C   UNL     1       0.770   8.710  22.035  0.00  0.00    +0.000 A 
ATOM     13  C   UNL     1       0.274   9.952  22.444  0.00  0.00    +0.000 A 
ATOM     14  C   UNL     1       0.094  10.980  21.517  0.00  0.00    +0.000 A 
ATOM     15  C   UNL     1       0.407  10.765  20.177  0.00  0.00    +0.000 A 
ATOM     16  C   UNL     1       0.905   9.529  19.762  0.00  0.00    +0.000 A 
ENDBRANCH   3  11
BRANCH   9  17
ATOM     17  C   UNL     1       5.639   4.320  17.380  0.00  0.00    +0.000 C 
BRANCH  17  18
ATOM     18  C   UNL     1       6.511   5.517  17.683  0.00  0.00    +0.000 A 
ATOM     19  C   UNL     1       7.486   5.445  18.689  0.00  0.00    +0.000 A 
ATOM     20  C   UNL     1       8.289   6.553  18.974  0.00  0.00    +0.000 A 
ATOM     21  C   UNL     1       8.122   7.744  18.260  0.00  0.00    +0.000 A 
ATOM     22  C   UNL     1       7.152   7.826  17.259  0.00  0.00    +0.000 A 
ATOM     23  C   UNL     1       6.350   6.719  16.967  0.00  0.00    +0.000 A 
ENDBRANCH  17  18
ENDBRANCH   9  17
TORSDOF 3
ENDMDL
MODEL 9
REMARK VINA RESULT:      -8.0      3.351      7.928
REMARK  Name = 
REMARK  3 active torsions:
REMARK  status: ('A' for Active; 'I' for Inactive)
REMARK    1  A    between atoms: C_3  and  C_4
REMARK    2  A    between atoms: N_15  and  C_16
REMARK    3  A    between atoms: C_16  and  C_17
REMARK                            x       y       z     vdW  Elec       q    Type
REMARK                         _______ _______ _______ _____ _____    ______ ____
ROOT
ATOM      1  O   UNL     1       1.710   9.479  17.362  0.00  0.00    +0.000 OA
ATOM      2  C   UNL     1       1.628   9.049  18.502  0.00  0.00    +0.000 C 
ATOM      3  C   UNL     1       2.165   7.795  19.007  0.00  0.00    +0.000 C 
ATOM      4  C   UNL     1       1.802   7.758  20.293  0.00  0.00    +0.000 C 
ATOM      5  O   UNL     1       1.080   8.847  20.665  0.00  0.00    +0.000 OA
ATOM      6  C   UNL     1       0.885   9.712  19.600  0.00  0.00    +0.000 C 
ATOM      7  C   UNL     1       1.336  11.115  19.941  0.00  0.00    +0.000 C 
ATOM      8  C   UNL     1       0.125  11.600  20.721  0.00  0.00    +0.000 C 
ATOM      9  N   UNL     1      -1.054  11.135  19.963  0.00  0.00    +0.000 NA
ATOM     10  C   UNL     1      -0.605   9.884  19.298  0.00  0.00    +0.000 C 
ENDROOT
BRANCH   3  11
ATOM     11  C   UNL     1       2.923   6.754  18.244  0.00  0.00    +0.000 A 
ATOM     12  C   UNL     1       4.073   7.092  17.503  0.00  0.00    +0.000 A 
ATOM     13  C   UNL     1       4.795   6.108  16.818  0.00  0.00    +0.000 A 
ATOM     14  C   UNL     1       4.381   4.775  16.855  0.00  0.00    +0.000 A 
ATOM     15  C   UNL     1       3.242   4.425  17.575  0.00  0.00    +0.000 A 
ATOM     16  C   UNL     1       2.518   5.400  18.264  0.00  0.00    +0.000 A 
ENDBRANCH   3  11
BRANCH   9  17
ATOM     17  C   UNL     1      -1.460  12.147  18.954  0.00  0.00    +0.000 C 
BRANCH  17  18
ATOM     18  C   UNL     1      -2.862  11.886  18.455  0.00  0.00    +0.000 A 
ATOM     19  C   UNL     1      -3.069  11.371  17.166  0.00  0.00    +0.000 A 
ATOM     20  C   UNL     1      -4.366  11.134  16.702  0.00  0.00    +0.000 A 
ATOM     21  C   UNL     1      -5.467  11.413  17.517  0.00  0.00    +0.000 A 
ATOM     22  C   UNL     1      -5.270  11.929  18.799  0.00  0.00    +0.000 A 
ATOM     23  C   UNL     1      -3.976  12.163  19.271  0.00  0.00    +0.000 A 
ENDBRANCH  17  18
ENDBRANCH   9  17
TORSDOF 3
ENDMDL
