MODEL 1
REMARK VINA RESULT:      -6.3      0.000      0.000
REMARK  Name = 
REMARK  17 active torsions:
REMARK  status: ('A' for Active; 'I' for Inactive)
REMARK    1  A    between atoms: C_1  and  C_2
REMARK    2  A    between atoms: C_2  and  C_3
REMARK    3  A    between atoms: C_3  and  C_4
REMARK    4  A    between atoms: C_4  and  C_5
REMARK    5  A    between atoms: C_6  and  C_7
REMARK    6  A    between atoms: C_7  and  C_8
REMARK    7  A    between atoms: C_8  and  C_9
REMARK    8  A    between atoms: C_9  and  C_10
REMARK    9  A    between atoms: C_10  and  C_11
REMARK   10  A    between atoms: C_11  and  C_12
REMARK   11  A    between atoms: C_12  and  C_13
REMARK   12  A    between atoms: C_13  and  C_14
REMARK   13  A    between atoms: C_14  and  C_15
REMARK   14  A    between atoms: C_17  and  C_18
REMARK   15  A    between atoms: C_18  and  O_20
REMARK   16  A    between atoms: O_20  and  C_21
REMARK   17  A    between atoms: C_22  and  N_23
REMARK                            x       y       z     vdW  Elec       q    Type
REMARK                         _______ _______ _______ _____ _____    ______ ____
ROOT
ATOM      1  C   UNL     1       2.199   5.021  20.832  0.00  0.00    +0.000 C 
ENDROOT
BRANCH   1   2
ATOM      2  C   UNL     1       1.004   4.303  20.232  0.00  0.00    +0.000 C 
BRANCH   2   3
ATOM      3  C   UNL     1       1.317   2.817  20.075  0.00  0.00    +0.000 C 
BRANCH   3   4
ATOM      4  C   UNL     1       1.203   2.423  18.613  0.00  0.00    +0.000 C 
BRANCH   4   5
ATOM      5  C   UNL     1       2.574   2.211  17.981  0.00  0.00    +0.000 C 
BRANCH   5   6
ATOM      6  C   UNL     1       2.938   3.356  17.036  0.00  0.00    +0.000 C 
BRANCH   6   7
ATOM      7  C   UNL     1       4.387   3.835  17.153  0.00  0.00    +0.000 C 
BRANCH   7   9
ATOM      8  C   UNL     1       5.488   5.579  15.702  0.00  0.00    +0.000 C 
ATOM      9  C   UNL     1       4.923   4.371  15.852  0.00  0.00    +0.000 C 
BRANCH   8  10
ATOM     10  C   UNL     1       5.678   6.522  16.848  0.00  0.00    +0.000 C 
BRANCH  10  11
ATOM     11  C   UNL     1       7.138   6.705  17.235  0.00  0.00    +0.000 C 
BRANCH  11  13
ATOM     12  C   UNL     1       6.850   5.483  19.409  0.00  0.00    +0.000 C 
ATOM     13  C   UNL     1       7.590   5.520  18.085  0.00  0.00    +0.000 C 
ENDBRANCH  11  13
ENDBRANCH  10  11
ENDBRANCH   8  10
ENDBRANCH   7   9
ENDBRANCH   6   7
ENDBRANCH   5   6
ENDBRANCH   4   5
ENDBRANCH   3   4
ENDBRANCH   2   3
ENDBRANCH   1   2
BRANCH   1  14
ATOM     14  C   UNL     1       2.918   5.876  19.792  0.00  0.00    +0.000 C 
BRANCH  14  15
ATOM     15  C   UNL     1       2.220   7.190  19.653  0.00  0.00    +0.000 A 
ATOM     16  C   UNL     1       1.545   7.885  20.629  0.00  0.00    +0.000 A 
ATOM     17  C   UNL     1       1.068   9.165  20.182  0.00  0.00    +0.000 A 
ATOM     18  C   UNL     1       1.402   9.377  18.854  0.00  0.00    +0.000 A 
ATOM     19  S   UNL     1       2.251   8.050  18.183  0.00  0.00    +0.000 S 
BRANCH  18  20
ATOM     20  N   UNL     1       1.146  10.457  18.091  0.00  0.00    +0.000 N 
ATOM     21  H   UNL     1       1.769  10.730  17.332  0.00  0.00    +0.000 HD
ATOM     22  H   UNL     1       0.402  11.107  18.319  0.00  0.00    +0.000 HD
ENDBRANCH  18  20
BRANCH  17  23
ATOM     23  C   UNL     1       0.342  10.120  21.013  0.00  0.00    +0.000 C 
ATOM     24  O   UNL     1       0.387  11.339  20.867  0.00  0.00    +0.000 OA
BRANCH  23  25
ATOM     25  O   UNL     1      -0.399   9.495  21.977  0.00  0.00    +0.000 OA
ATOM     26  C   UNL     1      -0.831  10.345  23.038  0.00  0.00    +0.000 C 
ENDBRANCH  23  25
ENDBRANCH  17  23
ENDBRANCH  14  15
ENDBRANCH   1  14
TORSDOF 15
ENDMDL
MODEL 2
REMARK VINA RESULT:      -6.0      0.740      1.097
REMARK  Name = 
REMARK  17 active torsions:
REMARK  status: ('A' for Active; 'I' for Inactive)
REMARK    1  A    between atoms: C_1  and  C_2
REMARK    2  A    between atoms: C_2  and  C_3
REMARK    3  A    between atoms: C_3  and  C_4
REMARK    4  A    between atoms: C_4  and  C_5
REMARK    5  A    between atoms: C_6  and  C_7
REMARK    6  A    between atoms: C_7  and  C_8
REMARK    7  A    between atoms: C_8  and  C_9
REMARK    8  A    between atoms: C_9  and  C_10
REMARK    9  A    between atoms: C_10  and  C_11
REMARK   10  A    between atoms: C_11  and  C_12
REMARK   11  A    between atoms: C_12  and  C_13
REMARK   12  A    between atoms: C_13  and  C_14
REMARK   13  A    between atoms: C_14  and  C_15
REMARK   14  A    between atoms: C_17  and  C_18
REMARK   15  A    between atoms: C_18  and  O_20
REMARK   16  A    between atoms: O_20  and  C_21
REMARK   17  A    between atoms: C_22  and  N_23
REMARK                            x       y       z     vdW  Elec       q    Type
REMARK                         _______ _______ _______ _____ _____    ______ ____
ROOT
ATOM      1  C   UNL     1       2.190   5.078  21.076  0.00  0.00    +0.000 C 
ENDROOT
BRANCH   1   2
ATOM      2  C   UNL     1       1.017   4.307  20.497  0.00  0.00    +0.000 C 
BRANCH   2   3
ATOM      3  C   UNL     1       1.396   2.839  20.326  0.00  0.00    +0.000 C 
BRANCH   3   4
ATOM      4  C   UNL     1       1.056   2.385  18.918  0.00  0.00    +0.000 C 
BRANCH   4   5
ATOM      5  C   UNL     1       1.836   3.170  17.871  0.00  0.00    +0.000 C 
BRANCH   5   6
ATOM      6  C   UNL     1       3.248   2.613  17.689  0.00  0.00    +0.000 C 
BRANCH   6   7
ATOM      7  C   UNL     1       4.354   3.670  17.728  0.00  0.00    +0.000 C 
BRANCH   7   9
ATOM      8  C   UNL     1       5.359   5.296  16.083  0.00  0.00    +0.000 C 
ATOM      9  C   UNL     1       4.765   4.122  16.352  0.00  0.00    +0.000 C 
BRANCH   8  10
ATOM     10  C   UNL     1       5.710   6.280  17.154  0.00  0.00    +0.000 C 
BRANCH  10  11
ATOM     11  C   UNL     1       7.143   6.782  17.057  0.00  0.00    +0.000 C 
BRANCH  11  13
ATOM     12  C   UNL     1       7.348   5.564  19.242  0.00  0.00    +0.000 C 
ATOM     13  C   UNL     1       7.776   6.783  18.446  0.00  0.00    +0.000 C 
ENDBRANCH  11  13
ENDBRANCH  10  11
ENDBRANCH   8  10
ENDBRANCH   7   9
ENDBRANCH   6   7
ENDBRANCH   5   6
ENDBRANCH   4   5
ENDBRANCH   3   4
ENDBRANCH   2   3
ENDBRANCH   1   2
BRANCH   1  14
ATOM     14  C   UNL     1       2.957   5.826  19.989  0.00  0.00    +0.000 C 
BRANCH  14  15
ATOM     15  C   UNL     1       2.291   7.136  19.715  0.00  0.00    +0.000 A 
ATOM     16  C   UNL     1       1.606   7.927  20.606  0.00  0.00    +0.000 A 
ATOM     17  C   UNL     1       1.167   9.172  20.035  0.00  0.00    +0.000 A 
ATOM     18  C   UNL     1       1.541   9.258  18.703  0.00  0.00    +0.000 A 
ATOM     19  S   UNL     1       2.378   7.860  18.176  0.00  0.00    +0.000 S 
BRANCH  18  20
ATOM     20  N   UNL     1       1.327  10.270  17.840  0.00  0.00    +0.000 N 
ATOM     21  H   UNL     1       1.004  10.098  16.889  0.00  0.00    +0.000 HD
ATOM     22  H   UNL     1       1.597  11.223  18.059  0.00  0.00    +0.000 HD
ENDBRANCH  18  20
BRANCH  17  23
ATOM     23  C   UNL     1       0.440  10.210  20.758  0.00  0.00    +0.000 C 
ATOM     24  O   UNL     1      -0.533  10.001  21.476  0.00  0.00    +0.000 OA
BRANCH  23  25
ATOM     25  O   UNL     1       0.976  11.450  20.541  0.00  0.00    +0.000 OA
ATOM     26  C   UNL     1       0.028  12.515  20.553  0.00  0.00    +0.000 C 
ENDBRANCH  23  25
ENDBRANCH  17  23
ENDBRANCH  14  15
ENDBRANCH   1  14
TORSDOF 15
ENDMDL
MODEL 3
REMARK VINA RESULT:      -5.9      3.819      6.171
REMARK  Name = 
REMARK  17 active torsions:
REMARK  status: ('A' for Active; 'I' for Inactive)
REMARK    1  A    between atoms: C_1  and  C_2
REMARK    2  A    between atoms: C_2  and  C_3
REMARK    3  A    between atoms: C_3  and  C_4
REMARK    4  A    between atoms: C_4  and  C_5
REMARK    5  A    between atoms: C_6  and  C_7
REMARK    6  A    between atoms: C_7  and  C_8
REMARK    7  A    between atoms: C_8  and  C_9
REMARK    8  A    between atoms: C_9  and  C_10
REMARK    9  A    between atoms: C_10  and  C_11
REMARK   10  A    between atoms: C_11  and  C_12
REMARK   11  A    between atoms: C_12  and  C_13
REMARK   12  A    between atoms: C_13  and  C_14
REMARK   13  A    between atoms: C_14  and  C_15
REMARK   14  A    between atoms: C_17  and  C_18
REMARK   15  A    between atoms: C_18  and  O_20
REMARK   16  A    between atoms: O_20  and  C_21
REMARK   17  A    between atoms: C_22  and  N_23
REMARK                            x       y       z     vdW  Elec       q    Type
REMARK                         _______ _______ _______ _____ _____    ______ ____
ROOT
ATOM      1  C   UNL     1       4.607   6.957  17.101  0.00  0.00    +0.000 C 
ENDROOT
BRANCH   1   2
ATOM      2  C   UNL     1       5.806   7.833  17.416  0.00  0.00    +0.000 C 
BRANCH   2   3
ATOM      3  C   UNL     1       7.096   7.065  17.140  0.00  0.00    +0.000 C 
BRANCH   3   4
ATOM      4  C   UNL     1       7.393   6.132  18.301  0.00  0.00    +0.000 C 
BRANCH   4   5
ATOM      5  C   UNL     1       7.514   4.684  17.840  0.00  0.00    +0.000 C 
BRANCH   5   6
ATOM      6  C   UNL     1       6.142   4.026  17.692  0.00  0.00    +0.000 C 
BRANCH   6   7
ATOM      7  C   UNL     1       5.870   3.439  16.305  0.00  0.00    +0.000 C 
BRANCH   7   9
ATOM      8  C   UNL     1       5.541   4.686  14.138  0.00  0.00    +0.000 C 
ATOM      9  C   UNL     1       5.165   4.412  15.397  0.00  0.00    +0.000 C 
BRANCH   8  10
ATOM     10  C   UNL     1       6.705   4.010  13.484  0.00  0.00    +0.000 C 
BRANCH  10  11
ATOM     11  C   UNL     1       6.437   3.628  12.036  0.00  0.00    +0.000 C 
BRANCH  11  13
ATOM     12  C   UNL     1       4.142   3.217  11.106  0.00  0.00    +0.000 C 
ATOM     13  C   UNL     1       5.255   2.664  11.976  0.00  0.00    +0.000 C 
ENDBRANCH  11  13
ENDBRANCH  10  11
ENDBRANCH   8  10
ENDBRANCH   7   9
ENDBRANCH   6   7
ENDBRANCH   5   6
ENDBRANCH   4   5
ENDBRANCH   3   4
ENDBRANCH   2   3
ENDBRANCH   1   2
BRANCH   1  14
ATOM     14  C   UNL     1       3.383   7.374  17.912  0.00  0.00    +0.000 C 
BRANCH  14  15
ATOM     15  C   UNL     1       2.717   6.161  18.476  0.00  0.00    +0.000 A 
ATOM     16  C   UNL     1       2.437   4.982  17.825  0.00  0.00    +0.000 A 
ATOM     17  C   UNL     1       1.871   3.981  18.688  0.00  0.00    +0.000 A 
ATOM     18  C   UNL     1       1.736   4.466  19.979  0.00  0.00    +0.000 A 
ATOM     19  S   UNL     1       2.266   6.088  20.117  0.00  0.00    +0.000 S 
BRANCH  18  20
ATOM     20  N   UNL     1       1.265   3.825  21.066  0.00  0.00    +0.000 N 
ATOM     21  H   UNL     1       0.265   3.686  21.208  0.00  0.00    +0.000 HD
ATOM     22  H   UNL     1       1.870   3.572  21.839  0.00  0.00    +0.000 HD
ENDBRANCH  18  20
BRANCH  17  23
ATOM     23  C   UNL     1       1.501   2.633  18.269  0.00  0.00    +0.000 C 
ATOM     24  O   UNL     1       0.391   2.136  18.439  0.00  0.00    +0.000 OA
BRANCH  23  25
ATOM     25  O   UNL     1       2.540   1.986  17.660  0.00  0.00    +0.000 OA
ATOM     26  C   UNL     1       3.523   1.469  18.554  0.00  0.00    +0.000 C 
ENDBRANCH  23  25
ENDBRANCH  17  23
ENDBRANCH  14  15
ENDBRANCH   1  14
TORSDOF 15
ENDMDL
MODEL 4
REMARK VINA RESULT:      -5.8      1.332      4.051
REMARK  Name = 
REMARK  17 active torsions:
REMARK  status: ('A' for Active; 'I' for Inactive)
REMARK    1  A    between atoms: C_1  and  C_2
REMARK    2  A    between atoms: C_2  and  C_3
REMARK    3  A    between atoms: C_3  and  C_4
REMARK    4  A    between atoms: C_4  and  C_5
REMARK    5  A    between atoms: C_6  and  C_7
REMARK    6  A    between atoms: C_7  and  C_8
REMARK    7  A    between atoms: C_8  and  C_9
REMARK    8  A    between atoms: C_9  and  C_10
REMARK    9  A    between atoms: C_10  and  C_11
REMARK   10  A    between atoms: C_11  and  C_12
REMARK   11  A    between atoms: C_12  and  C_13
REMARK   12  A    between atoms: C_13  and  C_14
REMARK   13  A    between atoms: C_14  and  C_15
REMARK   14  A    between atoms: C_17  and  C_18
REMARK   15  A    between atoms: C_18  and  O_20
REMARK   16  A    between atoms: O_20  and  C_21
REMARK   17  A    between atoms: C_22  and  N_23
REMARK                            x       y       z     vdW  Elec       q    Type
REMARK                         _______ _______ _______ _____ _____    ______ ____
ROOT
ATOM      1  C   UNL     1       2.925   7.358  17.529  0.00  0.00    +0.000 C 
ENDROOT
BRANCH   1   2
ATOM      2  C   UNL     1       4.411   7.566  17.299  0.00  0.00    +0.000 C 
BRANCH   2   3
ATOM      3  C   UNL     1       4.887   6.682  16.149  0.00  0.00    +0.000 C 
BRANCH   3   4
ATOM      4  C   UNL     1       6.229   6.066  16.500  0.00  0.00    +0.000 C 
BRANCH   4   5
ATOM      5  C   UNL     1       6.365   5.832  18.000  0.00  0.00    +0.000 C 
BRANCH   5   6
ATOM      6  C   UNL     1       6.135   4.364  18.361  0.00  0.00    +0.000 C 
BRANCH   6   7
ATOM      7  C   UNL     1       4.669   3.995  18.599  0.00  0.00    +0.000 C 
BRANCH   7   9
ATOM      8  C   UNL     1       2.743   3.151  17.206  0.00  0.00    +0.000 C 
ATOM      9  C   UNL     1       4.062   3.268  17.427  0.00  0.00    +0.000 C 
BRANCH   8  10
ATOM     10  C   UNL     1       1.721   3.776  18.102  0.00  0.00    +0.000 C 
BRANCH  10  11
ATOM     11  C   UNL     1       0.964   2.760  18.944  0.00  0.00    +0.000 C 
BRANCH  11  13
ATOM     12  C   UNL     1       2.203   3.233  21.075  0.00  0.00    +0.000 C 
ATOM     13  C   UNL     1       0.856   3.269  20.379  0.00  0.00    +0.000 C 
ENDBRANCH  11  13
ENDBRANCH  10  11
ENDBRANCH   8  10
ENDBRANCH   7   9
ENDBRANCH   6   7
ENDBRANCH   5   6
ENDBRANCH   4   5
ENDBRANCH   3   4
ENDBRANCH   2   3
ENDBRANCH   1   2
BRANCH   1  14
ATOM     14  C   UNL     1       2.622   7.067  18.996  0.00  0.00    +0.000 C 
BRANCH  14  15
ATOM     15  C   UNL     1       1.788   8.168  19.566  0.00  0.00    +0.000 A 
ATOM     16  C   UNL     1       1.328   8.285  20.857  0.00  0.00    +0.000 A 
ATOM     17  C   UNL     1       0.627   9.517  21.096  0.00  0.00    +0.000 A 
ATOM     18  C   UNL     1       0.579  10.286  19.944  0.00  0.00    +0.000 A 
ATOM     19  S   UNL     1       1.347   9.515  18.622  0.00  0.00    +0.000 S 
BRANCH  18  20
ATOM     20  N   UNL     1       0.027  11.503  19.775  0.00  0.00    +0.000 N 
ATOM     21  H   UNL     1       0.249  12.278  20.399  0.00  0.00    +0.000 HD
ATOM     22  H   UNL     1      -0.720  11.662  19.108  0.00  0.00    +0.000 HD
ENDBRANCH  18  20
BRANCH  17  23
ATOM     23  C   UNL     1       0.055   9.915  22.379  0.00  0.00    +0.000 C 
ATOM     24  O   UNL     1       0.593   9.722  23.466  0.00  0.00    +0.000 OA
BRANCH  23  25
ATOM     25  O   UNL     1      -1.155  10.533  22.226  0.00  0.00    +0.000 OA
ATOM     26  C   UNL     1      -1.384  11.619  23.122  0.00  0.00    +0.000 C 
ENDBRANCH  23  25
ENDBRANCH  17  23
ENDBRANCH  14  15
ENDBRANCH   1  14
TORSDOF 15
ENDMDL
MODEL 5
REMARK VINA RESULT:      -5.8      3.584      6.341
REMARK  Name = 
REMARK  17 active torsions:
REMARK  status: ('A' for Active; 'I' for Inactive)
REMARK    1  A    between atoms: C_1  and  C_2
REMARK    2  A    between atoms: C_2  and  C_3
REMARK    3  A    between atoms: C_3  and  C_4
REMARK    4  A    between atoms: C_4  and  C_5
REMARK    5  A    between atoms: C_6  and  C_7
REMARK    6  A    between atoms: C_7  and  C_8
REMARK    7  A    between atoms: C_8  and  C_9
REMARK    8  A    between atoms: C_9  and  C_10
REMARK    9  A    between atoms: C_10  and  C_11
REMARK   10  A    between atoms: C_11  and  C_12
REMARK   11  A    between atoms: C_12  and  C_13
REMARK   12  A    between atoms: C_13  and  C_14
REMARK   13  A    between atoms: C_14  and  C_15
REMARK   14  A    between atoms: C_17  and  C_18
REMARK   15  A    between atoms: C_18  and  O_20
REMARK   16  A    between atoms: O_20  and  C_21
REMARK   17  A    between atoms: C_22  and  N_23
REMARK                            x       y       z     vdW  Elec       q    Type
REMARK                         _______ _______ _______ _____ _____    ______ ____
ROOT
ATOM      1  C   UNL     1       3.628   2.520  17.647  0.00  0.00    +0.000 C 
ENDROOT
BRANCH   1   2
ATOM      2  C   UNL     1       2.616   1.707  18.433  0.00  0.00    +0.000 C 
BRANCH   2   3
ATOM      3  C   UNL     1       1.270   2.427  18.448  0.00  0.00    +0.000 C 
BRANCH   3   4
ATOM      4  C   UNL     1       0.684   2.385  19.848  0.00  0.00    +0.000 C 
BRANCH   4   5
ATOM      5  C   UNL     1       1.318   3.435  20.753  0.00  0.00    +0.000 C 
BRANCH   5   6
ATOM      6  C   UNL     1       0.981   4.852  20.290  0.00  0.00    +0.000 C 
BRANCH   6   7
ATOM      7  C   UNL     1       2.094   5.876  20.529  0.00  0.00    +0.000 C 
BRANCH   7   9
ATOM      8  C   UNL     1       1.538   8.300  20.112  0.00  0.00    +0.000 C 
ATOM      9  C   UNL     1       1.556   7.227  20.919  0.00  0.00    +0.000 C 
BRANCH   8  10
ATOM     10  C   UNL     1       2.029   8.249  18.700  0.00  0.00    +0.000 C 
BRANCH  10  11
ATOM     11  C   UNL     1       1.439   9.343  17.823  0.00  0.00    +0.000 C 
BRANCH  11  13
ATOM     12  C   UNL     1       0.969  11.605  18.803  0.00  0.00    +0.000 C 
ATOM     13  C   UNL     1       2.033  10.691  18.225  0.00  0.00    +0.000 C 
ENDBRANCH  11  13
ENDBRANCH  10  11
ENDBRANCH   8  10
ENDBRANCH   7   9
ENDBRANCH   6   7
ENDBRANCH   5   6
ENDBRANCH   4   5
ENDBRANCH   3   4
ENDBRANCH   2   3
ENDBRANCH   1   2
BRANCH   1  14
ATOM     14  C   UNL     1       3.460   4.016  17.900  0.00  0.00    +0.000 C 
BRANCH  14  15
ATOM     15  C   UNL     1       4.673   4.746  17.425  0.00  0.00    +0.000 A 
ATOM     16  C   UNL     1       5.423   5.665  18.122  0.00  0.00    +0.000 A 
ATOM     17  C   UNL     1       6.584   6.110  17.401  0.00  0.00    +0.000 A 
ATOM     18  C   UNL     1       6.653   5.501  16.158  0.00  0.00    +0.000 A 
ATOM     19  S   UNL     1       5.335   4.442  15.885  0.00  0.00    +0.000 S 
BRANCH  18  20
ATOM     20  N   UNL     1       7.596   5.647  15.208  0.00  0.00    +0.000 N 
ATOM     21  H   UNL     1       8.447   5.087  15.214  0.00  0.00    +0.000 HD
ATOM     22  H   UNL     1       7.557   6.400  14.530  0.00  0.00    +0.000 HD
ENDBRANCH  18  20
BRANCH  17  23
ATOM     23  C   UNL     1       7.566   7.062  17.909  0.00  0.00    +0.000 C 
ATOM     24  O   UNL     1       8.328   6.837  18.846  0.00  0.00    +0.000 OA
BRANCH  23  25
ATOM     25  O   UNL     1       7.540   8.239  17.214  0.00  0.00    +0.000 OA
ATOM     26  C   UNL     1       8.201   9.325  17.861  0.00  0.00    +0.000 C 
ENDBRANCH  23  25
ENDBRANCH  17  23
ENDBRANCH  14  15
ENDBRANCH   1  14
TORSDOF 15
ENDMDL
MODEL 6
REMARK VINA RESULT:      -5.6      2.099      3.334
REMARK  Name = 
REMARK  17 active torsions:
REMARK  status: ('A' for Active; 'I' for Inactive)
REMARK    1  A    between atoms: C_1  and  C_2
REMARK    2  A    between atoms: C_2  and  C_3
REMARK    3  A    between atoms: C_3  and  C_4
REMARK    4  A    between atoms: C_4  and  C_5
REMARK    5  A    between atoms: C_6  and  C_7
REMARK    6  A    between atoms: C_7  and  C_8
REMARK    7  A    between atoms: C_8  and  C_9
REMARK    8  A    between atoms: C_9  and  C_10
REMARK    9  A    between atoms: C_10  and  C_11
REMARK   10  A    between atoms: C_11  and  C_12
REMARK   11  A    between atoms: C_12  and  C_13
REMARK   12  A    between atoms: C_13  and  C_14
REMARK   13  A    between atoms: C_14  and  C_15
REMARK   14  A    between atoms: C_17  and  C_18
REMARK   15  A    between atoms: C_18  and  O_20
REMARK   16  A    between atoms: O_20  and  C_21
REMARK   17  A    between atoms: C_22  and  N_23
REMARK                            x       y       z     vdW  Elec       q    Type
REMARK                         _______ _______ _______ _____ _____    ______ ____
ROOT
ATOM      1  C   UNL     1       1.699   4.420  19.866  0.00  0.00    +0.000 C 
ENDROOT
BRANCH   1   2
ATOM      2  C   UNL     1       2.351   3.312  19.059  0.00  0.00    +0.000 C 
BRANCH   2   3
ATOM      3  C   UNL     1       2.003   3.473  17.581  0.00  0.00    +0.000 C 
BRANCH   3   4
ATOM      4  C   UNL     1       3.230   3.932  16.815  0.00  0.00    +0.000 C 
BRANCH   4   5
ATOM      5  C   UNL     1       4.511   3.674  17.600  0.00  0.00    +0.000 C 
BRANCH   5   6
ATOM      6  C   UNL     1       5.654   4.569  17.119  0.00  0.00    +0.000 C 
BRANCH   6   7
ATOM      7  C   UNL     1       5.393   5.259  15.778  0.00  0.00    +0.000 C 
BRANCH   7   9
ATOM      8  C   UNL     1       6.658   4.360  13.790  0.00  0.00    +0.000 C 
ATOM      9  C   UNL     1       6.577   5.179  14.851  0.00  0.00    +0.000 C 
BRANCH   8  10
ATOM     10  C   UNL     1       5.538   3.450  13.394  0.00  0.00    +0.000 C 
BRANCH  10  11
ATOM     11  C   UNL     1       5.358   3.347  11.887  0.00  0.00    +0.000 C 
BRANCH  11  13
ATOM     12  C   UNL     1       7.121   1.708  11.175  0.00  0.00    +0.000 C 
ATOM     13  C   UNL     1       5.641   1.915  11.439  0.00  0.00    +0.000 C 
ENDBRANCH  11  13
ENDBRANCH  10  11
ENDBRANCH   8  10
ENDBRANCH   7   9
ENDBRANCH   6   7
ENDBRANCH   5   6
ENDBRANCH   4   5
ENDBRANCH   3   4
ENDBRANCH   2   3
ENDBRANCH   1   2
BRANCH   1  14
ATOM     14  C   UNL     1       2.711   5.490  20.265  0.00  0.00    +0.000 C 
BRANCH  14  15
ATOM     15  C   UNL     1       2.194   6.839  19.881  0.00  0.00    +0.000 A 
ATOM     16  C   UNL     1       1.504   7.725  20.675  0.00  0.00    +0.000 A 
ATOM     17  C   UNL     1       1.233   8.977  20.020  0.00  0.00    +0.000 A 
ATOM     18  C   UNL     1       1.734   8.972  18.728  0.00  0.00    +0.000 A 
ATOM     19  S   UNL     1       2.487   7.485  18.333  0.00  0.00    +0.000 S 
BRANCH  18  20
ATOM     20  N   UNL     1       1.692   9.960  17.813  0.00  0.00    +0.000 N 
ATOM     21  H   UNL     1       1.111  10.786  17.950  0.00  0.00    +0.000 HD
ATOM     22  H   UNL     1       2.133   9.864  16.905  0.00  0.00    +0.000 HD
ENDBRANCH  18  20
BRANCH  17  23
ATOM     23  C   UNL     1       0.540  10.105  20.633  0.00  0.00    +0.000 C 
ATOM     24  O   UNL     1      -0.229  10.852  20.034  0.00  0.00    +0.000 OA
BRANCH  23  25
ATOM     25  O   UNL     1       0.846  10.230  21.960  0.00  0.00    +0.000 OA
ATOM     26  C   UNL     1      -0.270  10.110  22.840  0.00  0.00    +0.000 C 
ENDBRANCH  23  25
ENDBRANCH  17  23
ENDBRANCH  14  15
ENDBRANCH   1  14
TORSDOF 15
ENDMDL
MODEL 7
REMARK VINA RESULT:      -5.6      3.859      7.233
REMARK  Name = 
REMARK  17 active torsions:
REMARK  status: ('A' for Active; 'I' for Inactive)
REMARK    1  A    between atoms: C_1  and  C_2
REMARK    2  A    between atoms: C_2  and  C_3
REMARK    3  A    between atoms: C_3  and  C_4
REMARK    4  A    between atoms: C_4  and  C_5
REMARK    5  A    between atoms: C_6  and  C_7
REMARK    6  A    between atoms: C_7  and  C_8
REMARK    7  A    between atoms: C_8  and  C_9
REMARK    8  A    between atoms: C_9  and  C_10
REMARK    9  A    between atoms: C_10  and  C_11
REMARK   10  A    between atoms: C_11  and  C_12
REMARK   11  A    between atoms: C_12  and  C_13
REMARK   12  A    between atoms: C_13  and  C_14
REMARK   13  A    between atoms: C_14  and  C_15
REMARK   14  A    between atoms: C_17  and  C_18
REMARK   15  A    between atoms: C_18  and  O_20
REMARK   16  A    between atoms: O_20  and  C_21
REMARK   17  A    between atoms: C_22  and  N_23
REMARK                            x       y       z     vdW  Elec       q    Type
REMARK                         _______ _______ _______ _____ _____    ______ ____
ROOT
ATOM      1  C   UNL     1       1.562   2.835  19.365  0.00  0.00    +0.000 C 
ENDROOT
BRANCH   1   2
ATOM      2  C   UNL     1       1.235   4.280  19.033  0.00  0.00    +0.000 C 
BRANCH   2   3
ATOM      3  C   UNL     1       1.569   5.174  20.224  0.00  0.00    +0.000 C 
BRANCH   3   4
ATOM      4  C   UNL     1       2.420   6.343  19.762  0.00  0.00    +0.000 C 
BRANCH   4   5
ATOM      5  C   UNL     1       2.392   6.492  18.245  0.00  0.00    +0.000 C 
BRANCH   5   6
ATOM      6  C   UNL     1       2.911   7.862  17.807  0.00  0.00    +0.000 C 
BRANCH   6   7
ATOM      7  C   UNL     1       2.162   9.047  18.421  0.00  0.00    +0.000 C 
BRANCH   7   9
ATOM      8  C   UNL     1      -0.163  10.019  18.319  0.00  0.00    +0.000 C 
ATOM      9  C   UNL     1       0.812   9.264  17.789  0.00  0.00    +0.000 C 
BRANCH   8  10
ATOM     10  C   UNL     1       0.011  10.767  19.603  0.00  0.00    +0.000 C 
BRANCH  10  11
ATOM     11  C   UNL     1      -0.284  12.253  19.474  0.00  0.00    +0.000 C 
BRANCH  11  13
ATOM     12  C   UNL     1       2.143  12.822  19.178  0.00  0.00    +0.000 C 
ATOM     13  C   UNL     1       0.758  12.900  18.565  0.00  0.00    +0.000 C 
ENDBRANCH  11  13
ENDBRANCH  10  11
ENDBRANCH   8  10
ENDBRANCH   7   9
ENDBRANCH   6   7
ENDBRANCH   5   6
ENDBRANCH   4   5
ENDBRANCH   3   4
ENDBRANCH   2   3
ENDBRANCH   1   2
BRANCH   1  14
ATOM     14  C   UNL     1       2.437   2.199  18.288  0.00  0.00    +0.000 C 
BRANCH  14  15
ATOM     15  C   UNL     1       3.678   3.011  18.105  0.00  0.00    +0.000 A 
ATOM     16  C   UNL     1       4.143   3.574  16.939  0.00  0.00    +0.000 A 
ATOM     17  C   UNL     1       5.323   4.373  17.131  0.00  0.00    +0.000 A 
ATOM     18  C   UNL     1       5.710   4.366  18.462  0.00  0.00    +0.000 A 
ATOM     19  S   UNL     1       4.675   3.403  19.429  0.00  0.00    +0.000 S 
BRANCH  18  20
ATOM     20  N   UNL     1       6.749   5.005  19.032  0.00  0.00    +0.000 N 
ATOM     21  H   UNL     1       6.615   5.637  19.820  0.00  0.00    +0.000 HD
ATOM     22  H   UNL     1       7.677   4.983  18.624  0.00  0.00    +0.000 HD
ENDBRANCH  18  20
BRANCH  17  23
ATOM     23  C   UNL     1       6.015   5.104  16.074  0.00  0.00    +0.000 C 
ATOM     24  O   UNL     1       5.924   6.315  15.897  0.00  0.00    +0.000 OA
BRANCH  23  25
ATOM     25  O   UNL     1       6.782   4.276  15.301  0.00  0.00    +0.000 OA
ATOM     26  C   UNL     1       6.424   4.252  13.921  0.00  0.00    +0.000 C 
ENDBRANCH  23  25
ENDBRANCH  17  23
ENDBRANCH  14  15
ENDBRANCH   1  14
TORSDOF 15
ENDMDL
MODEL 8
REMARK VINA RESULT:      -5.6      4.803      7.937
REMARK  Name = 
REMARK  17 active torsions:
REMARK  status: ('A' for Active; 'I' for Inactive)
REMARK    1  A    between atoms: C_1  and  C_2
REMARK    2  A    between atoms: C_2  and  C_3
REMARK    3  A    between atoms: C_3  and  C_4
REMARK    4  A    between atoms: C_4  and  C_5
REMARK    5  A    between atoms: C_6  and  C_7
REMARK    6  A    between atoms: C_7  and  C_8
REMARK    7  A    between atoms: C_8  and  C_9
REMARK    8  A    between atoms: C_9  and  C_10
REMARK    9  A    between atoms: C_10  and  C_11
REMARK   10  A    between atoms: C_11  and  C_12
REMARK   11  A    between atoms: C_12  and  C_13
REMARK   12  A    between atoms: C_13  and  C_14
REMARK   13  A    between atoms: C_14  and  C_15
REMARK   14  A    between atoms: C_17  and  C_18
REMARK   15  A    between atoms: C_18  and  O_20
REMARK   16  A    between atoms: O_20  and  C_21
REMARK   17  A    between atoms: C_22  and  N_23
REMARK                            x       y       z     vdW  Elec       q    Type
REMARK                         _______ _______ _______ _____ _____    ______ ____
ROOT
ATOM      1  C   UNL     1       4.324   3.065  17.841  0.00  0.00    +0.000 C 
ENDROOT
BRANCH   1   2
ATOM      2  C   UNL     1       4.047   3.304  19.315  0.00  0.00    +0.000 C 
BRANCH   2   3
ATOM      3  C   UNL     1       2.673   2.749  19.681  0.00  0.00    +0.000 C 
BRANCH   3   4
ATOM      4  C   UNL     1       1.680   3.890  19.810  0.00  0.00    +0.000 C 
BRANCH   4   5
ATOM      5  C   UNL     1       2.150   4.932  20.818  0.00  0.00    +0.000 C 
BRANCH   5   6
ATOM      6  C   UNL     1       1.962   6.353  20.286  0.00  0.00    +0.000 C 
BRANCH   6   7
ATOM      7  C   UNL     1       1.905   6.453  18.760  0.00  0.00    +0.000 C 
BRANCH   7   9
ATOM      8  C   UNL     1       2.625   8.679  17.819  0.00  0.00    +0.000 C 
ATOM      9  C   UNL     1       2.913   7.428  18.210  0.00  0.00    +0.000 C 
BRANCH   8  10
ATOM     10  C   UNL     1       1.248   9.254  17.924  0.00  0.00    +0.000 C 
BRANCH  10  11
ATOM     11  C   UNL     1       1.072  10.164  19.130  0.00  0.00    +0.000 C 
BRANCH  11  13
ATOM     12  C   UNL     1      -0.187   9.463  21.187  0.00  0.00    +0.000 C 
ATOM     13  C   UNL     1      -0.305   9.929  19.747  0.00  0.00    +0.000 C 
ENDBRANCH  11  13
ENDBRANCH  10  11
ENDBRANCH   8  10
ENDBRANCH   7   9
ENDBRANCH   6   7
ENDBRANCH   5   6
ENDBRANCH   4   5
ENDBRANCH   3   4
ENDBRANCH   2   3
ENDBRANCH   1   2
BRANCH   1  14
ATOM     14  C   UNL     1       4.103   4.332  17.019  0.00  0.00    +0.000 C 
BRANCH  14  15
ATOM     15  C   UNL     1       5.117   4.404  15.924  0.00  0.00    +0.000 A 
ATOM     16  C   UNL     1       5.055   3.803  14.687  0.00  0.00    +0.000 A 
ATOM     17  C   UNL     1       6.158   4.153  13.834  0.00  0.00    +0.000 A 
ATOM     18  C   UNL     1       7.029   5.012  14.486  0.00  0.00    +0.000 A 
ATOM     19  S   UNL     1       6.519   5.357  16.084  0.00  0.00    +0.000 S 
BRANCH  18  20
ATOM     20  N   UNL     1       8.161   5.569  14.014  0.00  0.00    +0.000 N 
ATOM     21  H   UNL     1       8.249   6.578  13.902  0.00  0.00    +0.000 HD
ATOM     22  H   UNL     1       8.914   5.006  13.637  0.00  0.00    +0.000 HD
ENDBRANCH  18  20
BRANCH  17  23
ATOM     23  C   UNL     1       6.334   3.682  12.465  0.00  0.00    +0.000 C 
ATOM     24  O   UNL     1       7.262   4.014  11.733  0.00  0.00    +0.000 OA
BRANCH  23  25
ATOM     25  O   UNL     1       5.340   2.819  12.092  0.00  0.00    +0.000 OA
ATOM     26  C   UNL     1       5.793   1.654  11.406  0.00  0.00    +0.000 C 
ENDBRANCH  23  25
ENDBRANCH  17  23
ENDBRANCH  14  15
ENDBRANCH   1  14
TORSDOF 15
ENDMDL
MODEL 9
REMARK VINA RESULT:      -5.5      3.926      8.037
REMARK  Name = 
REMARK  17 active torsions:
REMARK  status: ('A' for Active; 'I' for Inactive)
REMARK    1  A    between atoms: C_1  and  C_2
REMARK    2  A    between atoms: C_2  and  C_3
REMARK    3  A    between atoms: C_3  and  C_4
REMARK    4  A    between atoms: C_4  and  C_5
REMARK    5  A    between atoms: C_6  and  C_7
REMARK    6  A    between atoms: C_7  and  C_8
REMARK    7  A    between atoms: C_8  and  C_9
REMARK    8  A    between atoms: C_9  and  C_10
REMARK    9  A    between atoms: C_10  and  C_11
REMARK   10  A    between atoms: C_11  and  C_12
REMARK   11  A    between atoms: C_12  and  C_13
REMARK   12  A    between atoms: C_13  and  C_14
REMARK   13  A    between atoms: C_14  and  C_15
REMARK   14  A    between atoms: C_17  and  C_18
REMARK   15  A    between atoms: C_18  and  O_20
REMARK   16  A    between atoms: O_20  and  C_21
REMARK   17  A    between atoms: C_22  and  N_23
REMARK                            x       y       z     vdW  Elec       q    Type
REMARK                         _______ _______ _______ _____ _____    ______ ____
ROOT
ATOM      1  C   UNL     1       2.407   8.410  18.284  0.00  0.00    +0.000 C 
ENDROOT
BRANCH   1   2
ATOM      2  C   UNL     1       1.355   9.217  19.022  0.00  0.00    +0.000 C 
BRANCH   2   3
ATOM      3  C   UNL     1       1.311   8.795  20.488  0.00  0.00    +0.000 C 
BRANCH   3   4
ATOM      4  C   UNL     1      -0.125   8.815  20.982  0.00  0.00    +0.000 C 
BRANCH   4   5
ATOM      5  C   UNL     1      -0.289   9.726  22.192  0.00  0.00    +0.000 C 
BRANCH   5   6
ATOM      6  C   UNL     1      -0.148  11.200  21.808  0.00  0.00    +0.000 C 
BRANCH   6   7
ATOM      7  C   UNL     1      -1.345  11.770  21.044  0.00  0.00    +0.000 C 
BRANCH   7   9
ATOM      8  C   UNL     1      -1.236  11.804  18.525  0.00  0.00    +0.000 C 
ATOM      9  C   UNL     1      -0.951  12.357  19.714  0.00  0.00    +0.000 C 
BRANCH   8  10
ATOM     10  C   UNL     1      -2.023  10.538  18.398  0.00  0.00    +0.000 C 
BRANCH  10  11
ATOM     11  C   UNL     1      -1.932   9.915  17.013  0.00  0.00    +0.000 C 
BRANCH  11  13
ATOM     12  C   UNL     1      -2.941  10.114  14.723  0.00  0.00    +0.000 C 
ATOM     13  C   UNL     1      -3.183  10.270  16.213  0.00  0.00    +0.000 C 
ENDBRANCH  11  13
ENDBRANCH  10  11
ENDBRANCH   8  10
ENDBRANCH   7   9
ENDBRANCH   6   7
ENDBRANCH   5   6
ENDBRANCH   4   5
ENDBRANCH   3   4
ENDBRANCH   2   3
ENDBRANCH   1   2
BRANCH   1  14
ATOM     14  C   UNL     1       1.808   7.156  17.653  0.00  0.00    +0.000 C 
BRANCH  14  15
ATOM     15  C   UNL     1       2.541   5.948  18.140  0.00  0.00    +0.000 A 
ATOM     16  C   UNL     1       2.003   4.735  18.502  0.00  0.00    +0.000 A 
ATOM     17  C   UNL     1       3.000   3.754  18.837  0.00  0.00    +0.000 A 
ATOM     18  C   UNL     1       4.273   4.289  18.722  0.00  0.00    +0.000 A 
ATOM     19  S   UNL     1       4.241   5.932  18.238  0.00  0.00    +0.000 S 
BRANCH  18  20
ATOM     20  N   UNL     1       5.456   3.681  18.933  0.00  0.00    +0.000 N 
ATOM     21  H   UNL     1       5.564   2.964  19.649  0.00  0.00    +0.000 HD
ATOM     22  H   UNL     1       6.307   3.998  18.481  0.00  0.00    +0.000 HD
ENDBRANCH  18  20
BRANCH  17  23
ATOM     23  C   UNL     1       2.715   2.379  19.233  0.00  0.00    +0.000 C 
ATOM     24  O   UNL     1       3.260   1.392  18.746  0.00  0.00    +0.000 OA
BRANCH  23  25
ATOM     25  O   UNL     1       1.767   2.319  20.217  0.00  0.00    +0.000 OA
ATOM     26  C   UNL     1       2.228   2.712  21.509  0.00  0.00    +0.000 C 
ENDBRANCH  23  25
ENDBRANCH  17  23
ENDBRANCH  14  15
ENDBRANCH   1  14
TORSDOF 15
ENDMDL
