MODEL 1
REMARK VINA RESULT:      -8.4      0.000      0.000
REMARK  Name = 
REMARK  11 active torsions:
REMARK  status: ('A' for Active; 'I' for Inactive)
REMARK    1  A    between atoms: C_1  and  C_2
REMARK    2  A    between atoms: C_5  and  O_6
REMARK    3  A    between atoms: O_6  and  C_7
REMARK    4  A    between atoms: C_7  and  C_8
REMARK    5  A    between atoms: N_16  and  C_17
REMARK    6  A    between atoms: C_17  and  C_18
REMARK    7  A    between atoms: C_17  and  C_25
REMARK    8  A    between atoms: N_20  and  C_21
REMARK    9  A    between atoms: C_21  and  C_22
REMARK   10  A    between atoms: C_21  and  C_23
REMARK   11  A    between atoms: C_21  and  C_24
REMARK                            x       y       z     vdW  Elec       q    Type
REMARK                         _______ _______ _______ _____ _____    ______ ____
ROOT
ATOM      1  C   UNL     1       7.078   6.611  17.232  0.00  0.00    +0.000 A 
ATOM      2  N   UNL     1       7.709   6.303  16.112  0.00  0.00    +0.000 NA
ATOM      3  C   UNL     1       6.916   5.415  15.450  0.00  0.00    +0.000 A 
ATOM      4  C   UNL     1       7.127   4.801  14.207  0.00  0.00    +0.000 A 
ATOM      5  C   UNL     1       6.154   3.931  13.709  0.00  0.00    +0.000 A 
ATOM      6  C   UNL     1       4.988   3.683  14.435  0.00  0.00    +0.000 A 
ATOM      7  C   UNL     1       4.767   4.284  15.682  0.00  0.00    +0.000 A 
ATOM      8  C   UNL     1       5.760   5.145  16.175  0.00  0.00    +0.000 A 
ATOM      9  N   UNL     1       5.907   5.878  17.348  0.00  0.00    +0.000 N 
ENDROOT
BRANCH   1  10
ATOM     10  C   UNL     1       7.579   7.662  18.166  0.00  0.00    +0.000 C 
BRANCH  10  11
ATOM     11  O   UNL     1       7.950   8.823  17.416  0.00  0.00    +0.000 OA
BRANCH  11  16
ATOM     12  C   UNL     1      10.370  13.117  20.253  0.00  0.00    +0.000 C 
ATOM     13  C   UNL     1       9.696  11.992  19.524  0.00  0.00    +0.000 A 
ATOM     14  C   UNL     1       9.052  12.189  18.297  0.00  0.00    +0.000 A 
ATOM     15  C   UNL     1       8.458  11.112  17.627  0.00  0.00    +0.000 A 
ATOM     16  C   UNL     1       8.513   9.826  18.166  0.00  0.00    +0.000 A 
ATOM     17  C   UNL     1       9.106   9.642  19.418  0.00  0.00    +0.000 A 
ATOM     18  C   UNL     1       9.701  10.713  20.086  0.00  0.00    +0.000 A 
ENDBRANCH  11  16
ENDBRANCH  10  11
ENDBRANCH   1  10
BRANCH   9  19
ATOM     19  C   UNL     1       4.993   5.776  18.502  0.00  0.00    +0.000 C 
BRANCH  19  20
ATOM     20  C   UNL     1       3.802   6.733  18.477  0.00  0.00    +0.000 A 
ATOM     21  C   UNL     1       3.591   7.658  17.441  0.00  0.00    +0.000 A 
ATOM     22  C   UNL     1       2.545   8.580  17.491  0.00  0.00    +0.000 A 
ATOM     23  C   UNL     1       1.706   8.626  18.603  0.00  0.00    +0.000 A 
ATOM     24  C   UNL     1       1.924   7.753  19.662  0.00  0.00    +0.000 A 
ATOM     25  C   UNL     1       2.963   6.821  19.607  0.00  0.00    +0.000 A 
ENDBRANCH  19  20
BRANCH  19  26
ATOM     26  C   UNL     1       4.752   4.323  18.935  0.00  0.00    +0.000 C 
ATOM     27  O   UNL     1       5.700   3.662  19.367  0.00  0.00    +0.000 OA
ATOM     28  N   UNL     1       3.481   3.782  18.826  0.00  0.00    +0.000 N 
ATOM     29  H   UNL     1       2.711   4.407  18.602  0.00  0.00    +0.000 HD
BRANCH  28  30
ATOM     30  C   UNL     1       3.130   2.421  19.306  0.00  0.00    +0.000 C 
ATOM     31  C   UNL     1       1.603   2.264  19.406  0.00  0.00    +0.000 C 
ATOM     32  C   UNL     1       3.648   1.368  18.306  0.00  0.00    +0.000 C 
ATOM     33  C   UNL     1       3.785   2.111  20.665  0.00  0.00    +0.000 C 
ENDBRANCH  28  30
ENDBRANCH  19  26
ENDBRANCH   9  19
TORSDOF 7
ENDMDL
MODEL 2
REMARK VINA RESULT:      -8.4      0.210      1.188
REMARK  Name = 
REMARK  11 active torsions:
REMARK  status: ('A' for Active; 'I' for Inactive)
REMARK    1  A    between atoms: C_1  and  C_2
REMARK    2  A    between atoms: C_5  and  O_6
REMARK    3  A    between atoms: O_6  and  C_7
REMARK    4  A    between atoms: C_7  and  C_8
REMARK    5  A    between atoms: N_16  and  C_17
REMARK    6  A    between atoms: C_17  and  C_18
REMARK    7  A    between atoms: C_17  and  C_25
REMARK    8  A    between atoms: N_20  and  C_21
REMARK    9  A    between atoms: C_21  and  C_22
REMARK   10  A    between atoms: C_21  and  C_23
REMARK   11  A    between atoms: C_21  and  C_24
REMARK                            x       y       z     vdW  Elec       q    Type
REMARK                         _______ _______ _______ _____ _____    ______ ____
ROOT
ATOM      1  C   UNL     1       7.065   6.586  17.223  0.00  0.00    +0.000 A 
ATOM      2  N   UNL     1       7.704   6.270  16.110  0.00  0.00    +0.000 NA
ATOM      3  C   UNL     1       6.906   5.393  15.439  0.00  0.00    +0.000 A 
ATOM      4  C   UNL     1       7.122   4.776  14.198  0.00  0.00    +0.000 A 
ATOM      5  C   UNL     1       6.142   3.921  13.689  0.00  0.00    +0.000 A 
ATOM      6  C   UNL     1       4.965   3.689  14.402  0.00  0.00    +0.000 A 
ATOM      7  C   UNL     1       4.739   4.292  15.647  0.00  0.00    +0.000 A 
ATOM      8  C   UNL     1       5.739   5.139  16.151  0.00  0.00    +0.000 A 
ATOM      9  N   UNL     1       5.883   5.869  17.326  0.00  0.00    +0.000 N 
ENDROOT
BRANCH   1  10
ATOM     10  C   UNL     1       7.571   7.630  18.163  0.00  0.00    +0.000 C 
BRANCH  10  11
ATOM     11  O   UNL     1       7.500   8.911  17.529  0.00  0.00    +0.000 OA
BRANCH  11  16
ATOM     12  C   UNL     1      10.720  12.763  20.200  0.00  0.00    +0.000 C 
ATOM     13  C   UNL     1       9.904  11.736  19.472  0.00  0.00    +0.000 A 
ATOM     14  C   UNL     1       9.802  10.417  19.928  0.00  0.00    +0.000 A 
ATOM     15  C   UNL     1       9.007   9.489  19.243  0.00  0.00    +0.000 A 
ATOM     16  C   UNL     1       8.294   9.872  18.106  0.00  0.00    +0.000 A 
ATOM     17  C   UNL     1       8.442  11.173  17.621  0.00  0.00    +0.000 A 
ATOM     18  C   UNL     1       9.232  12.100  18.303  0.00  0.00    +0.000 A 
ENDBRANCH  11  16
ENDBRANCH  10  11
ENDBRANCH   1  10
BRANCH   9  19
ATOM     19  C   UNL     1       4.955   5.779  18.470  0.00  0.00    +0.000 C 
BRANCH  19  20
ATOM     20  C   UNL     1       3.787   6.763  18.441  0.00  0.00    +0.000 A 
ATOM     21  C   UNL     1       3.617   7.713  17.420  0.00  0.00    +0.000 A 
ATOM     22  C   UNL     1       2.591   8.658  17.467  0.00  0.00    +0.000 A 
ATOM     23  C   UNL     1       1.731   8.700  18.562  0.00  0.00    +0.000 A 
ATOM     24  C   UNL     1       1.908   7.802  19.608  0.00  0.00    +0.000 A 
ATOM     25  C   UNL     1       2.926   6.847  19.554  0.00  0.00    +0.000 A 
ENDBRANCH  19  20
BRANCH  19  26
ATOM     26  C   UNL     1       4.678   4.329  18.889  0.00  0.00    +0.000 C 
ATOM     27  O   UNL     1       5.606   3.643  19.326  0.00  0.00    +0.000 OA
ATOM     28  N   UNL     1       3.395   3.818  18.765  0.00  0.00    +0.000 N 
ATOM     29  H   UNL     1       2.642   4.462  18.538  0.00  0.00    +0.000 HD
BRANCH  28  30
ATOM     30  C   UNL     1       3.009   2.462  19.231  0.00  0.00    +0.000 C 
ATOM     31  C   UNL     1       3.805   1.386  18.474  0.00  0.00    +0.000 C 
ATOM     32  C   UNL     1       3.330   2.318  20.732  0.00  0.00    +0.000 C 
ATOM     33  C   UNL     1       1.497   2.215  19.069  0.00  0.00    +0.000 C 
ENDBRANCH  28  30
ENDBRANCH  19  26
ENDBRANCH   9  19
TORSDOF 7
ENDMDL
MODEL 3
REMARK VINA RESULT:      -8.2      0.221      1.106
REMARK  Name = 
REMARK  11 active torsions:
REMARK  status: ('A' for Active; 'I' for Inactive)
REMARK    1  A    between atoms: C_1  and  C_2
REMARK    2  A    between atoms: C_5  and  O_6
REMARK    3  A    between atoms: O_6  and  C_7
REMARK    4  A    between atoms: C_7  and  C_8
REMARK    5  A    between atoms: N_16  and  C_17
REMARK    6  A    between atoms: C_17  and  C_18
REMARK    7  A    between atoms: C_17  and  C_25
REMARK    8  A    between atoms: N_20  and  C_21
REMARK    9  A    between atoms: C_21  and  C_22
REMARK   10  A    between atoms: C_21  and  C_23
REMARK   11  A    between atoms: C_21  and  C_24
REMARK                            x       y       z     vdW  Elec       q    Type
REMARK                         _______ _______ _______ _____ _____    ______ ____
ROOT
ATOM      1  C   UNL     1       7.007   6.643  17.253  0.00  0.00    +0.000 A 
ATOM      2  N   UNL     1       7.634   6.325  16.134  0.00  0.00    +0.000 NA
ATOM      3  C   UNL     1       6.850   5.411  15.495  0.00  0.00    +0.000 A 
ATOM      4  C   UNL     1       7.061   4.778  14.262  0.00  0.00    +0.000 A 
ATOM      5  C   UNL     1       6.098   3.884  13.788  0.00  0.00    +0.000 A 
ATOM      6  C   UNL     1       4.943   3.630  14.528  0.00  0.00    +0.000 A 
ATOM      7  C   UNL     1       4.722   4.250  15.766  0.00  0.00    +0.000 A 
ATOM      8  C   UNL     1       5.705   5.137  16.234  0.00  0.00    +0.000 A 
ATOM      9  N   UNL     1       5.849   5.893  17.393  0.00  0.00    +0.000 N 
ENDROOT
BRANCH   1  10
ATOM     10  C   UNL     1       7.498   7.720  18.164  0.00  0.00    +0.000 C 
BRANCH  10  11
ATOM     11  O   UNL     1       7.943   8.833  17.382  0.00  0.00    +0.000 OA
BRANCH  11  16
ATOM     12  C   UNL     1      10.323  13.198  20.142  0.00  0.00    +0.000 C 
ATOM     13  C   UNL     1       9.660  12.053  19.436  0.00  0.00    +0.000 A 
ATOM     14  C   UNL     1       8.946  12.234  18.246  0.00  0.00    +0.000 A 
ATOM     15  C   UNL     1       8.364  11.139  17.595  0.00  0.00    +0.000 A 
ATOM     16  C   UNL     1       8.502   9.851  18.115  0.00  0.00    +0.000 A 
ATOM     17  C   UNL     1       9.166   9.681  19.332  0.00  0.00    +0.000 A 
ATOM     18  C   UNL     1       9.749  10.770  19.982  0.00  0.00    +0.000 A 
ENDBRANCH  11  16
ENDBRANCH  10  11
ENDBRANCH   1  10
BRANCH   9  19
ATOM     19  C   UNL     1       4.947   5.797  18.556  0.00  0.00    +0.000 C 
BRANCH  19  20
ATOM     20  C   UNL     1       3.830   6.838  18.603  0.00  0.00    +0.000 A 
ATOM     21  C   UNL     1       2.910   6.920  19.662  0.00  0.00    +0.000 A 
ATOM     22  C   UNL     1       1.847   7.823  19.635  0.00  0.00    +0.000 A 
ATOM     23  C   UNL     1       1.654   8.641  18.524  0.00  0.00    +0.000 A 
ATOM     24  C   UNL     1       2.522   8.546  17.443  0.00  0.00    +0.000 A 
ATOM     25  C   UNL     1       3.595   7.652  17.476  0.00  0.00    +0.000 A 
ENDBRANCH  19  20
BRANCH  19  26
ATOM     26  C   UNL     1       4.606   4.345  18.917  0.00  0.00    +0.000 C 
ATOM     27  O   UNL     1       5.501   3.603  19.332  0.00  0.00    +0.000 OA
ATOM     28  N   UNL     1       3.304   3.894  18.766  0.00  0.00    +0.000 N 
ATOM     29  H   UNL     1       2.580   4.577  18.560  0.00  0.00    +0.000 HD
BRANCH  28  30
ATOM     30  C   UNL     1       2.857   2.538  19.176  0.00  0.00    +0.000 C 
ATOM     31  C   UNL     1       3.008   2.360  20.697  0.00  0.00    +0.000 C 
ATOM     32  C   UNL     1       1.367   2.354  18.826  0.00  0.00    +0.000 C 
ATOM     33  C   UNL     1       3.634   1.434  18.433  0.00  0.00    +0.000 C 
ENDBRANCH  28  30
ENDBRANCH  19  26
ENDBRANCH   9  19
TORSDOF 7
ENDMDL
MODEL 4
REMARK VINA RESULT:      -8.1      5.012      9.762
REMARK  Name = 
REMARK  11 active torsions:
REMARK  status: ('A' for Active; 'I' for Inactive)
REMARK    1  A    between atoms: C_1  and  C_2
REMARK    2  A    between atoms: C_5  and  O_6
REMARK    3  A    between atoms: O_6  and  C_7
REMARK    4  A    between atoms: C_7  and  C_8
REMARK    5  A    between atoms: N_16  and  C_17
REMARK    6  A    between atoms: C_17  and  C_18
REMARK    7  A    between atoms: C_17  and  C_25
REMARK    8  A    between atoms: N_20  and  C_21
REMARK    9  A    between atoms: C_21  and  C_22
REMARK   10  A    between atoms: C_21  and  C_23
REMARK   11  A    between atoms: C_21  and  C_24
REMARK                            x       y       z     vdW  Elec       q    Type
REMARK                         _______ _______ _______ _____ _____    ______ ____
ROOT
ATOM      1  C   UNL     1       1.185   9.094  19.735  0.00  0.00    +0.000 A 
ATOM      2  N   UNL     1       1.331   8.716  20.993  0.00  0.00    +0.000 NA
ATOM      3  C   UNL     1       0.469   9.474  21.729  0.00  0.00    +0.000 A 
ATOM      4  C   UNL     1       0.231   9.445  23.111  0.00  0.00    +0.000 A 
ATOM      5  C   UNL     1      -0.727  10.308  23.649  0.00  0.00    +0.000 A 
ATOM      6  C   UNL     1      -1.437  11.180  22.823  0.00  0.00    +0.000 A 
ATOM      7  C   UNL     1      -1.204  11.225  21.441  0.00  0.00    +0.000 A 
ATOM      8  C   UNL     1      -0.229  10.361  20.918  0.00  0.00    +0.000 A 
ATOM      9  N   UNL     1       0.286  10.146  19.643  0.00  0.00    +0.000 N 
ENDROOT
BRANCH   1  10
ATOM     10  C   UNL     1       1.874   8.397  18.609  0.00  0.00    +0.000 C 
BRANCH  10  11
ATOM     11  O   UNL     1       2.786   7.430  19.138  0.00  0.00    +0.000 OA
BRANCH  11  16
ATOM     12  C   UNL     1       0.673   2.157  18.863  0.00  0.00    +0.000 C 
ATOM     13  C   UNL     1       1.269   3.532  18.941  0.00  0.00    +0.000 A 
ATOM     14  C   UNL     1       1.715   4.208  17.800  0.00  0.00    +0.000 A 
ATOM     15  C   UNL     1       2.238   5.504  17.902  0.00  0.00    +0.000 A 
ATOM     16  C   UNL     1       2.308   6.143  19.141  0.00  0.00    +0.000 A 
ATOM     17  C   UNL     1       1.915   5.445  20.285  0.00  0.00    +0.000 A 
ATOM     18  C   UNL     1       1.391   4.155  20.185  0.00  0.00    +0.000 A 
ENDBRANCH  11  16
ENDBRANCH  10  11
ENDBRANCH   1  10
BRANCH   9  19
ATOM     19  C   UNL     1      -0.041  10.981  18.472  0.00  0.00    +0.000 C 
BRANCH  19  20
ATOM     20  C   UNL     1      -1.438  10.770  17.890  0.00  0.00    +0.000 A 
ATOM     21  C   UNL     1      -1.700   9.857  16.855  0.00  0.00    +0.000 A 
ATOM     22  C   UNL     1      -2.968   9.750  16.282  0.00  0.00    +0.000 A 
ATOM     23  C   UNL     1      -3.998  10.588  16.705  0.00  0.00    +0.000 A 
ATOM     24  C   UNL     1      -3.751  11.532  17.694  0.00  0.00    +0.000 A 
ATOM     25  C   UNL     1      -2.486  11.630  18.277  0.00  0.00    +0.000 A 
ENDBRANCH  19  20
BRANCH  19  26
ATOM     26  C   UNL     1       0.483  12.417  18.609  0.00  0.00    +0.000 C 
ATOM     27  O   UNL     1      -0.144  13.337  18.076  0.00  0.00    +0.000 OA
ATOM     28  N   UNL     1       1.649  12.651  19.320  0.00  0.00    +0.000 N 
ATOM     29  H   UNL     1       2.045  11.884  19.857  0.00  0.00    +0.000 HD
BRANCH  28  30
ATOM     30  C   UNL     1       2.183  14.011  19.588  0.00  0.00    +0.000 C 
ATOM     31  C   UNL     1       1.046  14.963  19.995  0.00  0.00    +0.000 C 
ATOM     32  C   UNL     1       3.190  13.953  20.753  0.00  0.00    +0.000 C 
ATOM     33  C   UNL     1       2.937  14.575  18.369  0.00  0.00    +0.000 C 
ENDBRANCH  28  30
ENDBRANCH  19  26
ENDBRANCH   9  19
TORSDOF 7
ENDMDL
MODEL 5
REMARK VINA RESULT:      -8.0      5.014      9.829
REMARK  Name = 
REMARK  11 active torsions:
REMARK  status: ('A' for Active; 'I' for Inactive)
REMARK    1  A    between atoms: C_1  and  C_2
REMARK    2  A    between atoms: C_5  and  O_6
REMARK    3  A    between atoms: O_6  and  C_7
REMARK    4  A    between atoms: C_7  and  C_8
REMARK    5  A    between atoms: N_16  and  C_17
REMARK    6  A    between atoms: C_17  and  C_18
REMARK    7  A    between atoms: C_17  and  C_25
REMARK    8  A    between atoms: N_20  and  C_21
REMARK    9  A    between atoms: C_21  and  C_22
REMARK   10  A    between atoms: C_21  and  C_23
REMARK   11  A    between atoms: C_21  and  C_24
REMARK                            x       y       z     vdW  Elec       q    Type
REMARK                         _______ _______ _______ _____ _____    ______ ____
ROOT
ATOM      1  C   UNL     1       1.086   9.221  19.766  0.00  0.00    +0.000 A 
ATOM      2  N   UNL     1       1.183   8.835  21.026  0.00  0.00    +0.000 NA
ATOM      3  C   UNL     1       0.320   9.613  21.738  0.00  0.00    +0.000 A 
ATOM      4  C   UNL     1       0.038   9.585  23.112  0.00  0.00    +0.000 A 
ATOM      5  C   UNL     1      -0.913  10.472  23.624  0.00  0.00    +0.000 A 
ATOM      6  C   UNL     1      -1.574  11.365  22.780  0.00  0.00    +0.000 A 
ATOM      7  C   UNL     1      -1.297  11.409  21.406  0.00  0.00    +0.000 A 
ATOM      8  C   UNL     1      -0.330  10.521  20.909  0.00  0.00    +0.000 A 
ATOM      9  N   UNL     1       0.218  10.296  19.651  0.00  0.00    +0.000 N 
ENDROOT
BRANCH   1  10
ATOM     10  C   UNL     1       1.790   8.509  18.658  0.00  0.00    +0.000 C 
BRANCH  10  11
ATOM     11  O   UNL     1       2.714   7.568  19.213  0.00  0.00    +0.000 OA
BRANCH  11  16
ATOM     12  C   UNL     1       0.789   2.232  18.808  0.00  0.00    +0.000 C 
ATOM     13  C   UNL     1       1.336   3.624  18.921  0.00  0.00    +0.000 A 
ATOM     14  C   UNL     1       1.785   4.333  17.801  0.00  0.00    +0.000 A 
ATOM     15  C   UNL     1       2.262   5.643  17.935  0.00  0.00    +0.000 A 
ATOM     16  C   UNL     1       2.280   6.265  19.185  0.00  0.00    +0.000 A 
ATOM     17  C   UNL     1       1.884   5.536  20.309  0.00  0.00    +0.000 A 
ATOM     18  C   UNL     1       1.407   4.231  20.177  0.00  0.00    +0.000 A 
ENDBRANCH  11  16
ENDBRANCH  10  11
ENDBRANCH   1  10
BRANCH   9  19
ATOM     19  C   UNL     1      -0.050  11.143  18.473  0.00  0.00    +0.000 C 
BRANCH  19  20
ATOM     20  C   UNL     1      -1.439  10.984  17.857  0.00  0.00    +0.000 A 
ATOM     21  C   UNL     1      -2.544  11.750  18.263  0.00  0.00    +0.000 A 
ATOM     22  C   UNL     1      -3.819  11.520  17.746  0.00  0.00    +0.000 A 
ATOM     23  C   UNL     1      -4.028  10.486  16.837  0.00  0.00    +0.000 A 
ATOM     24  C   UNL     1      -2.960   9.682  16.456  0.00  0.00    +0.000 A 
ATOM     25  C   UNL     1      -1.680   9.921  16.963  0.00  0.00    +0.000 A 
ENDBRANCH  19  20
BRANCH  19  26
ATOM     26  C   UNL     1       0.522  12.560  18.625  0.00  0.00    +0.000 C 
ATOM     27  O   UNL     1      -0.091  13.511  18.132  0.00  0.00    +0.000 OA
ATOM     28  N   UNL     1       1.716  12.742  19.306  0.00  0.00    +0.000 N 
ATOM     29  H   UNL     1       2.104  11.951  19.813  0.00  0.00    +0.000 HD
BRANCH  28  30
ATOM     30  C   UNL     1       2.299  14.078  19.586  0.00  0.00    +0.000 C 
ATOM     31  C   UNL     1       3.368  13.978  20.687  0.00  0.00    +0.000 C 
ATOM     32  C   UNL     1       2.981  14.624  18.316  0.00  0.00    +0.000 C 
ATOM     33  C   UNL     1       1.216  15.098  19.989  0.00  0.00    +0.000 C 
ENDBRANCH  28  30
ENDBRANCH  19  26
ENDBRANCH   9  19
TORSDOF 7
ENDMDL
MODEL 6
REMARK VINA RESULT:      -8.0      4.954      9.451
REMARK  Name = 
REMARK  11 active torsions:
REMARK  status: ('A' for Active; 'I' for Inactive)
REMARK    1  A    between atoms: C_1  and  C_2
REMARK    2  A    between atoms: C_5  and  O_6
REMARK    3  A    between atoms: O_6  and  C_7
REMARK    4  A    between atoms: C_7  and  C_8
REMARK    5  A    between atoms: N_16  and  C_17
REMARK    6  A    between atoms: C_17  and  C_18
REMARK    7  A    between atoms: C_17  and  C_25
REMARK    8  A    between atoms: N_20  and  C_21
REMARK    9  A    between atoms: C_21  and  C_22
REMARK   10  A    between atoms: C_21  and  C_23
REMARK   11  A    between atoms: C_21  and  C_24
REMARK                            x       y       z     vdW  Elec       q    Type
REMARK                         _______ _______ _______ _____ _____    ______ ____
ROOT
ATOM      1  C   UNL     1       1.082   9.328  19.219  0.00  0.00    +0.000 A 
ATOM      2  N   UNL     1       1.378   8.759  20.374  0.00  0.00    +0.000 NA
ATOM      3  C   UNL     1       0.632   9.393  21.322  0.00  0.00    +0.000 A 
ATOM      4  C   UNL     1       0.569   9.150  22.702  0.00  0.00    +0.000 A 
ATOM      5  C   UNL     1      -0.296   9.919  23.485  0.00  0.00    +0.000 A 
ATOM      6  C   UNL     1      -1.088  10.909  22.900  0.00  0.00    +0.000 A 
ATOM      7  C   UNL     1      -1.030  11.168  21.524  0.00  0.00    +0.000 A 
ATOM      8  C   UNL     1      -0.146  10.395  20.753  0.00  0.00    +0.000 A 
ATOM      9  N   UNL     1       0.199  10.381  19.406  0.00  0.00    +0.000 N 
ENDROOT
BRANCH   1  10
ATOM     10  C   UNL     1       1.609   8.815  17.919  0.00  0.00    +0.000 C 
BRANCH  10  11
ATOM     11  O   UNL     1       2.986   8.460  18.075  0.00  0.00    +0.000 OA
BRANCH  11  16
ATOM     12  C   UNL     1       3.961   2.910  17.306  0.00  0.00    +0.000 C 
ATOM     13  C   UNL     1       3.688   4.376  17.470  0.00  0.00    +0.000 A 
ATOM     14  C   UNL     1       2.483   4.846  18.005  0.00  0.00    +0.000 A 
ATOM     15  C   UNL     1       2.269   6.220  18.174  0.00  0.00    +0.000 A 
ATOM     16  C   UNL     1       3.262   7.138  17.826  0.00  0.00    +0.000 A 
ATOM     17  C   UNL     1       4.441   6.670  17.241  0.00  0.00    +0.000 A 
ATOM     18  C   UNL     1       4.656   5.301  17.073  0.00  0.00    +0.000 A 
ENDBRANCH  11  16
ENDBRANCH  10  11
ENDBRANCH   1  10
BRANCH   9  19
ATOM     19  C   UNL     1      -0.257  11.388  18.429  0.00  0.00    +0.000 C 
BRANCH  19  20
ATOM     20  C   UNL     1      -1.704  11.238  17.964  0.00  0.00    +0.000 A 
ATOM     21  C   UNL     1      -2.785  11.831  18.639  0.00  0.00    +0.000 A 
ATOM     22  C   UNL     1      -4.103  11.603  18.244  0.00  0.00    +0.000 A 
ATOM     23  C   UNL     1      -4.376  10.739  17.185  0.00  0.00    +0.000 A 
ATOM     24  C   UNL     1      -3.327  10.103  16.532  0.00  0.00    +0.000 A 
ATOM     25  C   UNL     1      -2.006  10.342  16.919  0.00  0.00    +0.000 A 
ENDBRANCH  19  20
BRANCH  19  26
ATOM     26  C   UNL     1       0.265  12.796  18.748  0.00  0.00    +0.000 C 
ATOM     27  O   UNL     1      -0.398  13.776  18.397  0.00  0.00    +0.000 OA
ATOM     28  N   UNL     1       1.470  12.939  19.418  0.00  0.00    +0.000 N 
ATOM     29  H   UNL     1       1.903  12.107  19.810  0.00  0.00    +0.000 HD
BRANCH  28  30
ATOM     30  C   UNL     1       2.010  14.252  19.854  0.00  0.00    +0.000 C 
ATOM     31  C   UNL     1       2.277  15.154  18.637  0.00  0.00    +0.000 C 
ATOM     32  C   UNL     1       0.979  14.965  20.752  0.00  0.00    +0.000 C 
ATOM     33  C   UNL     1       3.296  14.090  20.687  0.00  0.00    +0.000 C 
ENDBRANCH  28  30
ENDBRANCH  19  26
ENDBRANCH   9  19
TORSDOF 7
ENDMDL
MODEL 7
REMARK VINA RESULT:      -8.0      4.741      8.943
REMARK  Name = 
REMARK  11 active torsions:
REMARK  status: ('A' for Active; 'I' for Inactive)
REMARK    1  A    between atoms: C_1  and  C_2
REMARK    2  A    between atoms: C_5  and  O_6
REMARK    3  A    between atoms: O_6  and  C_7
REMARK    4  A    between atoms: C_7  and  C_8
REMARK    5  A    between atoms: N_16  and  C_17
REMARK    6  A    between atoms: C_17  and  C_18
REMARK    7  A    between atoms: C_17  and  C_25
REMARK    8  A    between atoms: N_20  and  C_21
REMARK    9  A    between atoms: C_21  and  C_22
REMARK   10  A    between atoms: C_21  and  C_23
REMARK   11  A    between atoms: C_21  and  C_24
REMARK                            x       y       z     vdW  Elec       q    Type
REMARK                         _______ _______ _______ _____ _____    ______ ____
ROOT
ATOM      1  C   UNL     1       1.364   9.151  19.306  0.00  0.00    +0.000 A 
ATOM      2  N   UNL     1       1.638   8.601  20.475  0.00  0.00    +0.000 NA
ATOM      3  C   UNL     1       0.846   9.223  21.393  0.00  0.00    +0.000 A 
ATOM      4  C   UNL     1       0.746   8.990  22.773  0.00  0.00    +0.000 A 
ATOM      5  C   UNL     1      -0.163   9.743  23.520  0.00  0.00    +0.000 A 
ATOM      6  C   UNL     1      -0.962  10.705  22.902  0.00  0.00    +0.000 A 
ATOM      7  C   UNL     1      -0.868  10.954  21.525  0.00  0.00    +0.000 A 
ATOM      8  C   UNL     1       0.060  10.198  20.790  0.00  0.00    +0.000 A 
ATOM      9  N   UNL     1       0.448  10.181  19.455  0.00  0.00    +0.000 N 
ENDROOT
BRANCH   1  10
ATOM     10  C   UNL     1       1.945   8.640  18.028  0.00  0.00    +0.000 C 
BRANCH  10  11
ATOM     11  O   UNL     1       2.009   7.211  18.077  0.00  0.00    +0.000 OA
BRANCH  11  16
ATOM     12  C   UNL     1       7.299   5.126  18.160  0.00  0.00    +0.000 C 
ATOM     13  C   UNL     1       5.916   5.707  18.163  0.00  0.00    +0.000 A 
ATOM     14  C   UNL     1       5.511   6.653  17.215  0.00  0.00    +0.000 A 
ATOM     15  C   UNL     1       4.203   7.154  17.226  0.00  0.00    +0.000 A 
ATOM     16  C   UNL     1       3.282   6.705  18.174  0.00  0.00    +0.000 A 
ATOM     17  C   UNL     1       3.705   5.804  19.154  0.00  0.00    +0.000 A 
ATOM     18  C   UNL     1       5.007   5.302  19.143  0.00  0.00    +0.000 A 
ENDBRANCH  11  16
ENDBRANCH  10  11
ENDBRANCH   1  10
BRANCH   9  19
ATOM     19  C   UNL     1      -0.004  11.166  18.454  0.00  0.00    +0.000 C 
BRANCH  19  20
ATOM     20  C   UNL     1      -1.459  11.026  18.011  0.00  0.00    +0.000 A 
ATOM     21  C   UNL     1      -2.505  11.765  18.590  0.00  0.00    +0.000 A 
ATOM     22  C   UNL     1      -3.835  11.550  18.227  0.00  0.00    +0.000 A 
ATOM     23  C   UNL     1      -4.156  10.559  17.303  0.00  0.00    +0.000 A 
ATOM     24  C   UNL     1      -3.144   9.783  16.751  0.00  0.00    +0.000 A 
ATOM     25  C   UNL     1      -1.811  10.006  17.104  0.00  0.00    +0.000 A 
ENDBRANCH  19  20
BRANCH  19  26
ATOM     26  C   UNL     1       0.544  12.574  18.726  0.00  0.00    +0.000 C 
ATOM     27  O   UNL     1      -0.003  13.544  18.193  0.00  0.00    +0.000 OA
ATOM     28  N   UNL     1       1.642  12.728  19.557  0.00  0.00    +0.000 N 
ATOM     29  H   UNL     1       1.963  11.919  20.082  0.00  0.00    +0.000 HD
BRANCH  28  30
ATOM     30  C   UNL     1       2.184  14.052  19.955  0.00  0.00    +0.000 C 
ATOM     31  C   UNL     1       1.079  14.919  20.581  0.00  0.00    +0.000 C 
ATOM     32  C   UNL     1       3.292  13.863  21.011  0.00  0.00    +0.000 C 
ATOM     33  C   UNL     1       2.823  14.787  18.761  0.00  0.00    +0.000 C 
ENDBRANCH  28  30
ENDBRANCH  19  26
ENDBRANCH   9  19
TORSDOF 7
ENDMDL
MODEL 8
REMARK VINA RESULT:      -8.0      4.653      8.915
REMARK  Name = 
REMARK  11 active torsions:
REMARK  status: ('A' for Active; 'I' for Inactive)
REMARK    1  A    between atoms: C_1  and  C_2
REMARK    2  A    between atoms: C_5  and  O_6
REMARK    3  A    between atoms: O_6  and  C_7
REMARK    4  A    between atoms: C_7  and  C_8
REMARK    5  A    between atoms: N_16  and  C_17
REMARK    6  A    between atoms: C_17  and  C_18
REMARK    7  A    between atoms: C_17  and  C_25
REMARK    8  A    between atoms: N_20  and  C_21
REMARK    9  A    between atoms: C_21  and  C_22
REMARK   10  A    between atoms: C_21  and  C_23
REMARK   11  A    between atoms: C_21  and  C_24
REMARK                            x       y       z     vdW  Elec       q    Type
REMARK                         _______ _______ _______ _____ _____    ______ ____
ROOT
ATOM      1  C   UNL     1       1.434   9.058  19.361  0.00  0.00    +0.000 A 
ATOM      2  N   UNL     1       1.680   8.467  20.517  0.00  0.00    +0.000 NA
ATOM      3  C   UNL     1       0.896   9.085  21.444  0.00  0.00    +0.000 A 
ATOM      4  C   UNL     1       0.774   8.815  22.815  0.00  0.00    +0.000 A 
ATOM      5  C   UNL     1      -0.122   9.572  23.575  0.00  0.00    +0.000 A 
ATOM      6  C   UNL     1      -0.886  10.574  22.977  0.00  0.00    +0.000 A 
ATOM      7  C   UNL     1      -0.770  10.859  21.609  0.00  0.00    +0.000 A 
ATOM      8  C   UNL     1       0.144  10.099  20.862  0.00  0.00    +0.000 A 
ATOM      9  N   UNL     1       0.545  10.109  19.530  0.00  0.00    +0.000 N 
ENDROOT
BRANCH   1  10
ATOM     10  C   UNL     1       2.014   8.568  18.075  0.00  0.00    +0.000 C 
BRANCH  10  11
ATOM     11  O   UNL     1       2.141   7.143  18.127  0.00  0.00    +0.000 OA
BRANCH  11  16
ATOM     12  C   UNL     1       7.501   5.247  18.263  0.00  0.00    +0.000 C 
ATOM     13  C   UNL     1       6.077   5.715  18.202  0.00  0.00    +0.000 A 
ATOM     14  C   UNL     1       5.121   5.292  19.133  0.00  0.00    +0.000 A 
ATOM     15  C   UNL     1       3.806   5.771  19.067  0.00  0.00    +0.000 A 
ATOM     16  C   UNL     1       3.436   6.688  18.083  0.00  0.00    +0.000 A 
ATOM     17  C   UNL     1       4.376   7.066  17.121  0.00  0.00    +0.000 A 
ATOM     18  C   UNL     1       5.687   6.591  17.186  0.00  0.00    +0.000 A 
ENDBRANCH  11  16
ENDBRANCH  10  11
ENDBRANCH   1  10
BRANCH   9  19
ATOM     19  C   UNL     1       0.132  11.135  18.554  0.00  0.00    +0.000 C 
BRANCH  19  20
ATOM     20  C   UNL     1      -1.311  11.027  18.066  0.00  0.00    +0.000 A 
ATOM     21  C   UNL     1      -2.354  11.806  18.597  0.00  0.00    +0.000 A 
ATOM     22  C   UNL     1      -3.677  11.622  18.195  0.00  0.00    +0.000 A 
ATOM     23  C   UNL     1      -3.996  10.623  17.277  0.00  0.00    +0.000 A 
ATOM     24  C   UNL     1      -2.989   9.808  16.774  0.00  0.00    +0.000 A 
ATOM     25  C   UNL     1      -1.662  10.001  17.166  0.00  0.00    +0.000 A 
ENDBRANCH  19  20
BRANCH  19  26
ATOM     26  C   UNL     1       0.686  12.526  18.892  0.00  0.00    +0.000 C 
ATOM     27  O   UNL     1      -0.047  13.343  19.456  0.00  0.00    +0.000 OA
ATOM     28  N   UNL     1       1.994  12.838  18.554  0.00  0.00    +0.000 N 
ATOM     29  H   UNL     1       2.596  12.088  18.225  0.00  0.00    +0.000 HD
BRANCH  28  30
ATOM     30  C   UNL     1       2.648  14.119  18.923  0.00  0.00    +0.000 C 
ATOM     31  C   UNL     1       2.950  14.153  20.431  0.00  0.00    +0.000 C 
ATOM     32  C   UNL     1       3.987  14.254  18.171  0.00  0.00    +0.000 C 
ATOM     33  C   UNL     1       1.785  15.332  18.527  0.00  0.00    +0.000 C 
ENDBRANCH  28  30
ENDBRANCH  19  26
ENDBRANCH   9  19
TORSDOF 7
ENDMDL
MODEL 9
REMARK VINA RESULT:      -8.0      4.798      9.398
REMARK  Name = 
REMARK  11 active torsions:
REMARK  status: ('A' for Active; 'I' for Inactive)
REMARK    1  A    between atoms: C_1  and  C_2
REMARK    2  A    between atoms: C_5  and  O_6
REMARK    3  A    between atoms: O_6  and  C_7
REMARK    4  A    between atoms: C_7  and  C_8
REMARK    5  A    between atoms: N_16  and  C_17
REMARK    6  A    between atoms: C_17  and  C_18
REMARK    7  A    between atoms: C_17  and  C_25
REMARK    8  A    between atoms: N_20  and  C_21
REMARK    9  A    between atoms: C_21  and  C_22
REMARK   10  A    between atoms: C_21  and  C_23
REMARK   11  A    between atoms: C_21  and  C_24
REMARK                            x       y       z     vdW  Elec       q    Type
REMARK                         _______ _______ _______ _____ _____    ______ ____
ROOT
ATOM      1  C   UNL     1       1.311   9.184  19.194  0.00  0.00    +0.000 A 
ATOM      2  N   UNL     1       1.627   8.619  20.346  0.00  0.00    +0.000 NA
ATOM      3  C   UNL     1       0.865   9.226  21.300  0.00  0.00    +0.000 A 
ATOM      4  C   UNL     1       0.814   8.974  22.678  0.00  0.00    +0.000 A 
ATOM      5  C   UNL     1      -0.071   9.714  23.467  0.00  0.00    +0.000 A 
ATOM      6  C   UNL     1      -0.893  10.682  22.890  0.00  0.00    +0.000 A 
ATOM      7  C   UNL     1      -0.847  10.950  21.514  0.00  0.00    +0.000 A 
ATOM      8  C   UNL     1       0.056  10.207  20.737  0.00  0.00    +0.000 A 
ATOM      9  N   UNL     1       0.398  10.209  19.389  0.00  0.00    +0.000 N 
ENDROOT
BRANCH   1  10
ATOM     10  C   UNL     1       1.849   8.692  17.891  0.00  0.00    +0.000 C 
BRANCH  10  11
ATOM     11  O   UNL     1       3.117   8.065  18.110  0.00  0.00    +0.000 OA
BRANCH  11  16
ATOM     12  C   UNL     1       3.287   2.416  17.478  0.00  0.00    +0.000 C 
ATOM     13  C   UNL     1       3.244   3.901  17.686  0.00  0.00    +0.000 A 
ATOM     14  C   UNL     1       4.410   4.674  17.720  0.00  0.00    +0.000 A 
ATOM     15  C   UNL     1       4.335   6.063  17.886  0.00  0.00    +0.000 A 
ATOM     16  C   UNL     1       3.097   6.696  18.004  0.00  0.00    +0.000 A 
ATOM     17  C   UNL     1       1.938   5.916  18.026  0.00  0.00    +0.000 A 
ATOM     18  C   UNL     1       2.010   4.532  17.859  0.00  0.00    +0.000 A 
ENDBRANCH  11  16
ENDBRANCH  10  11
ENDBRANCH   1  10
BRANCH   9  19
ATOM     19  C   UNL     1      -0.090  11.206  18.418  0.00  0.00    +0.000 C 
BRANCH  19  20
ATOM     20  C   UNL     1      -1.558  11.066  18.021  0.00  0.00    +0.000 A 
ATOM     21  C   UNL     1      -2.586  11.801  18.635  0.00  0.00    +0.000 A 
ATOM     22  C   UNL     1      -3.927  11.586  18.313  0.00  0.00    +0.000 A 
ATOM     23  C   UNL     1      -4.276  10.597  17.396  0.00  0.00    +0.000 A 
ATOM     24  C   UNL     1      -3.280   9.824  16.810  0.00  0.00    +0.000 A 
ATOM     25  C   UNL     1      -1.937  10.048  17.121  0.00  0.00    +0.000 A 
ENDBRANCH  19  20
BRANCH  19  26
ATOM     26  C   UNL     1       0.460  12.613  18.692  0.00  0.00    +0.000 C 
ATOM     27  O   UNL     1      -0.064  13.581  18.134  0.00  0.00    +0.000 OA
ATOM     28  N   UNL     1       1.534  12.767  19.554  0.00  0.00    +0.000 N 
ATOM     29  H   UNL     1       1.834  11.961  20.096  0.00  0.00    +0.000 HD
BRANCH  28  30
ATOM     30  C   UNL     1       2.075  14.091  19.955  0.00  0.00    +0.000 C 
ATOM     31  C   UNL     1       3.226  13.919  20.961  0.00  0.00    +0.000 C 
ATOM     32  C   UNL     1       2.636  14.819  18.718  0.00  0.00    +0.000 C 
ATOM     33  C   UNL     1       0.979  14.995  20.551  0.00  0.00    +0.000 C 
ENDBRANCH  28  30
ENDBRANCH  19  26
ENDBRANCH   9  19
TORSDOF 7
ENDMDL
