MODEL 1
REMARK VINA RESULT:      -7.9      0.000      0.000
REMARK  Name = 
REMARK  10 active torsions:
REMARK  status: ('A' for Active; 'I' for Inactive)
REMARK    1  A    between atoms: C_2  and  C_3
REMARK    2  A    between atoms: C_2  and  C_4
REMARK    3  A    between atoms: C_4  and  N_5
REMARK    4  A    between atoms: N_8  and  C_9
REMARK    5  A    between atoms: C_9  and  C_10
REMARK    6  A    between atoms: C_10  and  C_11
REMARK    7  A    between atoms: C_11  and  C_12
REMARK    8  A    between atoms: C_12  and  C_13
REMARK    9  A    between atoms: C_13  and  C_14
REMARK   10  A    between atoms: C_14  and  N_15
REMARK                            x       y       z     vdW  Elec       q    Type
REMARK                         _______ _______ _______ _____ _____    ______ ____
ROOT
ATOM      1  N   UNL     1       9.290  12.034  18.013  0.00  0.00    +0.000 N 
ATOM      2  C   UNL     1      10.673  11.647  18.312  0.00  0.00    +0.000 C 
ATOM      3  C   UNL     1      10.967  11.350  19.795  0.00  0.00    +0.000 C 
ATOM      4  C   UNL     1      10.843  12.573  20.715  0.00  0.00    +0.000 C 
ATOM      5  C   UNL     1       9.665  12.456  21.691  0.00  0.00    +0.000 C 
ATOM      6  C   UNL     1       9.163  13.831  22.151  0.00  0.00    +0.000 C 
ATOM      7  C   UNL     1       7.633  13.882  22.264  0.00  0.00    +0.000 C 
ATOM      8  C   UNL     1       7.029  15.176  21.691  0.00  0.00    +0.000 C 
ATOM      9  C   UNL     1       6.309  14.968  20.355  0.00  0.00    +0.000 C 
ATOM     10  N   UNL     1       7.238  14.766  19.263  0.00  0.00    +0.000 N 
ATOM     11  C   UNL     1       6.865  14.337  18.026  0.00  0.00    +0.000 C 
ATOM     12  N   UNL     1       5.713  14.511  17.490  0.00  0.00    +0.000 NA
ATOM     13  N   UNL     1       7.742  13.622  17.263  0.00  0.00    +0.000 N 
ATOM     14  C   UNL     1       9.040  13.337  17.598  0.00  0.00    +0.000 C 
ATOM     15  O   UNL     1       9.910  14.201  17.542  0.00  0.00    +0.000 OA
ATOM     16  H   UNL     1       8.169  14.472  19.545  0.00  0.00    +0.000 HD
ATOM     17  H   UNL     1       5.153  15.101  18.108  0.00  0.00    +0.000 HD
ATOM     18  H   UNL     1       7.342  13.191  16.447  0.00  0.00    +0.000 HD
ENDROOT
BRANCH   1  19
ATOM     19  C   UNL     1       8.233  11.048  18.225  0.00  0.00    +0.000 C 
BRANCH  19  20
ATOM     20  C   UNL     1       8.724   9.601  18.208  0.00  0.00    +0.000 C 
BRANCH  20  21
ATOM     21  C   UNL     1       7.667   8.665  17.606  0.00  0.00    +0.000 C 
BRANCH  21  22
ATOM     22  C   UNL     1       7.749   7.205  18.087  0.00  0.00    +0.000 C 
BRANCH  22  23
ATOM     23  C   UNL     1       7.382   6.154  17.031  0.00  0.00    +0.000 C 
BRANCH  23  24
ATOM     24  C   UNL     1       7.345   4.762  17.647  0.00  0.00    +0.000 C 
BRANCH  24  28
ATOM     25  N   UNL     1       4.105   3.247  17.951  0.00  0.00    +0.000 N 
ATOM     26  C   UNL     1       5.107   4.094  18.244  0.00  0.00    +0.000 C 
ATOM     27  N   UNL     1       5.158   4.851  19.279  0.00  0.00    +0.000 NA
ATOM     28  N   UNL     1       6.116   4.043  17.330  0.00  0.00    +0.000 N 
ATOM     29  H   UNL     1       3.959   3.025  16.975  0.00  0.00    +0.000 HD
ATOM     30  H   UNL     1       4.280   4.758  19.791  0.00  0.00    +0.000 HD
ATOM     31  H   UNL     1       6.274   3.115  16.954  0.00  0.00    +0.000 HD
BRANCH  25  32
ATOM     32  C   UNL     1       3.182   2.650  18.892  0.00  0.00    +0.000 C 
BRANCH  32  34
ATOM     33  C   UNL     1       1.481   4.119  17.804  0.00  0.00    +0.000 C 
ATOM     34  C   UNL     1       1.820   3.294  18.813  0.00  0.00    +0.000 C 
ATOM     35  C   UNL     1       0.871   3.029  19.946  0.00  0.00    +0.000 C 
ENDBRANCH  32  34
ENDBRANCH  25  32
ENDBRANCH  24  28
ENDBRANCH  23  24
ENDBRANCH  22  23
ENDBRANCH  21  22
ENDBRANCH  20  21
ENDBRANCH  19  20
ENDBRANCH   1  19
TORSDOF 9
ENDMDL
MODEL 2
REMARK VINA RESULT:      -7.8      2.268      3.214
REMARK  Name = 
REMARK  10 active torsions:
REMARK  status: ('A' for Active; 'I' for Inactive)
REMARK    1  A    between atoms: C_2  and  C_3
REMARK    2  A    between atoms: C_2  and  C_4
REMARK    3  A    between atoms: C_4  and  N_5
REMARK    4  A    between atoms: N_8  and  C_9
REMARK    5  A    between atoms: C_9  and  C_10
REMARK    6  A    between atoms: C_10  and  C_11
REMARK    7  A    between atoms: C_11  and  C_12
REMARK    8  A    between atoms: C_12  and  C_13
REMARK    9  A    between atoms: C_13  and  C_14
REMARK   10  A    between atoms: C_14  and  N_15
REMARK                            x       y       z     vdW  Elec       q    Type
REMARK                         _______ _______ _______ _____ _____    ______ ____
ROOT
ATOM      1  N   UNL     1      10.121  11.353  19.306  0.00  0.00    +0.000 N 
ATOM      2  C   UNL     1       9.755  10.987  20.679  0.00  0.00    +0.000 C 
ATOM      3  C   UNL     1       8.905  12.027  21.433  0.00  0.00    +0.000 C 
ATOM      4  C   UNL     1       9.635  13.350  21.711  0.00  0.00    +0.000 C 
ATOM      5  C   UNL     1       9.038  14.524  20.924  0.00  0.00    +0.000 C 
ATOM      6  C   UNL     1      10.063  15.644  20.702  0.00  0.00    +0.000 C 
ATOM      7  C   UNL     1       9.943  16.273  19.307  0.00  0.00    +0.000 C 
ATOM      8  C   UNL     1      11.306  16.516  18.637  0.00  0.00    +0.000 C 
ATOM      9  C   UNL     1      11.604  15.537  17.496  0.00  0.00    +0.000 C 
ATOM     10  N   UNL     1      11.937  14.217  17.988  0.00  0.00    +0.000 N 
ATOM     11  C   UNL     1      12.021  13.115  17.193  0.00  0.00    +0.000 C 
ATOM     12  N   UNL     1      12.307  13.115  15.942  0.00  0.00    +0.000 NA
ATOM     13  N   UNL     1      11.750  11.882  17.710  0.00  0.00    +0.000 N 
ATOM     14  C   UNL     1      11.456  11.616  19.022  0.00  0.00    +0.000 C 
ATOM     15  O   UNL     1      12.333  11.631  19.880  0.00  0.00    +0.000 OA
ATOM     16  H   UNL     1      11.628  14.025  18.937  0.00  0.00    +0.000 HD
ATOM     17  H   UNL     1      12.548  14.069  15.665  0.00  0.00    +0.000 HD
ATOM     18  H   UNL     1      11.657  11.146  17.030  0.00  0.00    +0.000 HD
ENDROOT
BRANCH   1  19
ATOM     19  C   UNL     1       9.054  11.484  18.317  0.00  0.00    +0.000 C 
BRANCH  19  20
ATOM     20  C   UNL     1       8.857  10.240  17.451  0.00  0.00    +0.000 C 
BRANCH  20  21
ATOM     21  C   UNL     1       8.090   9.151  18.214  0.00  0.00    +0.000 C 
BRANCH  21  22
ATOM     22  C   UNL     1       7.875   7.844  17.430  0.00  0.00    +0.000 C 
BRANCH  22  23
ATOM     23  C   UNL     1       7.476   6.634  18.285  0.00  0.00    +0.000 C 
BRANCH  23  24
ATOM     24  C   UNL     1       6.410   5.805  17.583  0.00  0.00    +0.000 C 
BRANCH  24  28
ATOM     25  N   UNL     1       3.683   4.262  19.336  0.00  0.00    +0.000 N 
ATOM     26  C   UNL     1       4.894   4.342  18.754  0.00  0.00    +0.000 C 
ATOM     27  N   UNL     1       5.665   3.347  18.509  0.00  0.00    +0.000 NA
ATOM     28  N   UNL     1       5.218   5.618  18.402  0.00  0.00    +0.000 N 
ATOM     29  H   UNL     1       3.358   5.076  19.839  0.00  0.00    +0.000 HD
ATOM     30  H   UNL     1       5.241   2.505  18.900  0.00  0.00    +0.000 HD
ATOM     31  H   UNL     1       4.423   6.166  18.094  0.00  0.00    +0.000 HD
BRANCH  25  32
ATOM     32  C   UNL     1       2.813   3.106  19.349  0.00  0.00    +0.000 C 
BRANCH  32  34
ATOM     33  C   UNL     1       0.487   3.555  20.137  0.00  0.00    +0.000 C 
ATOM     34  C   UNL     1       1.760   3.221  20.423  0.00  0.00    +0.000 C 
ATOM     35  C   UNL     1       2.204   3.010  21.842  0.00  0.00    +0.000 C 
ENDBRANCH  32  34
ENDBRANCH  25  32
ENDBRANCH  24  28
ENDBRANCH  23  24
ENDBRANCH  22  23
ENDBRANCH  21  22
ENDBRANCH  20  21
ENDBRANCH  19  20
ENDBRANCH   1  19
TORSDOF 9
ENDMDL
MODEL 3
REMARK VINA RESULT:      -7.6      3.255     10.568
REMARK  Name = 
REMARK  10 active torsions:
REMARK  status: ('A' for Active; 'I' for Inactive)
REMARK    1  A    between atoms: C_2  and  C_3
REMARK    2  A    between atoms: C_2  and  C_4
REMARK    3  A    between atoms: C_4  and  N_5
REMARK    4  A    between atoms: N_8  and  C_9
REMARK    5  A    between atoms: C_9  and  C_10
REMARK    6  A    between atoms: C_10  and  C_11
REMARK    7  A    between atoms: C_11  and  C_12
REMARK    8  A    between atoms: C_12  and  C_13
REMARK    9  A    between atoms: C_13  and  C_14
REMARK   10  A    between atoms: C_14  and  N_15
REMARK                            x       y       z     vdW  Elec       q    Type
REMARK                         _______ _______ _______ _____ _____    ______ ____
ROOT
ATOM      1  N   UNL     1       4.812   4.727  17.306  0.00  0.00    +0.000 N 
ATOM      2  C   UNL     1       4.470   6.011  16.684  0.00  0.00    +0.000 C 
ATOM      3  C   UNL     1       3.937   7.088  17.648  0.00  0.00    +0.000 C 
ATOM      4  C   UNL     1       2.580   6.745  18.280  0.00  0.00    +0.000 C 
ATOM      5  C   UNL     1       2.683   6.499  19.791  0.00  0.00    +0.000 C 
ATOM      6  C   UNL     1       1.552   5.598  20.302  0.00  0.00    +0.000 C 
ATOM      7  C   UNL     1       2.037   4.607  21.371  0.00  0.00    +0.000 C 
ATOM      8  C   UNL     1       1.472   3.189  21.178  0.00  0.00    +0.000 C 
ATOM      9  C   UNL     1       2.510   2.189  20.659  0.00  0.00    +0.000 C 
ATOM     10  N   UNL     1       2.812   2.397  19.258  0.00  0.00    +0.000 N 
ATOM     11  C   UNL     1       3.854   1.803  18.615  0.00  0.00    +0.000 C 
ATOM     12  N   UNL     1       4.388   0.681  18.934  0.00  0.00    +0.000 NA
ATOM     13  N   UNL     1       4.444   2.428  17.556  0.00  0.00    +0.000 N 
ATOM     14  C   UNL     1       4.036   3.614  17.003  0.00  0.00    +0.000 C 
ATOM     15  O   UNL     1       3.032   3.669  16.299  0.00  0.00    +0.000 OA
ATOM     16  H   UNL     1       2.573   3.320  18.904  0.00  0.00    +0.000 HD
ATOM     17  H   UNL     1       3.844   0.267  19.694  0.00  0.00    +0.000 HD
ATOM     18  H   UNL     1       5.310   2.019  17.249  0.00  0.00    +0.000 HD
ENDROOT
BRANCH   1  19
ATOM     19  C   UNL     1       5.916   4.693  18.263  0.00  0.00    +0.000 C 
BRANCH  19  20
ATOM     20  C   UNL     1       7.243   5.196  17.696  0.00  0.00    +0.000 C 
BRANCH  20  21
ATOM     21  C   UNL     1       7.732   6.439  18.452  0.00  0.00    +0.000 C 
BRANCH  21  22
ATOM     22  C   UNL     1       7.334   7.781  17.813  0.00  0.00    +0.000 C 
BRANCH  22  23
ATOM     23  C   UNL     1       8.505   8.725  17.508  0.00  0.00    +0.000 C 
BRANCH  23  24
ATOM     24  C   UNL     1       8.631   9.793  18.587  0.00  0.00    +0.000 C 
BRANCH  24  28
ATOM     25  N   UNL     1      10.186  13.027  18.508  0.00  0.00    +0.000 N 
ATOM     26  C   UNL     1       9.671  11.915  19.062  0.00  0.00    +0.000 C 
ATOM     27  N   UNL     1       9.431  11.752  20.311  0.00  0.00    +0.000 NA
ATOM     28  N   UNL     1       9.380  10.959  18.135  0.00  0.00    +0.000 N 
ATOM     29  H   UNL     1      10.699  12.918  17.644  0.00  0.00    +0.000 HD
ATOM     30  H   UNL     1       9.771  12.572  20.815  0.00  0.00    +0.000 HD
ATOM     31  H   UNL     1       9.051  11.338  17.254  0.00  0.00    +0.000 HD
BRANCH  25  32
ATOM     32  C   UNL     1      10.114  14.367  19.049  0.00  0.00    +0.000 C 
BRANCH  32  34
ATOM     33  C   UNL     1      10.317  16.137  17.300  0.00  0.00    +0.000 C 
ATOM     34  C   UNL     1       9.535  15.336  18.047  0.00  0.00    +0.000 C 
ATOM     35  C   UNL     1       8.038  15.420  17.963  0.00  0.00    +0.000 C 
ENDBRANCH  32  34
ENDBRANCH  25  32
ENDBRANCH  24  28
ENDBRANCH  23  24
ENDBRANCH  22  23
ENDBRANCH  21  22
ENDBRANCH  20  21
ENDBRANCH  19  20
ENDBRANCH   1  19
TORSDOF 9
ENDMDL
MODEL 4
REMARK VINA RESULT:      -7.5      3.474     10.738
REMARK  Name = 
REMARK  10 active torsions:
REMARK  status: ('A' for Active; 'I' for Inactive)
REMARK    1  A    between atoms: C_2  and  C_3
REMARK    2  A    between atoms: C_2  and  C_4
REMARK    3  A    between atoms: C_4  and  N_5
REMARK    4  A    between atoms: N_8  and  C_9
REMARK    5  A    between atoms: C_9  and  C_10
REMARK    6  A    between atoms: C_10  and  C_11
REMARK    7  A    between atoms: C_11  and  C_12
REMARK    8  A    between atoms: C_12  and  C_13
REMARK    9  A    between atoms: C_13  and  C_14
REMARK   10  A    between atoms: C_14  and  N_15
REMARK                            x       y       z     vdW  Elec       q    Type
REMARK                         _______ _______ _______ _____ _____    ______ ____
ROOT
ATOM      1  N   UNL     1       4.910   4.660  17.272  0.00  0.00    +0.000 N 
ATOM      2  C   UNL     1       4.617   5.952  16.643  0.00  0.00    +0.000 C 
ATOM      3  C   UNL     1       4.121   7.053  17.599  0.00  0.00    +0.000 C 
ATOM      4  C   UNL     1       2.750   6.764  18.228  0.00  0.00    +0.000 C 
ATOM      5  C   UNL     1       2.839   6.522  19.741  0.00  0.00    +0.000 C 
ATOM      6  C   UNL     1       1.673   5.666  20.253  0.00  0.00    +0.000 C 
ATOM      7  C   UNL     1       2.118   4.663  21.328  0.00  0.00    +0.000 C 
ATOM      8  C   UNL     1       1.501   3.267  21.140  0.00  0.00    +0.000 C 
ATOM      9  C   UNL     1       2.503   2.225  20.629  0.00  0.00    +0.000 C 
ATOM     10  N   UNL     1       2.817   2.416  19.229  0.00  0.00    +0.000 N 
ATOM     11  C   UNL     1       3.839   1.780  18.592  0.00  0.00    +0.000 C 
ATOM     12  N   UNL     1       4.329   0.640  18.919  0.00  0.00    +0.000 NA
ATOM     13  N   UNL     1       4.455   2.378  17.532  0.00  0.00    +0.000 N 
ATOM     14  C   UNL     1       4.093   3.575  16.972  0.00  0.00    +0.000 C 
ATOM     15  O   UNL     1       3.094   3.664  16.264  0.00  0.00    +0.000 OA
ATOM     16  H   UNL     1       2.614   3.344  18.869  0.00  0.00    +0.000 HD
ATOM     17  H   UNL     1       3.768   0.251  19.678  0.00  0.00    +0.000 HD
ATOM     18  H   UNL     1       5.307   1.935  17.230  0.00  0.00    +0.000 HD
ENDROOT
BRANCH   1  19
ATOM     19  C   UNL     1       6.007   4.590  18.234  0.00  0.00    +0.000 C 
BRANCH  19  20
ATOM     20  C   UNL     1       7.303   5.234  17.741  0.00  0.00    +0.000 C 
BRANCH  20  21
ATOM     21  C   UNL     1       7.789   6.314  18.717  0.00  0.00    +0.000 C 
BRANCH  21  22
ATOM     22  C   UNL     1       7.608   7.760  18.222  0.00  0.00    +0.000 C 
BRANCH  22  23
ATOM     23  C   UNL     1       8.785   8.699  18.521  0.00  0.00    +0.000 C 
BRANCH  23  24
ATOM     24  C   UNL     1       8.605  10.033  17.808  0.00  0.00    +0.000 C 
BRANCH  24  28
ATOM     25  N   UNL     1      10.277  12.737  19.474  0.00  0.00    +0.000 N 
ATOM     26  C   UNL     1      10.045  11.836  18.503  0.00  0.00    +0.000 C 
ATOM     27  N   UNL     1      10.838  11.577  17.528  0.00  0.00    +0.000 NA
ATOM     28  N   UNL     1       8.868  11.172  18.679  0.00  0.00    +0.000 N 
ATOM     29  H   UNL     1       9.470  13.148  19.925  0.00  0.00    +0.000 HD
ATOM     30  H   UNL     1      11.627  12.224  17.573  0.00  0.00    +0.000 HD
ATOM     31  H   UNL     1       8.642  11.001  19.652  0.00  0.00    +0.000 HD
BRANCH  25  32
ATOM     32  C   UNL     1      11.571  13.211  19.914  0.00  0.00    +0.000 C 
BRANCH  32  34
ATOM     33  C   UNL     1      12.332  14.859  18.199  0.00  0.00    +0.000 C 
ATOM     34  C   UNL     1      11.838  14.614  19.428  0.00  0.00    +0.000 C 
ATOM     35  C   UNL     1      11.592  15.733  20.398  0.00  0.00    +0.000 C 
ENDBRANCH  32  34
ENDBRANCH  25  32
ENDBRANCH  24  28
ENDBRANCH  23  24
ENDBRANCH  22  23
ENDBRANCH  21  22
ENDBRANCH  20  21
ENDBRANCH  19  20
ENDBRANCH   1  19
TORSDOF 9
ENDMDL
MODEL 5
REMARK VINA RESULT:      -7.4      0.924      1.327
REMARK  Name = 
REMARK  10 active torsions:
REMARK  status: ('A' for Active; 'I' for Inactive)
REMARK    1  A    between atoms: C_2  and  C_3
REMARK    2  A    between atoms: C_2  and  C_4
REMARK    3  A    between atoms: C_4  and  N_5
REMARK    4  A    between atoms: N_8  and  C_9
REMARK    5  A    between atoms: C_9  and  C_10
REMARK    6  A    between atoms: C_10  and  C_11
REMARK    7  A    between atoms: C_11  and  C_12
REMARK    8  A    between atoms: C_12  and  C_13
REMARK    9  A    between atoms: C_13  and  C_14
REMARK   10  A    between atoms: C_14  and  N_15
REMARK                            x       y       z     vdW  Elec       q    Type
REMARK                         _______ _______ _______ _____ _____    ______ ____
ROOT
ATOM      1  N   UNL     1       9.453  12.985  18.015  0.00  0.00    +0.000 N 
ATOM      2  C   UNL     1      10.868  12.863  18.379  0.00  0.00    +0.000 C 
ATOM      3  C   UNL     1      11.139  12.373  19.814  0.00  0.00    +0.000 C 
ATOM      4  C   UNL     1      10.682  13.351  20.906  0.00  0.00    +0.000 C 
ATOM      5  C   UNL     1       9.510  12.803  21.732  0.00  0.00    +0.000 C 
ATOM      6  C   UNL     1       8.677  13.927  22.361  0.00  0.00    +0.000 C 
ATOM      7  C   UNL     1       7.173  13.620  22.333  0.00  0.00    +0.000 C 
ATOM      8  C   UNL     1       6.318  14.832  21.924  0.00  0.00    +0.000 C 
ATOM      9  C   UNL     1       5.742  14.718  20.509  0.00  0.00    +0.000 C 
ATOM     10  N   UNL     1       6.753  14.927  19.494  0.00  0.00    +0.000 N 
ATOM     11  C   UNL     1       6.561  14.659  18.173  0.00  0.00    +0.000 C 
ATOM     12  N   UNL     1       5.432  14.671  17.563  0.00  0.00    +0.000 NA
ATOM     13  N   UNL     1       7.622  14.305  17.391  0.00  0.00    +0.000 N 
ATOM     14  C   UNL     1       8.929  14.255  17.798  0.00  0.00    +0.000 C 
ATOM     15  O   UNL     1       9.576  15.284  17.969  0.00  0.00    +0.000 OA
ATOM     16  H   UNL     1       7.710  14.798  19.811  0.00  0.00    +0.000 HD
ATOM     17  H   UNL     1       4.717  15.001  18.213  0.00  0.00    +0.000 HD
ATOM     18  H   UNL     1       7.380  13.952  16.480  0.00  0.00    +0.000 HD
ENDROOT
BRANCH   1  19
ATOM     19  C   UNL     1       8.644  11.770  17.960  0.00  0.00    +0.000 C 
BRANCH  19  20
ATOM     20  C   UNL     1       9.438  10.487  18.204  0.00  0.00    +0.000 C 
BRANCH  20  21
ATOM     21  C   UNL     1       8.517   9.343  18.649  0.00  0.00    +0.000 C 
BRANCH  21  22
ATOM     22  C   UNL     1       7.894   8.531  17.499  0.00  0.00    +0.000 C 
BRANCH  22  23
ATOM     23  C   UNL     1       7.710   7.035  17.788  0.00  0.00    +0.000 C 
BRANCH  23  24
ATOM     24  C   UNL     1       6.312   6.578  17.392  0.00  0.00    +0.000 C 
BRANCH  24  28
ATOM     25  N   UNL     1       4.312   4.570  19.595  0.00  0.00    +0.000 N 
ATOM     26  C   UNL     1       5.202   4.826  18.618  0.00  0.00    +0.000 C 
ATOM     27  N   UNL     1       5.688   3.954  17.812  0.00  0.00    +0.000 NA
ATOM     28  N   UNL     1       5.519   6.148  18.537  0.00  0.00    +0.000 N 
ATOM     29  H   UNL     1       4.312   5.190  20.392  0.00  0.00    +0.000 HD
ATOM     30  H   UNL     1       5.348   3.033  18.089  0.00  0.00    +0.000 HD
ATOM     31  H   UNL     1       4.741   6.764  18.747  0.00  0.00    +0.000 HD
BRANCH  25  32
ATOM     32  C   UNL     1       3.380   3.465  19.637  0.00  0.00    +0.000 C 
BRANCH  32  34
ATOM     33  C   UNL     1       1.028   4.001  20.284  0.00  0.00    +0.000 C 
ATOM     34  C   UNL     1       1.973   3.918  19.329  0.00  0.00    +0.000 C 
ATOM     35  C   UNL     1       1.649   4.211  17.892  0.00  0.00    +0.000 C 
ENDBRANCH  32  34
ENDBRANCH  25  32
ENDBRANCH  24  28
ENDBRANCH  23  24
ENDBRANCH  22  23
ENDBRANCH  21  22
ENDBRANCH  20  21
ENDBRANCH  19  20
ENDBRANCH   1  19
TORSDOF 9
ENDMDL
MODEL 6
REMARK VINA RESULT:      -7.3      6.932      9.277
REMARK  Name = 
REMARK  10 active torsions:
REMARK  status: ('A' for Active; 'I' for Inactive)
REMARK    1  A    between atoms: C_2  and  C_3
REMARK    2  A    between atoms: C_2  and  C_4
REMARK    3  A    between atoms: C_4  and  N_5
REMARK    4  A    between atoms: N_8  and  C_9
REMARK    5  A    between atoms: C_9  and  C_10
REMARK    6  A    between atoms: C_10  and  C_11
REMARK    7  A    between atoms: C_11  and  C_12
REMARK    8  A    between atoms: C_12  and  C_13
REMARK    9  A    between atoms: C_13  and  C_14
REMARK   10  A    between atoms: C_14  and  N_15
REMARK                            x       y       z     vdW  Elec       q    Type
REMARK                         _______ _______ _______ _____ _____    ______ ____
ROOT
ATOM      1  N   UNL     1      -0.317  11.834  19.860  0.00  0.00    +0.000 N 
ATOM      2  C   UNL     1       0.137  12.722  20.935  0.00  0.00    +0.000 C 
ATOM      3  C   UNL     1      -0.872  12.944  22.077  0.00  0.00    +0.000 C 
ATOM      4  C   UNL     1      -2.142  13.695  21.652  0.00  0.00    +0.000 C 
ATOM      5  C   UNL     1      -3.394  12.809  21.712  0.00  0.00    +0.000 C 
ATOM      6  C   UNL     1      -4.490  13.301  20.757  0.00  0.00    +0.000 C 
ATOM      7  C   UNL     1      -5.227  12.141  20.072  0.00  0.00    +0.000 C 
ATOM      8  C   UNL     1      -5.471  12.384  18.573  0.00  0.00    +0.000 C 
ATOM      9  C   UNL     1      -4.570  11.537  17.667  0.00  0.00    +0.000 C 
ATOM     10  N   UNL     1      -3.206  12.020  17.654  0.00  0.00    +0.000 N 
ATOM     11  C   UNL     1      -2.165  11.324  17.120  0.00  0.00    +0.000 C 
ATOM     12  N   UNL     1      -2.250  10.461  16.174  0.00  0.00    +0.000 NA
ATOM     13  N   UNL     1      -0.907  11.492  17.620  0.00  0.00    +0.000 N 
ATOM     14  C   UNL     1      -0.554  12.379  18.603  0.00  0.00    +0.000 C 
ATOM     15  O   UNL     1      -0.472  13.582  18.368  0.00  0.00    +0.000 OA
ATOM     16  H   UNL     1      -2.953  12.607  18.445  0.00  0.00    +0.000 HD
ATOM     17  H   UNL     1      -3.212  10.450  15.831  0.00  0.00    +0.000 HD
ATOM     18  H   UNL     1      -0.229  10.822  17.300  0.00  0.00    +0.000 HD
ENDROOT
BRANCH   1  19
ATOM     19  C   UNL     1      -0.561  10.429  20.178  0.00  0.00    +0.000 C 
BRANCH  19  20
ATOM     20  C   UNL     1       0.607   9.743  20.886  0.00  0.00    +0.000 C 
BRANCH  20  21
ATOM     21  C   UNL     1       1.205   8.630  20.015  0.00  0.00    +0.000 C 
BRANCH  21  22
ATOM     22  C   UNL     1       1.978   7.549  20.792  0.00  0.00    +0.000 C 
BRANCH  22  23
ATOM     23  C   UNL     1       1.610   6.104  20.429  0.00  0.00    +0.000 C 
BRANCH  23  24
ATOM     24  C   UNL     1       2.810   5.373  19.842  0.00  0.00    +0.000 C 
BRANCH  24  28
ATOM     25  N   UNL     1       5.150   6.375  17.311  0.00  0.00    +0.000 N 
ATOM     26  C   UNL     1       4.477   5.526  18.108  0.00  0.00    +0.000 C 
ATOM     27  N   UNL     1       4.744   4.280  18.255  0.00  0.00    +0.000 NA
ATOM     28  N   UNL     1       3.476   6.142  18.797  0.00  0.00    +0.000 N 
ATOM     29  H   UNL     1       4.644   7.175  16.957  0.00  0.00    +0.000 HD
ATOM     30  H   UNL     1       5.495   4.032  17.610  0.00  0.00    +0.000 HD
ATOM     31  H   UNL     1       3.700   7.092  19.072  0.00  0.00    +0.000 HD
BRANCH  25  32
ATOM     32  C   UNL     1       6.522   6.236  16.873  0.00  0.00    +0.000 C 
BRANCH  32  34
ATOM     33  C   UNL     1       7.890   6.130  18.959  0.00  0.00    +0.000 C 
ATOM     34  C   UNL     1       7.484   6.821  17.877  0.00  0.00    +0.000 C 
ATOM     35  C   UNL     1       7.924   8.240  17.657  0.00  0.00    +0.000 C 
ENDBRANCH  32  34
ENDBRANCH  25  32
ENDBRANCH  24  28
ENDBRANCH  23  24
ENDBRANCH  22  23
ENDBRANCH  21  22
ENDBRANCH  20  21
ENDBRANCH  19  20
ENDBRANCH   1  19
TORSDOF 9
ENDMDL
MODEL 7
REMARK VINA RESULT:      -7.2      2.584      3.284
REMARK  Name = 
REMARK  10 active torsions:
REMARK  status: ('A' for Active; 'I' for Inactive)
REMARK    1  A    between atoms: C_2  and  C_3
REMARK    2  A    between atoms: C_2  and  C_4
REMARK    3  A    between atoms: C_4  and  N_5
REMARK    4  A    between atoms: N_8  and  C_9
REMARK    5  A    between atoms: C_9  and  C_10
REMARK    6  A    between atoms: C_10  and  C_11
REMARK    7  A    between atoms: C_11  and  C_12
REMARK    8  A    between atoms: C_12  and  C_13
REMARK    9  A    between atoms: C_13  and  C_14
REMARK   10  A    between atoms: C_14  and  N_15
REMARK                            x       y       z     vdW  Elec       q    Type
REMARK                         _______ _______ _______ _____ _____    ______ ____
ROOT
ATOM      1  N   UNL     1       9.276  11.789  18.002  0.00  0.00    +0.000 N 
ATOM      2  C   UNL     1      10.657  11.377  18.272  0.00  0.00    +0.000 C 
ATOM      3  C   UNL     1      11.000  11.155  19.757  0.00  0.00    +0.000 C 
ATOM      4  C   UNL     1      10.948  12.432  20.608  0.00  0.00    +0.000 C 
ATOM      5  C   UNL     1       9.807  12.408  21.633  0.00  0.00    +0.000 C 
ATOM      6  C   UNL     1       9.364  13.822  22.031  0.00  0.00    +0.000 C 
ATOM      7  C   UNL     1       7.841  13.928  22.198  0.00  0.00    +0.000 C 
ATOM      8  C   UNL     1       7.254  15.205  21.574  0.00  0.00    +0.000 C 
ATOM      9  C   UNL     1       6.476  14.945  20.280  0.00  0.00    +0.000 C 
ATOM     10  N   UNL     1       7.355  14.652  19.168  0.00  0.00    +0.000 N 
ATOM     11  C   UNL     1       6.922  14.165  17.973  0.00  0.00    +0.000 C 
ATOM     12  N   UNL     1       5.755  14.345  17.470  0.00  0.00    +0.000 NA
ATOM     13  N   UNL     1       7.746  13.381  17.220  0.00  0.00    +0.000 N 
ATOM     14  C   UNL     1       9.048  13.074  17.522  0.00  0.00    +0.000 C 
ATOM     15  O   UNL     1       9.940  13.906  17.383  0.00  0.00    +0.000 OA
ATOM     16  H   UNL     1       8.287  14.345  19.431  0.00  0.00    +0.000 HD
ATOM     17  H   UNL     1       5.238  14.987  18.074  0.00  0.00    +0.000 HD
ATOM     18  H   UNL     1       7.302  12.917  16.446  0.00  0.00    +0.000 HD
ENDROOT
BRANCH   1  19
ATOM     19  C   UNL     1       8.199  10.851  18.311  0.00  0.00    +0.000 C 
BRANCH  19  20
ATOM     20  C   UNL     1       8.586   9.384  18.127  0.00  0.00    +0.000 C 
BRANCH  20  21
ATOM     21  C   UNL     1       7.359   8.527  17.788  0.00  0.00    +0.000 C 
BRANCH  21  22
ATOM     22  C   UNL     1       7.658   7.283  16.933  0.00  0.00    +0.000 C 
BRANCH  22  23
ATOM     23  C   UNL     1       7.283   5.944  17.584  0.00  0.00    +0.000 C 
BRANCH  23  24
ATOM     24  C   UNL     1       5.845   5.568  17.254  0.00  0.00    +0.000 C 
BRANCH  24  28
ATOM     25  N   UNL     1       5.777   4.453  13.842  0.00  0.00    +0.000 N 
ATOM     26  C   UNL     1       5.850   4.339  15.181  0.00  0.00    +0.000 C 
ATOM     27  N   UNL     1       6.160   3.268  15.817  0.00  0.00    +0.000 NA
ATOM     28  N   UNL     1       5.596   5.516  15.818  0.00  0.00    +0.000 N 
ATOM     29  H   UNL     1       5.157   5.161  13.473  0.00  0.00    +0.000 HD
ATOM     30  H   UNL     1       6.260   2.509  15.142  0.00  0.00    +0.000 HD
ATOM     31  H   UNL     1       5.936   6.329  15.317  0.00  0.00    +0.000 HD
BRANCH  25  32
ATOM     32  C   UNL     1       6.468   3.632  12.873  0.00  0.00    +0.000 C 
BRANCH  32  34
ATOM     33  C   UNL     1       4.311   3.499  11.621  0.00  0.00    +0.000 C 
ATOM     34  C   UNL     1       5.500   2.951  11.936  0.00  0.00    +0.000 C 
ATOM     35  C   UNL     1       5.889   1.597  11.416  0.00  0.00    +0.000 C 
ENDBRANCH  32  34
ENDBRANCH  25  32
ENDBRANCH  24  28
ENDBRANCH  23  24
ENDBRANCH  22  23
ENDBRANCH  21  22
ENDBRANCH  20  21
ENDBRANCH  19  20
ENDBRANCH   1  19
TORSDOF 9
ENDMDL
MODEL 8
REMARK VINA RESULT:      -7.2      1.084      1.251
REMARK  Name = 
REMARK  10 active torsions:
REMARK  status: ('A' for Active; 'I' for Inactive)
REMARK    1  A    between atoms: C_2  and  C_3
REMARK    2  A    between atoms: C_2  and  C_4
REMARK    3  A    between atoms: C_4  and  N_5
REMARK    4  A    between atoms: N_8  and  C_9
REMARK    5  A    between atoms: C_9  and  C_10
REMARK    6  A    between atoms: C_10  and  C_11
REMARK    7  A    between atoms: C_11  and  C_12
REMARK    8  A    between atoms: C_12  and  C_13
REMARK    9  A    between atoms: C_13  and  C_14
REMARK   10  A    between atoms: C_14  and  N_15
REMARK                            x       y       z     vdW  Elec       q    Type
REMARK                         _______ _______ _______ _____ _____    ______ ____
ROOT
ATOM      1  N   UNL     1       9.537  11.761  18.238  0.00  0.00    +0.000 N 
ATOM      2  C   UNL     1      10.957  11.479  18.470  0.00  0.00    +0.000 C 
ATOM      3  C   UNL     1      11.453  11.730  19.907  0.00  0.00    +0.000 C 
ATOM      4  C   UNL     1      11.417  13.205  20.332  0.00  0.00    +0.000 C 
ATOM      5  C   UNL     1      10.382  13.473  21.433  0.00  0.00    +0.000 C 
ATOM      6  C   UNL     1       9.906  14.932  21.429  0.00  0.00    +0.000 C 
ATOM      7  C   UNL     1       8.403  15.053  21.720  0.00  0.00    +0.000 C 
ATOM      8  C   UNL     1       7.693  16.065  20.805  0.00  0.00    +0.000 C 
ATOM      9  C   UNL     1       6.808  15.405  19.742  0.00  0.00    +0.000 C 
ATOM     10  N   UNL     1       7.591  14.804  18.683  0.00  0.00    +0.000 N 
ATOM     11  C   UNL     1       7.071  13.966  17.745  0.00  0.00    +0.000 C 
ATOM     12  N   UNL     1       5.853  13.959  17.341  0.00  0.00    +0.000 NA
ATOM     13  N   UNL     1       7.859  13.005  17.181  0.00  0.00    +0.000 N 
ATOM     14  C   UNL     1       9.197  12.832  17.420  0.00  0.00    +0.000 C 
ATOM     15  O   UNL     1      10.028  13.599  16.941  0.00  0.00    +0.000 OA
ATOM     16  H   UNL     1       8.559  14.611  18.925  0.00  0.00    +0.000 HD
ATOM     17  H   UNL     1       5.363  14.744  17.774  0.00  0.00    +0.000 HD
ATOM     18  H   UNL     1       7.367  12.317  16.636  0.00  0.00    +0.000 HD
ENDROOT
BRANCH   1  19
ATOM     19  C   UNL     1       8.545  10.941  18.931  0.00  0.00    +0.000 C 
BRANCH  19  20
ATOM     20  C   UNL     1       8.798   9.438  18.818  0.00  0.00    +0.000 C 
BRANCH  20  21
ATOM     21  C   UNL     1       8.187   8.869  17.530  0.00  0.00    +0.000 C 
BRANCH  21  22
ATOM     22  C   UNL     1       7.231   7.681  17.740  0.00  0.00    +0.000 C 
BRANCH  22  23
ATOM     23  C   UNL     1       7.823   6.505  18.529  0.00  0.00    +0.000 C 
BRANCH  23  24
ATOM     24  C   UNL     1       7.494   5.182  17.852  0.00  0.00    +0.000 C 
BRANCH  24  28
ATOM     25  N   UNL     1       4.407   3.673  18.893  0.00  0.00    +0.000 N 
ATOM     26  C   UNL     1       5.285   4.236  18.043  0.00  0.00    +0.000 C 
ATOM     27  N   UNL     1       5.016   4.625  16.850  0.00  0.00    +0.000 NA
ATOM     28  N   UNL     1       6.517   4.399  18.601  0.00  0.00    +0.000 N 
ATOM     29  H   UNL     1       4.782   3.056  19.600  0.00  0.00    +0.000 HD
ATOM     30  H   UNL     1       4.055   4.361  16.634  0.00  0.00    +0.000 HD
ATOM     31  H   UNL     1       6.488   4.623  19.589  0.00  0.00    +0.000 HD
BRANCH  25  32
ATOM     32  C   UNL     1       2.969   3.828  18.869  0.00  0.00    +0.000 C 
BRANCH  32  34
ATOM     33  C   UNL     1       1.562   4.790  20.693  0.00  0.00    +0.000 C 
ATOM     34  C   UNL     1       2.390   3.820  20.262  0.00  0.00    +0.000 C 
ATOM     35  C   UNL     1       2.828   2.714  21.178  0.00  0.00    +0.000 C 
ENDBRANCH  32  34
ENDBRANCH  25  32
ENDBRANCH  24  28
ENDBRANCH  23  24
ENDBRANCH  22  23
ENDBRANCH  21  22
ENDBRANCH  20  21
ENDBRANCH  19  20
ENDBRANCH   1  19
TORSDOF 9
ENDMDL
MODEL 9
REMARK VINA RESULT:      -7.2      6.950      8.852
REMARK  Name = 
REMARK  10 active torsions:
REMARK  status: ('A' for Active; 'I' for Inactive)
REMARK    1  A    between atoms: C_2  and  C_3
REMARK    2  A    between atoms: C_2  and  C_4
REMARK    3  A    between atoms: C_4  and  N_5
REMARK    4  A    between atoms: N_8  and  C_9
REMARK    5  A    between atoms: C_9  and  C_10
REMARK    6  A    between atoms: C_10  and  C_11
REMARK    7  A    between atoms: C_11  and  C_12
REMARK    8  A    between atoms: C_12  and  C_13
REMARK    9  A    between atoms: C_13  and  C_14
REMARK   10  A    between atoms: C_14  and  N_15
REMARK                            x       y       z     vdW  Elec       q    Type
REMARK                         _______ _______ _______ _____ _____    ______ ____
ROOT
ATOM      1  N   UNL     1      -0.346  11.325  20.208  0.00  0.00    +0.000 N 
ATOM      2  C   UNL     1       0.120  12.108  21.357  0.00  0.00    +0.000 C 
ATOM      3  C   UNL     1      -0.945  12.400  22.431  0.00  0.00    +0.000 C 
ATOM      4  C   UNL     1      -2.084  13.312  21.950  0.00  0.00    +0.000 C 
ATOM      5  C   UNL     1      -3.429  12.577  21.873  0.00  0.00    +0.000 C 
ATOM      6  C   UNL     1      -4.383  13.233  20.865  0.00  0.00    +0.000 C 
ATOM      7  C   UNL     1      -5.189  12.196  20.071  0.00  0.00    +0.000 C 
ATOM      8  C   UNL     1      -5.284  12.528  18.571  0.00  0.00    +0.000 C 
ATOM      9  C   UNL     1      -4.417  11.619  17.694  0.00  0.00    +0.000 C 
ATOM     10  N   UNL     1      -3.010  11.938  17.806  0.00  0.00    +0.000 N 
ATOM     11  C   UNL     1      -2.016  11.148  17.316  0.00  0.00    +0.000 C 
ATOM     12  N   UNL     1      -2.123  10.340  16.325  0.00  0.00    +0.000 NA
ATOM     13  N   UNL     1      -0.791  11.147  17.916  0.00  0.00    +0.000 N 
ATOM     14  C   UNL     1      -0.418  11.945  18.966  0.00  0.00    +0.000 C 
ATOM     15  O   UNL     1      -0.181  13.138  18.798  0.00  0.00    +0.000 OA
ATOM     16  H   UNL     1      -2.756  12.458  18.642  0.00  0.00    +0.000 HD
ATOM     17  H   UNL     1      -3.050  10.456  15.911  0.00  0.00    +0.000 HD
ATOM     18  H   UNL     1      -0.170  10.415  17.614  0.00  0.00    +0.000 HD
ENDROOT
BRANCH   1  19
ATOM     19  C   UNL     1      -0.772   9.946  20.437  0.00  0.00    +0.000 C 
BRANCH  19  20
ATOM     20  C   UNL     1       0.280   9.080  21.128  0.00  0.00    +0.000 C 
BRANCH  20  21
ATOM     21  C   UNL     1       1.602   9.088  20.349  0.00  0.00    +0.000 C 
BRANCH  21  22
ATOM     22  C   UNL     1       1.825   7.864  19.443  0.00  0.00    +0.000 C 
BRANCH  22  23
ATOM     23  C   UNL     1       2.478   8.172  18.088  0.00  0.00    +0.000 C 
BRANCH  23  24
ATOM     24  C   UNL     1       3.457   7.072  17.699  0.00  0.00    +0.000 C 
BRANCH  24  28
ATOM     25  N   UNL     1       3.780   4.062  19.628  0.00  0.00    +0.000 N 
ATOM     26  C   UNL     1       3.711   4.820  18.519  0.00  0.00    +0.000 C 
ATOM     27  N   UNL     1       3.600   4.372  17.322  0.00  0.00    +0.000 NA
ATOM     28  N   UNL     1       3.730   6.153  18.798  0.00  0.00    +0.000 N 
ATOM     29  H   UNL     1       4.260   4.455  20.426  0.00  0.00    +0.000 HD
ATOM     30  H   UNL     1       3.654   3.354  17.352  0.00  0.00    +0.000 HD
ATOM     31  H   UNL     1       3.250   6.393  19.658  0.00  0.00    +0.000 HD
BRANCH  25  32
ATOM     32  C   UNL     1       3.269   2.718  19.781  0.00  0.00    +0.000 C 
BRANCH  32  34
ATOM     33  C   UNL     1       1.278   2.878  21.279  0.00  0.00    +0.000 C 
ATOM     34  C   UNL     1       1.783   2.718  20.041  0.00  0.00    +0.000 C 
ATOM     35  C   UNL     1       0.883   2.465  18.866  0.00  0.00    +0.000 C 
ENDBRANCH  32  34
ENDBRANCH  25  32
ENDBRANCH  24  28
ENDBRANCH  23  24
ENDBRANCH  22  23
ENDBRANCH  21  22
ENDBRANCH  20  21
ENDBRANCH  19  20
ENDBRANCH   1  19
TORSDOF 9
ENDMDL
