MODEL 1
REMARK VINA RESULT:      -8.9      0.000      0.000
REMARK  Name = 
REMARK  3 active torsions:
REMARK  status: ('A' for Active; 'I' for Inactive)
REMARK    1  A    between atoms: C_2  and  C_17
REMARK    2  A    between atoms: C_20  and  S_21
REMARK    3  A    between atoms: S_21  and  N_24
REMARK                            x       y       z     vdW  Elec       q    Type
REMARK                         _______ _______ _______ _____ _____    ______ ____
ROOT
ATOM      1  O   UNL     1       1.224   8.923  22.389  0.00  0.00    +0.000 OA
ATOM      2  C   UNL     1       1.112   8.803  21.173  0.00  0.00    +0.000 C 
ATOM      3  N   UNL     1       0.447   9.644  20.314  0.00  0.00    +0.000 N 
ATOM      4  C   UNL     1      -0.161  10.786  20.750  0.00  0.00    +0.000 A 
ATOM      5  N   UNL     1      -0.002  11.458  21.857  0.00  0.00    +0.000 NA
ATOM      6  C   UNL     1      -0.884  12.526  21.879  0.00  0.00    +0.000 A 
ATOM      7  C   UNL     1      -1.005  13.500  22.894  0.00  0.00    +0.000 A 
ATOM      8  C   UNL     1      -1.976  14.501  22.773  0.00  0.00    +0.000 A 
ATOM      9  C   UNL     1      -2.821  14.540  21.662  0.00  0.00    +0.000 A 
ATOM     10  C   UNL     1      -2.728  13.583  20.656  0.00  0.00    +0.000 A 
ATOM     11  C   UNL     1      -1.731  12.607  20.768  0.00  0.00    +0.000 A 
ATOM     12  S   UNL     1      -1.309  11.379  19.643  0.00  0.00    +0.000 S 
ATOM     13  O   UNL     1      -3.780  15.503  21.477  0.00  0.00    +0.000 OA
ATOM     14  C   UNL     1      -3.548  16.636  22.318  0.00  0.00    +0.000 C 
ATOM     15  C   UNL     1      -3.244  16.191  23.737  0.00  0.00    +0.000 C 
ATOM     16  O   UNL     1      -2.032  15.428  23.786  0.00  0.00    +0.000 OA
ATOM     17  H   UNL     1       0.209   9.341  19.383  0.00  0.00    +0.000 HD
ENDROOT
BRANCH   2  18
ATOM     18  C   UNL     1       1.682   7.592  20.530  0.00  0.00    +0.000 A 
ATOM     19  C   UNL     1       2.222   7.708  19.242  0.00  0.00    +0.000 A 
ATOM     20  C   UNL     1       2.642   6.571  18.552  0.00  0.00    +0.000 A 
ATOM     21  C   UNL     1       2.535   5.314  19.155  0.00  0.00    +0.000 A 
ATOM     22  C   UNL     1       2.030   5.192  20.457  0.00  0.00    +0.000 A 
ATOM     23  C   UNL     1       1.608   6.334  21.145  0.00  0.00    +0.000 A 
BRANCH  21  24
ATOM     24  S   UNL     1       2.845   3.858  18.151  0.00  0.00    +0.000 S 
ATOM     25  O   UNL     1       2.815   2.716  19.032  0.00  0.00    +0.000 OA
ATOM     26  O   UNL     1       1.968   3.942  17.002  0.00  0.00    +0.000 OA
BRANCH  24  27
ATOM     27  N   UNL     1       4.459   4.080  17.618  0.00  0.00    +0.000 NA
ATOM     28  C   UNL     1       4.636   4.584  16.240  0.00  0.00    +0.000 C 
ATOM     29  C   UNL     1       5.825   3.945  15.529  0.00  0.00    +0.000 C 
ATOM     30  C   UNL     1       7.165   4.589  15.864  0.00  0.00    +0.000 C 
ATOM     31  C   UNL     1       7.562   4.461  17.327  0.00  0.00    +0.000 C 
ATOM     32  C   UNL     1       6.641   5.245  18.252  0.00  0.00    +0.000 C 
ATOM     33  C   UNL     1       5.411   4.466  18.688  0.00  0.00    +0.000 C 
ENDBRANCH  24  27
ENDBRANCH  21  24
ENDBRANCH   2  18
TORSDOF 3
ENDMDL
MODEL 2
REMARK VINA RESULT:      -8.9      1.240      1.610
REMARK  Name = 
REMARK  3 active torsions:
REMARK  status: ('A' for Active; 'I' for Inactive)
REMARK    1  A    between atoms: C_2  and  C_17
REMARK    2  A    between atoms: C_20  and  S_21
REMARK    3  A    between atoms: S_21  and  N_24
REMARK                            x       y       z     vdW  Elec       q    Type
REMARK                         _______ _______ _______ _____ _____    ______ ____
ROOT
ATOM      1  O   UNL     1       1.204  10.692  19.133  0.00  0.00    +0.000 OA
ATOM      2  C   UNL     1       0.905   9.786  19.904  0.00  0.00    +0.000 C 
ATOM      3  N   UNL     1       0.079   9.866  20.999  0.00  0.00    +0.000 N 
ATOM      4  C   UNL     1      -0.559  11.024  21.337  0.00  0.00    +0.000 A 
ATOM      5  N   UNL     1      -0.796  12.095  20.630  0.00  0.00    +0.000 NA
ATOM      6  C   UNL     1      -1.430  13.039  21.422  0.00  0.00    +0.000 A 
ATOM      7  C   UNL     1      -1.872  14.318  21.020  0.00  0.00    +0.000 A 
ATOM      8  C   UNL     1      -2.470  15.165  21.960  0.00  0.00    +0.000 A 
ATOM      9  C   UNL     1      -2.628  14.755  23.286  0.00  0.00    +0.000 A 
ATOM     10  C   UNL     1      -2.188  13.504  23.707  0.00  0.00    +0.000 A 
ATOM     11  C   UNL     1      -1.624  12.650  22.753  0.00  0.00    +0.000 A 
ATOM     12  S   UNL     1      -1.099  11.026  22.950  0.00  0.00    +0.000 S 
ATOM     13  O   UNL     1      -3.219  15.531  24.251  0.00  0.00    +0.000 OA
ATOM     14  C   UNL     1      -3.980  16.593  23.670  0.00  0.00    +0.000 C 
ATOM     15  C   UNL     1      -3.178  17.288  22.583  0.00  0.00    +0.000 C 
ATOM     16  O   UNL     1      -2.893  16.389  21.503  0.00  0.00    +0.000 OA
ATOM     17  H   UNL     1       0.085   9.140  21.698  0.00  0.00    +0.000 HD
ENDROOT
BRANCH   2  18
ATOM     18  C   UNL     1       1.542   8.457  19.709  0.00  0.00    +0.000 A 
ATOM     19  C   UNL     1       2.144   8.178  18.475  0.00  0.00    +0.000 A 
ATOM     20  C   UNL     1       2.630   6.899  18.205  0.00  0.00    +0.000 A 
ATOM     21  C   UNL     1       2.527   5.898  19.176  0.00  0.00    +0.000 A 
ATOM     22  C   UNL     1       1.959   6.178  20.427  0.00  0.00    +0.000 A 
ATOM     23  C   UNL     1       1.471   7.461  20.693  0.00  0.00    +0.000 A 
BRANCH  21  24
ATOM     24  S   UNL     1       2.929   4.212  18.708  0.00  0.00    +0.000 S 
ATOM     25  O   UNL     1       2.966   3.429  19.919  0.00  0.00    +0.000 OA
ATOM     26  O   UNL     1       2.052   3.857  17.612  0.00  0.00    +0.000 OA
BRANCH  24  27
ATOM     27  N   UNL     1       4.527   4.339  18.103  0.00  0.00    +0.000 NA
ATOM     28  C   UNL     1       4.666   4.651  16.665  0.00  0.00    +0.000 C 
ATOM     29  C   UNL     1       5.826   3.907  16.011  0.00  0.00    +0.000 C 
ATOM     30  C   UNL     1       7.182   4.571  16.217  0.00  0.00    +0.000 C 
ATOM     31  C   UNL     1       7.623   4.633  17.672  0.00  0.00    +0.000 C 
ATOM     32  C   UNL     1       6.740   5.547  18.510  0.00  0.00    +0.000 C 
ATOM     33  C   UNL     1       5.516   4.851  19.083  0.00  0.00    +0.000 C 
ENDBRANCH  24  27
ENDBRANCH  21  24
ENDBRANCH   2  18
TORSDOF 3
ENDMDL
MODEL 3
REMARK VINA RESULT:      -8.7      1.294      1.988
REMARK  Name = 
REMARK  3 active torsions:
REMARK  status: ('A' for Active; 'I' for Inactive)
REMARK    1  A    between atoms: C_2  and  C_17
REMARK    2  A    between atoms: C_20  and  S_21
REMARK    3  A    between atoms: S_21  and  N_24
REMARK                            x       y       z     vdW  Elec       q    Type
REMARK                         _______ _______ _______ _____ _____    ______ ____
ROOT
ATOM      1  O   UNL     1       1.163  10.919  19.196  0.00  0.00    +0.000 OA
ATOM      2  C   UNL     1       0.837  10.001  19.942  0.00  0.00    +0.000 C 
ATOM      3  N   UNL     1      -0.016  10.067  21.016  0.00  0.00    +0.000 N 
ATOM      4  C   UNL     1      -0.653  11.223  21.360  0.00  0.00    +0.000 A 
ATOM      5  N   UNL     1      -0.865  12.309  20.668  0.00  0.00    +0.000 NA
ATOM      6  C   UNL     1      -1.511  13.243  21.462  0.00  0.00    +0.000 A 
ATOM      7  C   UNL     1      -1.934  14.533  21.073  0.00  0.00    +0.000 A 
ATOM      8  C   UNL     1      -2.549  15.367  22.014  0.00  0.00    +0.000 A 
ATOM      9  C   UNL     1      -2.745  14.933  23.327  0.00  0.00    +0.000 A 
ATOM     10  C   UNL     1      -2.325  13.670  23.735  0.00  0.00    +0.000 A 
ATOM     11  C   UNL     1      -1.743  12.830  22.779  0.00  0.00    +0.000 A 
ATOM     12  S   UNL     1      -1.235  11.199  22.958  0.00  0.00    +0.000 S 
ATOM     13  O   UNL     1      -3.355  15.694  24.292  0.00  0.00    +0.000 OA
ATOM     14  C   UNL     1      -4.092  16.774  23.712  0.00  0.00    +0.000 C 
ATOM     15  C   UNL     1      -3.257  17.482  22.660  0.00  0.00    +0.000 C 
ATOM     16  O   UNL     1      -2.951  16.603  21.571  0.00  0.00    +0.000 OA
ATOM     17  H   UNL     1      -0.033   9.328  21.701  0.00  0.00    +0.000 HD
ENDROOT
BRANCH   2  18
ATOM     18  C   UNL     1       1.469   8.672  19.737  0.00  0.00    +0.000 A 
ATOM     19  C   UNL     1       2.056   8.392  18.496  0.00  0.00    +0.000 A 
ATOM     20  C   UNL     1       2.536   7.113  18.218  0.00  0.00    +0.000 A 
ATOM     21  C   UNL     1       2.442   6.111  19.189  0.00  0.00    +0.000 A 
ATOM     22  C   UNL     1       1.889   6.391  20.447  0.00  0.00    +0.000 A 
ATOM     23  C   UNL     1       1.407   7.674  20.721  0.00  0.00    +0.000 A 
BRANCH  21  24
ATOM     24  S   UNL     1       2.835   4.424  18.714  0.00  0.00    +0.000 S 
ATOM     25  O   UNL     1       2.974   3.659  19.928  0.00  0.00    +0.000 OA
ATOM     26  O   UNL     1       1.885   4.042  17.691  0.00  0.00    +0.000 OA
BRANCH  24  27
ATOM     27  N   UNL     1       4.383   4.567  17.991  0.00  0.00    +0.000 NA
ATOM     28  C   UNL     1       5.546   4.289  18.860  0.00  0.00    +0.000 C 
ATOM     29  C   UNL     1       6.723   5.218  18.581  0.00  0.00    +0.000 C 
ATOM     30  C   UNL     1       7.586   4.786  17.402  0.00  0.00    +0.000 C 
ATOM     31  C   UNL     1       6.854   4.791  16.068  0.00  0.00    +0.000 C 
ATOM     32  C   UNL     1       5.755   3.739  16.003  0.00  0.00    +0.000 C 
ATOM     33  C   UNL     1       4.421   4.220  16.549  0.00  0.00    +0.000 C 
ENDBRANCH  24  27
ENDBRANCH  21  24
ENDBRANCH   2  18
TORSDOF 3
ENDMDL
MODEL 4
REMARK VINA RESULT:      -8.7      1.685      2.530
REMARK  Name = 
REMARK  3 active torsions:
REMARK  status: ('A' for Active; 'I' for Inactive)
REMARK    1  A    between atoms: C_2  and  C_17
REMARK    2  A    between atoms: C_20  and  S_21
REMARK    3  A    between atoms: S_21  and  N_24
REMARK                            x       y       z     vdW  Elec       q    Type
REMARK                         _______ _______ _______ _____ _____    ______ ____
ROOT
ATOM      1  O   UNL     1       0.977  10.019  18.435  0.00  0.00    +0.000 OA
ATOM      2  C   UNL     1       1.063   9.190  19.336  0.00  0.00    +0.000 C 
ATOM      3  N   UNL     1       0.477   9.250  20.577  0.00  0.00    +0.000 N 
ATOM      4  C   UNL     1      -0.338  10.282  20.941  0.00  0.00    +0.000 A 
ATOM      5  N   UNL     1      -0.960  11.165  20.209  0.00  0.00    +0.000 NA
ATOM      6  C   UNL     1      -1.629  12.057  21.031  0.00  0.00    +0.000 A 
ATOM      7  C   UNL     1      -2.435  13.142  20.622  0.00  0.00    +0.000 A 
ATOM      8  C   UNL     1      -3.017  13.969  21.589  0.00  0.00    +0.000 A 
ATOM      9  C   UNL     1      -2.806  13.729  22.948  0.00  0.00    +0.000 A 
ATOM     10  C   UNL     1      -2.005  12.673  23.375  0.00  0.00    +0.000 A 
ATOM     11  C   UNL     1      -1.456  11.831  22.402  0.00  0.00    +0.000 A 
ATOM     12  S   UNL     1      -0.531  10.401  22.626  0.00  0.00    +0.000 S 
ATOM     13  O   UNL     1      -3.360  14.492  23.945  0.00  0.00    +0.000 OA
ATOM     14  C   UNL     1      -4.452  15.274  23.454  0.00  0.00    +0.000 C 
ATOM     15  C   UNL     1      -4.072  15.960  22.154  0.00  0.00    +0.000 C 
ATOM     16  O   UNL     1      -3.802  14.997  21.127  0.00  0.00    +0.000 OA
ATOM     17  H   UNL     1       0.795   8.650  21.322  0.00  0.00    +0.000 HD
ENDROOT
BRANCH   2  18
ATOM     18  C   UNL     1       1.945   8.013  19.127  0.00  0.00    +0.000 A 
ATOM     19  C   UNL     1       2.007   7.036  20.129  0.00  0.00    +0.000 A 
ATOM     20  C   UNL     1       2.923   5.988  20.032  0.00  0.00    +0.000 A 
ATOM     21  C   UNL     1       3.771   5.909  18.924  0.00  0.00    +0.000 A 
ATOM     22  C   UNL     1       3.691   6.862  17.899  0.00  0.00    +0.000 A 
ATOM     23  C   UNL     1       2.773   7.912  18.000  0.00  0.00    +0.000 A 
BRANCH  21  24
ATOM     24  S   UNL     1       5.101   4.702  18.954  0.00  0.00    +0.000 S 
ATOM     25  O   UNL     1       6.168   5.260  19.746  0.00  0.00    +0.000 OA
ATOM     26  O   UNL     1       4.505   3.426  19.289  0.00  0.00    +0.000 OA
BRANCH  24  27
ATOM     27  N   UNL     1       5.620   4.645  17.321  0.00  0.00    +0.000 NA
ATOM     28  C   UNL     1       7.067   4.832  17.081  0.00  0.00    +0.000 C 
ATOM     29  C   UNL     1       7.354   5.646  15.824  0.00  0.00    +0.000 C 
ATOM     30  C   UNL     1       7.315   4.831  14.537  0.00  0.00    +0.000 C 
ATOM     31  C   UNL     1       5.950   4.235  14.226  0.00  0.00    +0.000 C 
ATOM     32  C   UNL     1       5.534   3.174  15.236  0.00  0.00    +0.000 C 
ATOM     33  C   UNL     1       4.825   3.741  16.455  0.00  0.00    +0.000 C 
ENDBRANCH  24  27
ENDBRANCH  21  24
ENDBRANCH   2  18
TORSDOF 3
ENDMDL
MODEL 5
REMARK VINA RESULT:      -8.6      0.785      1.614
REMARK  Name = 
REMARK  3 active torsions:
REMARK  status: ('A' for Active; 'I' for Inactive)
REMARK    1  A    between atoms: C_2  and  C_17
REMARK    2  A    between atoms: C_20  and  S_21
REMARK    3  A    between atoms: S_21  and  N_24
REMARK                            x       y       z     vdW  Elec       q    Type
REMARK                         _______ _______ _______ _____ _____    ______ ____
ROOT
ATOM      1  O   UNL     1       1.373   8.575  22.134  0.00  0.00    +0.000 OA
ATOM      2  C   UNL     1       1.273   8.481  20.915  0.00  0.00    +0.000 C 
ATOM      3  N   UNL     1       0.635   9.351  20.065  0.00  0.00    +0.000 N 
ATOM      4  C   UNL     1       0.044  10.496  20.515  0.00  0.00    +0.000 A 
ATOM      5  N   UNL     1       0.203  11.143  21.636  0.00  0.00    +0.000 NA
ATOM      6  C   UNL     1      -0.659  12.228  21.669  0.00  0.00    +0.000 A 
ATOM      7  C   UNL     1      -0.773  13.185  22.700  0.00  0.00    +0.000 A 
ATOM      8  C   UNL     1      -1.724  14.207  22.588  0.00  0.00    +0.000 A 
ATOM      9  C   UNL     1      -2.554  14.283  21.468  0.00  0.00    +0.000 A 
ATOM     10  C   UNL     1      -2.467  13.343  20.445  0.00  0.00    +0.000 A 
ATOM     11  C   UNL     1      -1.491  12.346  20.549  0.00  0.00    +0.000 A 
ATOM     12  S   UNL     1      -1.079  11.131  19.407  0.00  0.00    +0.000 S 
ATOM     13  O   UNL     1      -3.493  15.267  21.290  0.00  0.00    +0.000 OA
ATOM     14  C   UNL     1      -3.250  16.380  22.155  0.00  0.00    +0.000 C 
ATOM     15  C   UNL     1      -2.971  15.902  23.569  0.00  0.00    +0.000 C 
ATOM     16  O   UNL     1      -1.774  15.115  23.617  0.00  0.00    +0.000 OA
ATOM     17  H   UNL     1       0.403   9.070  19.125  0.00  0.00    +0.000 HD
ENDROOT
BRANCH   2  18
ATOM     18  C   UNL     1       1.829   7.271  20.255  0.00  0.00    +0.000 A 
ATOM     19  C   UNL     1       1.706   6.037  20.907  0.00  0.00    +0.000 A 
ATOM     20  C   UNL     1       2.332   4.904  20.387  0.00  0.00    +0.000 A 
ATOM     21  C   UNL     1       3.071   5.000  19.205  0.00  0.00    +0.000 A 
ATOM     22  C   UNL     1       3.169   6.224  18.526  0.00  0.00    +0.000 A 
ATOM     23  C   UNL     1       2.542   7.358  19.052  0.00  0.00    +0.000 A 
BRANCH  21  24
ATOM     24  S   UNL     1       4.066   3.591  18.704  0.00  0.00    +0.000 S 
ATOM     25  O   UNL     1       4.912   3.246  19.820  0.00  0.00    +0.000 OA
ATOM     26  O   UNL     1       3.162   2.623  18.120  0.00  0.00    +0.000 OA
BRANCH  24  27
ATOM     27  N   UNL     1       5.056   4.228  17.459  0.00  0.00    +0.000 NA
ATOM     28  C   UNL     1       6.443   4.579  17.832  0.00  0.00    +0.000 C 
ATOM     29  C   UNL     1       6.934   5.847  17.141  0.00  0.00    +0.000 C 
ATOM     30  C   UNL     1       7.446   5.619  15.723  0.00  0.00    +0.000 C 
ATOM     31  C   UNL     1       6.381   5.121  14.756  0.00  0.00    +0.000 C 
ATOM     32  C   UNL     1       5.892   3.721  15.100  0.00  0.00    +0.000 C 
ATOM     33  C   UNL     1       4.751   3.705  16.105  0.00  0.00    +0.000 C 
ENDBRANCH  24  27
ENDBRANCH  21  24
ENDBRANCH   2  18
TORSDOF 3
ENDMDL
MODEL 6
REMARK VINA RESULT:      -8.6      2.769     11.509
REMARK  Name = 
REMARK  3 active torsions:
REMARK  status: ('A' for Active; 'I' for Inactive)
REMARK    1  A    between atoms: C_2  and  C_17
REMARK    2  A    between atoms: C_20  and  S_21
REMARK    3  A    between atoms: S_21  and  N_24
REMARK                            x       y       z     vdW  Elec       q    Type
REMARK                         _______ _______ _______ _____ _____    ______ ____
ROOT
ATOM      1  O   UNL     1       0.710   9.855  22.560  0.00  0.00    +0.000 OA
ATOM      2  C   UNL     1       0.174  10.446  21.629  0.00  0.00    +0.000 C 
ATOM      3  N   UNL     1       0.319  10.187  20.288  0.00  0.00    +0.000 N 
ATOM      4  C   UNL     1       1.093   9.160  19.831  0.00  0.00    +0.000 A 
ATOM      5  N   UNL     1       1.547   8.106  20.450  0.00  0.00    +0.000 NA
ATOM      6  C   UNL     1       2.340   7.369  19.585  0.00  0.00    +0.000 A 
ATOM      7  C   UNL     1       2.993   6.150  19.870  0.00  0.00    +0.000 A 
ATOM      8  C   UNL     1       3.786   5.549  18.886  0.00  0.00    +0.000 A 
ATOM      9  C   UNL     1       3.934   6.145  17.632  0.00  0.00    +0.000 A 
ATOM     10  C   UNL     1       3.310   7.353  17.333  0.00  0.00    +0.000 A 
ATOM     11  C   UNL     1       2.491   7.928  18.311  0.00  0.00    +0.000 A 
ATOM     12  S   UNL     1       1.516   9.338  18.193  0.00  0.00    +0.000 S 
ATOM     13  O   UNL     1       4.683   5.600  16.620  0.00  0.00    +0.000 OA
ATOM     14  C   UNL     1       4.949   4.215  16.858  0.00  0.00    +0.000 C 
ATOM     15  C   UNL     1       5.412   4.002  18.289  0.00  0.00    +0.000 C 
ATOM     16  O   UNL     1       4.382   4.357  19.219  0.00  0.00    +0.000 OA
ATOM     17  H   UNL     1       0.032  10.868  19.602  0.00  0.00    +0.000 HD
ENDROOT
BRANCH   2  18
ATOM     18  C   UNL     1      -0.678  11.623  21.940  0.00  0.00    +0.000 A 
ATOM     19  C   UNL     1      -1.509  11.569  23.067  0.00  0.00    +0.000 A 
ATOM     20  C   UNL     1      -2.421  12.595  23.315  0.00  0.00    +0.000 A 
ATOM     21  C   UNL     1      -2.494  13.685  22.444  0.00  0.00    +0.000 A 
ATOM     22  C   UNL     1      -1.640  13.765  21.334  0.00  0.00    +0.000 A 
ATOM     23  C   UNL     1      -0.729  12.734  21.087  0.00  0.00    +0.000 A 
BRANCH  21  24
ATOM     24  S   UNL     1      -3.842  14.853  22.651  0.00  0.00    +0.000 S 
ATOM     25  O   UNL     1      -3.766  15.360  23.999  0.00  0.00    +0.000 OA
ATOM     26  O   UNL     1      -3.807  15.745  21.511  0.00  0.00    +0.000 OA
BRANCH  24  27
ATOM     27  N   UNL     1      -5.241  13.870  22.527  0.00  0.00    +0.000 NA
ATOM     28  C   UNL     1      -5.259  12.884  21.426  0.00  0.00    +0.000 C 
ATOM     29  C   UNL     1      -6.639  12.734  20.793  0.00  0.00    +0.000 C 
ATOM     30  C   UNL     1      -7.571  11.800  21.555  0.00  0.00    +0.000 C 
ATOM     31  C   UNL     1      -7.914  12.281  22.958  0.00  0.00    +0.000 C 
ATOM     32  C   UNL     1      -6.706  12.281  23.885  0.00  0.00    +0.000 C 
ATOM     33  C   UNL     1      -5.892  13.563  23.823  0.00  0.00    +0.000 C 
ENDBRANCH  24  27
ENDBRANCH  21  24
ENDBRANCH   2  18
TORSDOF 3
ENDMDL
MODEL 7
REMARK VINA RESULT:      -8.6      2.763     11.709
REMARK  Name = 
REMARK  3 active torsions:
REMARK  status: ('A' for Active; 'I' for Inactive)
REMARK    1  A    between atoms: C_2  and  C_17
REMARK    2  A    between atoms: C_20  and  S_21
REMARK    3  A    between atoms: S_21  and  N_24
REMARK                            x       y       z     vdW  Elec       q    Type
REMARK                         _______ _______ _______ _____ _____    ______ ____
ROOT
ATOM      1  O   UNL     1       0.636   9.790  22.747  0.00  0.00    +0.000 OA
ATOM      2  C   UNL     1       0.143  10.444  21.834  0.00  0.00    +0.000 C 
ATOM      3  N   UNL     1       0.307  10.243  20.486  0.00  0.00    +0.000 N 
ATOM      4  C   UNL     1       1.052   9.208  19.997  0.00  0.00    +0.000 A 
ATOM      5  N   UNL     1       1.452   8.109  20.574  0.00  0.00    +0.000 NA
ATOM      6  C   UNL     1       2.235   7.383  19.691  0.00  0.00    +0.000 A 
ATOM      7  C   UNL     1       2.834   6.127  19.932  0.00  0.00    +0.000 A 
ATOM      8  C   UNL     1       3.626   5.542  18.936  0.00  0.00    +0.000 A 
ATOM      9  C   UNL     1       3.824   6.190  17.715  0.00  0.00    +0.000 A 
ATOM     10  C   UNL     1       3.252   7.434  17.461  0.00  0.00    +0.000 A 
ATOM     11  C   UNL     1       2.435   7.995  18.449  0.00  0.00    +0.000 A 
ATOM     12  S   UNL     1       1.517   9.446  18.378  0.00  0.00    +0.000 S 
ATOM     13  O   UNL     1       4.574   5.664  16.693  0.00  0.00    +0.000 OA
ATOM     14  C   UNL     1       4.781   4.260  16.872  0.00  0.00    +0.000 C 
ATOM     15  C   UNL     1       5.204   3.963  18.299  0.00  0.00    +0.000 C 
ATOM     16  O   UNL     1       4.168   4.314  19.224  0.00  0.00    +0.000 OA
ATOM     17  H   UNL     1       0.062  10.965  19.827  0.00  0.00    +0.000 HD
ENDROOT
BRANCH   2  18
ATOM     18  C   UNL     1      -0.670  11.638  22.184  0.00  0.00    +0.000 A 
ATOM     19  C   UNL     1      -1.766  11.474  23.040  0.00  0.00    +0.000 A 
ATOM     20  C   UNL     1      -2.633  12.540  23.283  0.00  0.00    +0.000 A 
ATOM     21  C   UNL     1      -2.395  13.779  22.679  0.00  0.00    +0.000 A 
ATOM     22  C   UNL     1      -1.279  13.962  21.850  0.00  0.00    +0.000 A 
ATOM     23  C   UNL     1      -0.415  12.890  21.607  0.00  0.00    +0.000 A 
BRANCH  21  24
ATOM     24  S   UNL     1      -3.660  15.047  22.810  0.00  0.00    +0.000 S 
ATOM     25  O   UNL     1      -3.586  15.589  24.145  0.00  0.00    +0.000 OA
ATOM     26  O   UNL     1      -3.526  15.898  21.646  0.00  0.00    +0.000 OA
BRANCH  24  27
ATOM     27  N   UNL     1      -5.122  14.164  22.671  0.00  0.00    +0.000 NA
ATOM     28  C   UNL     1      -5.976  14.106  23.876  0.00  0.00    +0.000 C 
ATOM     29  C   UNL     1      -6.647  12.748  24.057  0.00  0.00    +0.000 C 
ATOM     30  C   UNL     1      -7.916  12.571  23.232  0.00  0.00    +0.000 C 
ATOM     31  C   UNL     1      -7.686  12.615  21.729  0.00  0.00    +0.000 C 
ATOM     32  C   UNL     1      -7.236  13.989  21.249  0.00  0.00    +0.000 C 
ATOM     33  C   UNL     1      -5.731  14.194  21.319  0.00  0.00    +0.000 C 
ENDBRANCH  24  27
ENDBRANCH  21  24
ENDBRANCH   2  18
TORSDOF 3
ENDMDL
MODEL 8
REMARK VINA RESULT:      -8.6      0.332      1.129
REMARK  Name = 
REMARK  3 active torsions:
REMARK  status: ('A' for Active; 'I' for Inactive)
REMARK    1  A    between atoms: C_2  and  C_17
REMARK    2  A    between atoms: C_20  and  S_21
REMARK    3  A    between atoms: S_21  and  N_24
REMARK                            x       y       z     vdW  Elec       q    Type
REMARK                         _______ _______ _______ _____ _____    ______ ____
ROOT
ATOM      1  O   UNL     1       1.247   9.219  22.475  0.00  0.00    +0.000 OA
ATOM      2  C   UNL     1       1.076   9.075  21.269  0.00  0.00    +0.000 C 
ATOM      3  N   UNL     1       0.374   9.901  20.425  0.00  0.00    +0.000 N 
ATOM      4  C   UNL     1      -0.207  11.055  20.865  0.00  0.00    +0.000 A 
ATOM      5  N   UNL     1       0.009  11.749  21.949  0.00  0.00    +0.000 NA
ATOM      6  C   UNL     1      -0.867  12.823  21.990  0.00  0.00    +0.000 A 
ATOM      7  C   UNL     1      -0.934  13.819  22.989  0.00  0.00    +0.000 A 
ATOM      8  C   UNL     1      -1.905  14.822  22.894  0.00  0.00    +0.000 A 
ATOM      9  C   UNL     1      -2.802  14.843  21.824  0.00  0.00    +0.000 A 
ATOM     10  C   UNL     1      -2.762  13.864  20.835  0.00  0.00    +0.000 A 
ATOM     11  C   UNL     1      -1.766  12.885  20.920  0.00  0.00    +0.000 A 
ATOM     12  S   UNL     1      -1.404  11.631  19.803  0.00  0.00    +0.000 S 
ATOM     13  O   UNL     1      -3.766  15.806  21.664  0.00  0.00    +0.000 OA
ATOM     14  C   UNL     1      -3.488  16.956  22.469  0.00  0.00    +0.000 C 
ATOM     15  C   UNL     1      -3.117  16.539  23.881  0.00  0.00    +0.000 C 
ATOM     16  O   UNL     1      -1.908  15.771  23.887  0.00  0.00    +0.000 OA
ATOM     17  H   UNL     1       0.091   9.579  19.513  0.00  0.00    +0.000 HD
ENDROOT
BRANCH   2  18
ATOM     18  C   UNL     1       1.610   7.847  20.625  0.00  0.00    +0.000 A 
ATOM     19  C   UNL     1       2.235   7.962  19.377  0.00  0.00    +0.000 A 
ATOM     20  C   UNL     1       2.625   6.819  18.679  0.00  0.00    +0.000 A 
ATOM     21  C   UNL     1       2.404   5.557  19.236  0.00  0.00    +0.000 A 
ATOM     22  C   UNL     1       1.812   5.433  20.502  0.00  0.00    +0.000 A 
ATOM     23  C   UNL     1       1.420   6.581  21.197  0.00  0.00    +0.000 A 
BRANCH  21  24
ATOM     24  S   UNL     1       2.685   4.110  18.209  0.00  0.00    +0.000 S 
ATOM     25  O   UNL     1       2.687   2.961  19.080  0.00  0.00    +0.000 OA
ATOM     26  O   UNL     1       1.771   4.202  17.091  0.00  0.00    +0.000 OA
BRANCH  24  27
ATOM     27  N   UNL     1       4.280   4.343  17.626  0.00  0.00    +0.000 NA
ATOM     28  C   UNL     1       5.378   4.063  18.576  0.00  0.00    +0.000 C 
ATOM     29  C   UNL     1       6.537   5.046  18.441  0.00  0.00    +0.000 C 
ATOM     30  C   UNL     1       7.510   4.704  17.320  0.00  0.00    +0.000 C 
ATOM     31  C   UNL     1       6.891   4.749  15.931  0.00  0.00    +0.000 C 
ATOM     32  C   UNL     1       5.843   3.664  15.725  0.00  0.00    +0.000 C 
ATOM     33  C   UNL     1       4.450   4.070  16.179  0.00  0.00    +0.000 C 
ENDBRANCH  24  27
ENDBRANCH  21  24
ENDBRANCH   2  18
TORSDOF 3
ENDMDL
MODEL 9
REMARK VINA RESULT:      -8.6      2.397      3.329
REMARK  Name = 
REMARK  3 active torsions:
REMARK  status: ('A' for Active; 'I' for Inactive)
REMARK    1  A    between atoms: C_2  and  C_17
REMARK    2  A    between atoms: C_20  and  S_21
REMARK    3  A    between atoms: S_21  and  N_24
REMARK                            x       y       z     vdW  Elec       q    Type
REMARK                         _______ _______ _______ _____ _____    ______ ____
ROOT
ATOM      1  O   UNL     1      -0.041  10.715  18.368  0.00  0.00    +0.000 OA
ATOM      2  C   UNL     1       0.356  10.064  19.328  0.00  0.00    +0.000 C 
ATOM      3  N   UNL     1      -0.040  10.189  20.637  0.00  0.00    +0.000 N 
ATOM      4  C   UNL     1      -1.000  11.081  21.018  0.00  0.00    +0.000 A 
ATOM      5  N   UNL     1      -1.902  11.704  20.310  0.00  0.00    +0.000 NA
ATOM      6  C   UNL     1      -2.624  12.557  21.129  0.00  0.00    +0.000 A 
ATOM      7  C   UNL     1      -3.700  13.386  20.745  0.00  0.00    +0.000 A 
ATOM      8  C   UNL     1      -4.302  14.216  21.699  0.00  0.00    +0.000 A 
ATOM      9  C   UNL     1      -3.846  14.228  23.019  0.00  0.00    +0.000 A 
ATOM     10  C   UNL     1      -2.779  13.428  23.416  0.00  0.00    +0.000 A 
ATOM     11  C   UNL     1      -2.206  12.576  22.465  0.00  0.00    +0.000 A 
ATOM     12  S   UNL     1      -0.965  11.409  22.686  0.00  0.00    +0.000 S 
ATOM     13  O   UNL     1      -4.402  15.005  24.003  0.00  0.00    +0.000 OA
ATOM     14  C   UNL     1      -5.700  15.472  23.625  0.00  0.00    +0.000 C 
ATOM     15  C   UNL     1      -5.675  16.018  22.208  0.00  0.00    +0.000 C 
ATOM     16  O   UNL     1      -5.354  14.987  21.267  0.00  0.00    +0.000 OA
ATOM     17  H   UNL     1       0.508   9.782  21.379  0.00  0.00    +0.000 HD
ENDROOT
BRANCH   2  18
ATOM     18  C   UNL     1       1.436   9.068  19.104  0.00  0.00    +0.000 A 
ATOM     19  C   UNL     1       2.129   9.094  17.887  0.00  0.00    +0.000 A 
ATOM     20  C   UNL     1       3.053   8.093  17.584  0.00  0.00    +0.000 A 
ATOM     21  C   UNL     1       3.296   7.071  18.506  0.00  0.00    +0.000 A 
ATOM     22  C   UNL     1       2.634   7.058  19.742  0.00  0.00    +0.000 A 
ATOM     23  C   UNL     1       1.707   8.061  20.041  0.00  0.00    +0.000 A 
BRANCH  21  24
ATOM     24  S   UNL     1       4.294   5.673  17.984  0.00  0.00    +0.000 S 
ATOM     25  O   UNL     1       4.427   5.753  16.551  0.00  0.00    +0.000 OA
ATOM     26  O   UNL     1       5.457   5.640  18.845  0.00  0.00    +0.000 OA
BRANCH  24  27
ATOM     27  N   UNL     1       3.307   4.321  18.356  0.00  0.00    +0.000 NA
ATOM     28  C   UNL     1       1.957   4.305  17.755  0.00  0.00    +0.000 C 
ATOM     29  C   UNL     1       0.900   3.741  18.699  0.00  0.00    +0.000 C 
ATOM     30  C   UNL     1       0.836   2.218  18.718  0.00  0.00    +0.000 C 
ATOM     31  C   UNL     1       2.107   1.555  19.229  0.00  0.00    +0.000 C 
ATOM     32  C   UNL     1       3.291   1.768  18.296  0.00  0.00    +0.000 C 
ATOM     33  C   UNL     1       4.052   3.056  18.566  0.00  0.00    +0.000 C 
ENDBRANCH  24  27
ENDBRANCH  21  24
ENDBRANCH   2  18
TORSDOF 3
ENDMDL
