MODEL 1
REMARK VINA RESULT:      -6.4      0.000      0.000
REMARK  Name = 
REMARK  7 active torsions:
REMARK  status: ('A' for Active; 'I' for Inactive)
REMARK    1  A    between atoms: C_1  and  O_2
REMARK    2  A    between atoms: O_2  and  C_3
REMARK    3  A    between atoms: C_6  and  S_7
REMARK    4  A    between atoms: S_7  and  C_8
REMARK    5  A    between atoms: C_11  and  N_12
REMARK    6  A    between atoms: N_12  and  C_13
REMARK    7  A    between atoms: C_13  and  C_14
REMARK                            x       y       z     vdW  Elec       q    Type
REMARK                         _______ _______ _______ _____ _____    ______ ____
ROOT
ATOM      1  C   UNL     1       6.362   4.985  15.995  0.00  0.00    +0.000 A 
ATOM      2  C   UNL     1       6.243   6.216  16.637  0.00  0.00    +0.000 A 
ATOM      3  C   UNL     1       5.126   6.495  17.421  0.00  0.00    +0.000 A 
ATOM      4  C   UNL     1       4.122   5.528  17.572  0.00  0.00    +0.000 A 
ATOM      5  C   UNL     1       4.211   4.274  16.937  0.00  0.00    +0.000 A 
ATOM      6  C   UNL     1       5.364   4.020  16.168  0.00  0.00    +0.000 A 
ENDROOT
BRANCH   4   7
ATOM      7  S   UNL     1       2.663   5.997  18.487  0.00  0.00    +0.000 S 
ATOM      8  C   UNL     1       2.453   7.715  18.104  0.00  0.00    +0.000 C 
ATOM      9  O   UNL     1       1.538   5.272  17.932  0.00  0.00    +0.000 OA
ATOM     10  O   UNL     1       2.975   5.888  19.905  0.00  0.00    +0.000 OA
ENDBRANCH   4   7
BRANCH   1  12
ATOM     11  C   UNL     1       7.344   4.876  13.831  0.00  0.00    +0.000 C 
ATOM     12  O   UNL     1       7.497   4.838  15.245  0.00  0.00    +0.000 OA
ENDBRANCH   1  12
BRANCH   5  13
ATOM     13  N   UNL     1       3.276   3.255  17.180  0.00  0.00    +0.000 N 
ATOM     14  H   UNL     1       2.913   2.857  16.310  0.00  0.00    +0.000 HD
BRANCH  13  15
ATOM     15  C   UNL     1       3.639   2.170  18.106  0.00  0.00    +0.000 C 
BRANCH  15  16
ATOM     16  C   UNL     1       2.886   2.379  19.416  0.00  0.00    +0.000 C 
ATOM     17  N   UNL     1       3.507   2.552  20.557  0.00  0.00    +0.000 NA
ATOM     18  C   UNL     1       2.400   2.745  21.540  0.00  0.00    +0.000 C 
ATOM     19  C   UNL     1       1.134   3.011  20.719  0.00  0.00    +0.000 C 
ATOM     20  N   UNL     1       1.509   2.440  19.450  0.00  0.00    +0.000 N 
ATOM     21  H   UNL     1       1.011   2.756  18.619  0.00  0.00    +0.000 HD
ENDBRANCH  15  16
ENDBRANCH  13  15
ENDBRANCH   5  13
TORSDOF 5
ENDMDL
MODEL 2
REMARK VINA RESULT:      -6.4      2.718      5.341
REMARK  Name = 
REMARK  7 active torsions:
REMARK  status: ('A' for Active; 'I' for Inactive)
REMARK    1  A    between atoms: C_1  and  O_2
REMARK    2  A    between atoms: O_2  and  C_3
REMARK    3  A    between atoms: C_6  and  S_7
REMARK    4  A    between atoms: S_7  and  C_8
REMARK    5  A    between atoms: C_11  and  N_12
REMARK    6  A    between atoms: N_12  and  C_13
REMARK    7  A    between atoms: C_13  and  C_14
REMARK                            x       y       z     vdW  Elec       q    Type
REMARK                         _______ _______ _______ _____ _____    ______ ____
ROOT
ATOM      1  C   UNL     1       3.484   6.794  17.896  0.00  0.00    +0.000 A 
ATOM      2  C   UNL     1       2.336   6.118  18.303  0.00  0.00    +0.000 A 
ATOM      3  C   UNL     1       2.410   4.788  18.710  0.00  0.00    +0.000 A 
ATOM      4  C   UNL     1       3.648   4.131  18.720  0.00  0.00    +0.000 A 
ATOM      5  C   UNL     1       4.829   4.785  18.314  0.00  0.00    +0.000 A 
ATOM      6  C   UNL     1       4.718   6.135  17.928  0.00  0.00    +0.000 A 
ENDROOT
BRANCH   4   7
ATOM      7  S   UNL     1       3.651   2.394  19.133  0.00  0.00    +0.000 S 
ATOM      8  C   UNL     1       2.114   2.155  19.981  0.00  0.00    +0.000 C 
ATOM      9  O   UNL     1       3.604   1.643  17.895  0.00  0.00    +0.000 OA
ATOM     10  O   UNL     1       4.730   2.167  20.085  0.00  0.00    +0.000 OA
ENDBRANCH   4   7
BRANCH   1  12
ATOM     11  C   UNL     1       2.144   8.753  18.053  0.00  0.00    +0.000 C 
ATOM     12  O   UNL     1       3.279   8.090  17.508  0.00  0.00    +0.000 OA
ENDBRANCH   1  12
BRANCH   5  13
ATOM     13  N   UNL     1       6.088   4.177  18.438  0.00  0.00    +0.000 N 
ATOM     14  H   UNL     1       6.038   3.166  18.286  0.00  0.00    +0.000 HD
BRANCH  13  15
ATOM     15  C   UNL     1       7.219   4.736  17.680  0.00  0.00    +0.000 C 
BRANCH  15  16
ATOM     16  C   UNL     1       6.974   4.492  16.194  0.00  0.00    +0.000 C 
ATOM     17  N   UNL     1       6.108   3.605  15.768  0.00  0.00    +0.000 NA
ATOM     18  C   UNL     1       6.176   3.728  14.281  0.00  0.00    +0.000 C 
ATOM     19  C   UNL     1       6.918   5.036  13.988  0.00  0.00    +0.000 C 
ATOM     20  N   UNL     1       7.626   5.229  15.229  0.00  0.00    +0.000 N 
ATOM     21  H   UNL     1       7.937   6.172  15.458  0.00  0.00    +0.000 HD
ENDBRANCH  15  16
ENDBRANCH  13  15
ENDBRANCH   5  13
TORSDOF 5
ENDMDL
MODEL 3
REMARK VINA RESULT:      -6.4      1.005      1.027
REMARK  Name = 
REMARK  7 active torsions:
REMARK  status: ('A' for Active; 'I' for Inactive)
REMARK    1  A    between atoms: C_1  and  O_2
REMARK    2  A    between atoms: O_2  and  C_3
REMARK    3  A    between atoms: C_6  and  S_7
REMARK    4  A    between atoms: S_7  and  C_8
REMARK    5  A    between atoms: C_11  and  N_12
REMARK    6  A    between atoms: N_12  and  C_13
REMARK    7  A    between atoms: C_13  and  C_14
REMARK                            x       y       z     vdW  Elec       q    Type
REMARK                         _______ _______ _______ _____ _____    ______ ____
ROOT
ATOM      1  C   UNL     1       6.068   4.562  14.965  0.00  0.00    +0.000 A 
ATOM      2  C   UNL     1       5.574   5.864  15.005  0.00  0.00    +0.000 A 
ATOM      3  C   UNL     1       4.766   6.276  16.061  0.00  0.00    +0.000 A 
ATOM      4  C   UNL     1       4.457   5.380  17.094  0.00  0.00    +0.000 A 
ATOM      5  C   UNL     1       4.940   4.056  17.084  0.00  0.00    +0.000 A 
ATOM      6  C   UNL     1       5.770   3.680  16.010  0.00  0.00    +0.000 A 
ENDROOT
BRANCH   4   7
ATOM      7  S   UNL     1       3.317   5.936  18.350  0.00  0.00    +0.000 S 
ATOM      8  C   UNL     1       3.127   7.666  18.017  0.00  0.00    +0.000 C 
ATOM      9  O   UNL     1       2.042   5.289  18.110  0.00  0.00    +0.000 OA
ATOM     10  O   UNL     1       3.976   5.795  19.640  0.00  0.00    +0.000 OA
ENDBRANCH   4   7
BRANCH   1  12
ATOM     11  C   UNL     1       6.211   3.566  12.809  0.00  0.00    +0.000 C 
ATOM     12  O   UNL     1       6.839   4.275  13.871  0.00  0.00    +0.000 OA
ENDBRANCH   1  12
BRANCH   5  13
ATOM     13  N   UNL     1       4.741   3.190  18.171  0.00  0.00    +0.000 N 
ATOM     14  H   UNL     1       4.746   3.693  19.063  0.00  0.00    +0.000 HD
BRANCH  13  15
ATOM     15  C   UNL     1       3.600   2.262  18.134  0.00  0.00    +0.000 C 
BRANCH  15  16
ATOM     16  C   UNL     1       2.803   2.423  19.425  0.00  0.00    +0.000 C 
ATOM     17  N   UNL     1       3.385   2.522  20.595  0.00  0.00    +0.000 NA
ATOM     18  C   UNL     1       2.246   2.692  21.545  0.00  0.00    +0.000 C 
ATOM     19  C   UNL     1       1.018   3.032  20.694  0.00  0.00    +0.000 C 
ATOM     20  N   UNL     1       1.428   2.516  19.411  0.00  0.00    +0.000 N 
ATOM     21  H   UNL     1       0.969   2.887  18.580  0.00  0.00    +0.000 HD
ENDBRANCH  15  16
ENDBRANCH  13  15
ENDBRANCH   5  13
TORSDOF 5
ENDMDL
MODEL 4
REMARK VINA RESULT:      -6.3      2.013      2.433
REMARK  Name = 
REMARK  7 active torsions:
REMARK  status: ('A' for Active; 'I' for Inactive)
REMARK    1  A    between atoms: C_1  and  O_2
REMARK    2  A    between atoms: O_2  and  C_3
REMARK    3  A    between atoms: C_6  and  S_7
REMARK    4  A    between atoms: S_7  and  C_8
REMARK    5  A    between atoms: C_11  and  N_12
REMARK    6  A    between atoms: N_12  and  C_13
REMARK    7  A    between atoms: C_13  and  C_14
REMARK                            x       y       z     vdW  Elec       q    Type
REMARK                         _______ _______ _______ _____ _____    ______ ____
ROOT
ATOM      1  C   UNL     1       6.372   4.322  14.499  0.00  0.00    +0.000 A 
ATOM      2  C   UNL     1       7.218   5.136  15.249  0.00  0.00    +0.000 A 
ATOM      3  C   UNL     1       7.024   5.275  16.621  0.00  0.00    +0.000 A 
ATOM      4  C   UNL     1       5.979   4.585  17.251  0.00  0.00    +0.000 A 
ATOM      5  C   UNL     1       5.106   3.754  16.522  0.00  0.00    +0.000 A 
ATOM      6  C   UNL     1       5.344   3.622  15.140  0.00  0.00    +0.000 A 
ENDROOT
BRANCH   4   7
ATOM      7  S   UNL     1       5.712   4.907  18.987  0.00  0.00    +0.000 S 
ATOM      8  C   UNL     1       7.241   5.623  19.527  0.00  0.00    +0.000 C 
ATOM      9  O   UNL     1       4.678   5.917  19.097  0.00  0.00    +0.000 OA
ATOM     10  O   UNL     1       5.555   3.623  19.656  0.00  0.00    +0.000 OA
ENDBRANCH   4   7
BRANCH   1  12
ATOM     11  C   UNL     1       5.963   3.308  12.387  0.00  0.00    +0.000 C 
ATOM     12  O   UNL     1       6.658   4.278  13.161  0.00  0.00    +0.000 OA
ENDBRANCH   1  12
BRANCH   5  13
ATOM     13  N   UNL     1       4.136   2.964  17.159  0.00  0.00    +0.000 N 
ATOM     14  H   UNL     1       4.419   2.709  18.110  0.00  0.00    +0.000 HD
BRANCH  13  15
ATOM     15  C   UNL     1       2.740   3.428  17.168  0.00  0.00    +0.000 C 
BRANCH  15  16
ATOM     16  C   UNL     1       2.222   3.380  18.602  0.00  0.00    +0.000 C 
ATOM     17  N   UNL     1       2.116   2.255  19.266  0.00  0.00    +0.000 NA
ATOM     18  C   UNL     1       1.610   2.679  20.605  0.00  0.00    +0.000 C 
ATOM     19  C   UNL     1       1.805   4.197  20.682  0.00  0.00    +0.000 C 
ATOM     20  N   UNL     1       1.883   4.530  19.281  0.00  0.00    +0.000 N 
ATOM     21  H   UNL     1       2.337   5.405  19.024  0.00  0.00    +0.000 HD
ENDBRANCH  15  16
ENDBRANCH  13  15
ENDBRANCH   5  13
TORSDOF 5
ENDMDL
MODEL 5
REMARK VINA RESULT:      -6.3      1.820      4.021
REMARK  Name = 
REMARK  7 active torsions:
REMARK  status: ('A' for Active; 'I' for Inactive)
REMARK    1  A    between atoms: C_1  and  O_2
REMARK    2  A    between atoms: O_2  and  C_3
REMARK    3  A    between atoms: C_6  and  S_7
REMARK    4  A    between atoms: S_7  and  C_8
REMARK    5  A    between atoms: C_11  and  N_12
REMARK    6  A    between atoms: N_12  and  C_13
REMARK    7  A    between atoms: C_13  and  C_14
REMARK                            x       y       z     vdW  Elec       q    Type
REMARK                         _______ _______ _______ _____ _____    ______ ____
ROOT
ATOM      1  C   UNL     1       3.068   7.018  18.624  0.00  0.00    +0.000 A 
ATOM      2  C   UNL     1       3.697   7.519  17.486  0.00  0.00    +0.000 A 
ATOM      3  C   UNL     1       4.812   6.872  16.957  0.00  0.00    +0.000 A 
ATOM      4  C   UNL     1       5.296   5.706  17.567  0.00  0.00    +0.000 A 
ATOM      5  C   UNL     1       4.683   5.173  18.719  0.00  0.00    +0.000 A 
ATOM      6  C   UNL     1       3.547   5.843  19.214  0.00  0.00    +0.000 A 
ENDROOT
BRANCH   4   7
ATOM      7  S   UNL     1       6.800   5.001  16.912  0.00  0.00    +0.000 S 
ATOM      8  C   UNL     1       6.231   3.742  15.803  0.00  0.00    +0.000 C 
ATOM      9  O   UNL     1       7.465   6.024  16.130  0.00  0.00    +0.000 OA
ATOM     10  O   UNL     1       7.499   4.350  18.011  0.00  0.00    +0.000 OA
ENDBRANCH   4   7
BRANCH   1  12
ATOM     11  C   UNL     1       1.686   8.929  18.321  0.00  0.00    +0.000 C 
ATOM     12  O   UNL     1       1.993   7.748  19.052  0.00  0.00    +0.000 OA
ENDBRANCH   1  12
BRANCH   5  13
ATOM     13  N   UNL     1       5.082   3.942  19.263  0.00  0.00    +0.000 N 
ATOM     14  H   UNL     1       5.193   3.995  20.280  0.00  0.00    +0.000 HD
BRANCH  13  15
ATOM     15  C   UNL     1       4.317   2.735  18.913  0.00  0.00    +0.000 C 
BRANCH  15  16
ATOM     16  C   UNL     1       3.058   2.692  19.773  0.00  0.00    +0.000 C 
ATOM     17  N   UNL     1       3.109   2.690  21.083  0.00  0.00    +0.000 NA
ATOM     18  C   UNL     1       1.675   2.675  21.495  0.00  0.00    +0.000 C 
ATOM     19  C   UNL     1       0.861   3.032  20.247  0.00  0.00    +0.000 C 
ATOM     20  N   UNL     1       1.802   2.698  19.207  0.00  0.00    +0.000 N 
ATOM     21  H   UNL     1       1.677   3.133  18.294  0.00  0.00    +0.000 HD
ENDBRANCH  15  16
ENDBRANCH  13  15
ENDBRANCH   5  13
TORSDOF 5
ENDMDL
MODEL 6
REMARK VINA RESULT:      -6.3      1.035      1.064
REMARK  Name = 
REMARK  7 active torsions:
REMARK  status: ('A' for Active; 'I' for Inactive)
REMARK    1  A    between atoms: C_1  and  O_2
REMARK    2  A    between atoms: O_2  and  C_3
REMARK    3  A    between atoms: C_6  and  S_7
REMARK    4  A    between atoms: S_7  and  C_8
REMARK    5  A    between atoms: C_11  and  N_12
REMARK    6  A    between atoms: N_12  and  C_13
REMARK    7  A    between atoms: C_13  and  C_14
REMARK                            x       y       z     vdW  Elec       q    Type
REMARK                         _______ _______ _______ _____ _____    ______ ____
ROOT
ATOM      1  C   UNL     1       6.513   5.087  16.109  0.00  0.00    +0.000 A 
ATOM      2  C   UNL     1       5.668   6.109  15.681  0.00  0.00    +0.000 A 
ATOM      3  C   UNL     1       4.551   6.459  16.437  0.00  0.00    +0.000 A 
ATOM      4  C   UNL     1       4.283   5.786  17.638  0.00  0.00    +0.000 A 
ATOM      5  C   UNL     1       5.118   4.749  18.098  0.00  0.00    +0.000 A 
ATOM      6  C   UNL     1       6.248   4.435  17.318  0.00  0.00    +0.000 A 
ENDROOT
BRANCH   4   7
ATOM      7  S   UNL     1       2.771   6.200  18.490  0.00  0.00    +0.000 S 
ATOM      8  C   UNL     1       2.463   7.881  18.020  0.00  0.00    +0.000 C 
ATOM      9  O   UNL     1       1.712   5.378  17.940  0.00  0.00    +0.000 OA
ATOM     10  O   UNL     1       3.047   6.176  19.920  0.00  0.00    +0.000 OA
ENDBRANCH   4   7
BRANCH   1  12
ATOM     11  C   UNL     1       7.285   4.772  13.881  0.00  0.00    +0.000 C 
ATOM     12  O   UNL     1       7.567   4.830  15.274  0.00  0.00    +0.000 OA
ENDBRANCH   1  12
BRANCH   5  13
ATOM     13  N   UNL     1       4.931   4.155  19.357  0.00  0.00    +0.000 N 
ATOM     14  H   UNL     1       4.340   4.730  19.963  0.00  0.00    +0.000 HD
BRANCH  13  15
ATOM     15  C   UNL     1       4.485   2.754  19.417  0.00  0.00    +0.000 C 
BRANCH  15  16
ATOM     16  C   UNL     1       3.144   2.704  20.143  0.00  0.00    +0.000 C 
ATOM     17  N   UNL     1       3.061   2.648  21.449  0.00  0.00    +0.000 NA
ATOM     18  C   UNL     1       1.591   2.647  21.713  0.00  0.00    +0.000 C 
ATOM     19  C   UNL     1       0.916   3.073  20.405  0.00  0.00    +0.000 C 
ATOM     20  N   UNL     1       1.952   2.761  19.452  0.00  0.00    +0.000 N 
ATOM     21  H   UNL     1       1.929   3.235  18.550  0.00  0.00    +0.000 HD
ENDBRANCH  15  16
ENDBRANCH  13  15
ENDBRANCH   5  13
TORSDOF 5
ENDMDL
MODEL 7
REMARK VINA RESULT:      -6.3      2.604      5.656
REMARK  Name = 
REMARK  7 active torsions:
REMARK  status: ('A' for Active; 'I' for Inactive)
REMARK    1  A    between atoms: C_1  and  O_2
REMARK    2  A    between atoms: O_2  and  C_3
REMARK    3  A    between atoms: C_6  and  S_7
REMARK    4  A    between atoms: S_7  and  C_8
REMARK    5  A    between atoms: C_11  and  N_12
REMARK    6  A    between atoms: N_12  and  C_13
REMARK    7  A    between atoms: C_13  and  C_14
REMARK                            x       y       z     vdW  Elec       q    Type
REMARK                         _______ _______ _______ _____ _____    ______ ____
ROOT
ATOM      1  C   UNL     1       2.399   7.089  19.307  0.00  0.00    +0.000 A 
ATOM      2  C   UNL     1       1.862   6.467  20.432  0.00  0.00    +0.000 A 
ATOM      3  C   UNL     1       2.212   5.155  20.744  0.00  0.00    +0.000 A 
ATOM      4  C   UNL     1       3.117   4.462  19.927  0.00  0.00    +0.000 A 
ATOM      5  C   UNL     1       3.678   5.062  18.782  0.00  0.00    +0.000 A 
ATOM      6  C   UNL     1       3.316   6.395  18.509  0.00  0.00    +0.000 A 
ENDROOT
BRANCH   4   7
ATOM      7  S   UNL     1       3.423   2.747  20.314  0.00  0.00    +0.000 S 
ATOM      8  C   UNL     1       2.428   1.861  19.145  0.00  0.00    +0.000 C 
ATOM      9  O   UNL     1       4.815   2.468  20.023  0.00  0.00    +0.000 OA
ATOM     10  O   UNL     1       2.889   2.491  21.645  0.00  0.00    +0.000 OA
ENDBRANCH   4   7
BRANCH   1  12
ATOM     11  C   UNL     1       1.926   8.828  17.755  0.00  0.00    +0.000 C 
ATOM     12  O   UNL     1       1.969   8.372  19.102  0.00  0.00    +0.000 OA
ENDBRANCH   1  12
BRANCH   5  13
ATOM     13  N   UNL     1       4.676   4.423  18.029  0.00  0.00    +0.000 N 
ATOM     14  H   UNL     1       4.287   3.947  17.210  0.00  0.00    +0.000 HD
BRANCH  13  15
ATOM     15  C   UNL     1       5.865   5.196  17.634  0.00  0.00    +0.000 C 
BRANCH  15  16
ATOM     16  C   UNL     1       6.253   4.794  16.215  0.00  0.00    +0.000 C 
ATOM     17  N   UNL     1       5.562   3.920  15.524  0.00  0.00    +0.000 NA
ATOM     18  C   UNL     1       6.272   3.862  14.212  0.00  0.00    +0.000 C 
ATOM     19  C   UNL     1       7.205   5.076  14.170  0.00  0.00    +0.000 C 
ATOM     20  N   UNL     1       7.331   5.370  15.576  0.00  0.00    +0.000 N 
ATOM     21  H   UNL     1       7.614   6.311  15.843  0.00  0.00    +0.000 HD
ENDBRANCH  15  16
ENDBRANCH  13  15
ENDBRANCH   5  13
TORSDOF 5
ENDMDL
MODEL 8
REMARK VINA RESULT:      -6.2      2.769      6.269
REMARK  Name = 
REMARK  7 active torsions:
REMARK  status: ('A' for Active; 'I' for Inactive)
REMARK    1  A    between atoms: C_1  and  O_2
REMARK    2  A    between atoms: O_2  and  C_3
REMARK    3  A    between atoms: C_6  and  S_7
REMARK    4  A    between atoms: S_7  and  C_8
REMARK    5  A    between atoms: C_11  and  N_12
REMARK    6  A    between atoms: N_12  and  C_13
REMARK    7  A    between atoms: C_13  and  C_14
REMARK                            x       y       z     vdW  Elec       q    Type
REMARK                         _______ _______ _______ _____ _____    ______ ____
ROOT
ATOM      1  C   UNL     1       3.086   3.994  18.780  0.00  0.00    +0.000 A 
ATOM      2  C   UNL     1       3.716   4.839  19.691  0.00  0.00    +0.000 A 
ATOM      3  C   UNL     1       5.029   5.251  19.474  0.00  0.00    +0.000 A 
ATOM      4  C   UNL     1       5.715   4.821  18.329  0.00  0.00    +0.000 A 
ATOM      5  C   UNL     1       5.106   3.966  17.389  0.00  0.00    +0.000 A 
ATOM      6  C   UNL     1       3.772   3.586  17.631  0.00  0.00    +0.000 A 
ENDROOT
BRANCH   4   7
ATOM      7  S   UNL     1       7.432   5.285  18.179  0.00  0.00    +0.000 S 
ATOM      8  C   UNL     1       7.374   6.914  17.482  0.00  0.00    +0.000 C 
ATOM      9  O   UNL     1       7.983   5.386  19.515  0.00  0.00    +0.000 OA
ATOM     10  O   UNL     1       8.046   4.399  17.200  0.00  0.00    +0.000 OA
ENDBRANCH   4   7
BRANCH   1  12
ATOM     11  C   UNL     1       1.641   2.656  20.114  0.00  0.00    +0.000 C 
ATOM     12  O   UNL     1       1.803   3.652  19.111  0.00  0.00    +0.000 OA
ENDBRANCH   1  12
BRANCH   5  13
ATOM     13  N   UNL     1       5.737   3.631  16.180  0.00  0.00    +0.000 N 
ATOM     14  H   UNL     1       5.904   2.624  16.106  0.00  0.00    +0.000 HD
BRANCH  13  15
ATOM     15  C   UNL     1       5.162   4.130  14.921  0.00  0.00    +0.000 C 
BRANCH  15  16
ATOM     16  C   UNL     1       6.293   4.329  13.917  0.00  0.00    +0.000 C 
ATOM     17  N   UNL     1       6.248   3.825  12.708  0.00  0.00    +0.000 NA
ATOM     18  C   UNL     1       7.522   4.289  12.082  0.00  0.00    +0.000 C 
ATOM     19  C   UNL     1       8.072   5.396  12.987  0.00  0.00    +0.000 C 
ATOM     20  N   UNL     1       7.399   5.092  14.226  0.00  0.00    +0.000 N 
ATOM     21  H   UNL     1       7.305   5.838  14.913  0.00  0.00    +0.000 HD
ENDBRANCH  15  16
ENDBRANCH  13  15
ENDBRANCH   5  13
TORSDOF 5
ENDMDL
MODEL 9
REMARK VINA RESULT:      -6.2      2.766      5.103
REMARK  Name = 
REMARK  7 active torsions:
REMARK  status: ('A' for Active; 'I' for Inactive)
REMARK    1  A    between atoms: C_1  and  O_2
REMARK    2  A    between atoms: O_2  and  C_3
REMARK    3  A    between atoms: C_6  and  S_7
REMARK    4  A    between atoms: S_7  and  C_8
REMARK    5  A    between atoms: C_11  and  N_12
REMARK    6  A    between atoms: N_12  and  C_13
REMARK    7  A    between atoms: C_13  and  C_14
REMARK                            x       y       z     vdW  Elec       q    Type
REMARK                         _______ _______ _______ _____ _____    ______ ____
ROOT
ATOM      1  C   UNL     1       3.022   6.779  18.069  0.00  0.00    +0.000 A 
ATOM      2  C   UNL     1       2.461   6.408  19.288  0.00  0.00    +0.000 A 
ATOM      3  C   UNL     1       2.695   5.138  19.812  0.00  0.00    +0.000 A 
ATOM      4  C   UNL     1       3.509   4.235  19.114  0.00  0.00    +0.000 A 
ATOM      5  C   UNL     1       4.092   4.580  17.878  0.00  0.00    +0.000 A 
ATOM      6  C   UNL     1       3.849   5.878  17.388  0.00  0.00    +0.000 A 
ENDROOT
BRANCH   4   7
ATOM      7  S   UNL     1       3.666   2.587  19.780  0.00  0.00    +0.000 S 
ATOM      8  C   UNL     1       2.695   2.633  21.263  0.00  0.00    +0.000 C 
ATOM      9  O   UNL     1       3.030   1.671  18.854  0.00  0.00    +0.000 OA
ATOM     10  O   UNL     1       5.058   2.393  20.161  0.00  0.00    +0.000 OA
ENDBRANCH   4   7
BRANCH   1  12
ATOM     11  C   UNL     1       1.845   8.801  18.498  0.00  0.00    +0.000 C 
ATOM     12  O   UNL     1       2.707   8.045  17.656  0.00  0.00    +0.000 OA
ENDBRANCH   1  12
BRANCH   5  13
ATOM     13  N   UNL     1       5.006   3.732  17.232  0.00  0.00    +0.000 N 
ATOM     14  H   UNL     1       4.531   3.033  16.654  0.00  0.00    +0.000 HD
BRANCH  13  15
ATOM     15  C   UNL     1       6.111   4.335  16.470  0.00  0.00    +0.000 C 
BRANCH  15  16
ATOM     16  C   UNL     1       6.962   5.166  17.426  0.00  0.00    +0.000 C 
ATOM     17  N   UNL     1       7.159   6.449  17.246  0.00  0.00    +0.000 NA
ATOM     18  C   UNL     1       8.003   6.846  18.412  0.00  0.00    +0.000 C 
ATOM     19  C   UNL     1       7.925   5.692  19.417  0.00  0.00    +0.000 C 
ATOM     20  N   UNL     1       7.526   4.608  18.553  0.00  0.00    +0.000 N 
ATOM     21  H   UNL     1       7.076   3.800  18.980  0.00  0.00    +0.000 HD
ENDBRANCH  15  16
ENDBRANCH  13  15
ENDBRANCH   5  13
TORSDOF 5
ENDMDL
