MODEL 1
REMARK VINA RESULT:      -6.5      0.000      0.000
REMARK  Name = 
REMARK  7 active torsions:
REMARK  status: ('A' for Active; 'I' for Inactive)
REMARK    1  A    between atoms: C_1  and  C_2
REMARK    2  A    between atoms: C_5  and  N_6
REMARK    3  A    between atoms: C_7  and  C_9
REMARK    4  A    between atoms: C_9  and  N_10
REMARK    5  A    between atoms: N_10  and  C_11
REMARK    6  A    between atoms: N_10  and  C_12
REMARK    7  A    between atoms: C_12  and  C_13
REMARK                            x       y       z     vdW  Elec       q    Type
REMARK                         _______ _______ _______ _____ _____    ______ ____
ROOT
ATOM      1  N   UNL     1       3.962   6.655  17.184  0.00  0.00    +0.000 N 
ATOM      2  C   UNL     1       5.345   6.763  17.144  0.00  0.00    +0.000 C 
ATOM      3  O   UNL     1       6.053   7.465  17.860  0.00  0.00    +0.000 OA
ATOM      4  H   UNL     1       3.554   6.037  16.491  0.00  0.00    +0.000 HD
ENDROOT
BRANCH   1   9
ATOM      5  C   UNL     1       0.364   9.404  20.706  0.00  0.00    +0.000 C 
ATOM      6  C   UNL     1       1.311   8.696  19.784  0.00  0.00    +0.000 A 
ATOM      7  C   UNL     1       1.606   9.231  18.528  0.00  0.00    +0.000 A 
ATOM      8  C   UNL     1       2.484   8.574  17.663  0.00  0.00    +0.000 A 
ATOM      9  C   UNL     1       3.081   7.366  18.026  0.00  0.00    +0.000 A 
ATOM     10  C   UNL     1       2.786   6.827  19.284  0.00  0.00    +0.000 A 
ATOM     11  C   UNL     1       1.909   7.489  20.156  0.00  0.00    +0.000 A 
ENDBRANCH   1   9
BRANCH   2  12
ATOM     12  C   UNL     1       5.985   5.856  16.090  0.00  0.00    +0.000 C 
BRANCH  12  13
ATOM     13  N   UNL     1       5.086   4.729  15.719  0.00  0.00    +0.000 NA
ATOM     14  C   UNL     1       5.352   4.314  14.331  0.00  0.00    +0.000 C 
BRANCH  13  15
ATOM     15  C   UNL     1       5.322   3.576  16.616  0.00  0.00    +0.000 C 
BRANCH  15  16
ATOM     16  C   UNL     1       4.214   3.396  17.633  0.00  0.00    +0.000 A 
ATOM     17  C   UNL     1       2.876   3.328  17.216  0.00  0.00    +0.000 A 
ATOM     18  C   UNL     1       1.844   3.250  18.153  0.00  0.00    +0.000 A 
ATOM     19  C   UNL     1       2.147   3.228  19.513  0.00  0.00    +0.000 A 
ATOM     20 CL   UNL     1       0.875   3.179  20.670  0.00  0.00    +0.000 Cl
ATOM     21  C   UNL     1       3.473   3.260  19.942  0.00  0.00    +0.000 A 
ATOM     22  C   UNL     1       4.505   3.339  19.004  0.00  0.00    +0.000 A 
ENDBRANCH  15  16
ENDBRANCH  13  15
ENDBRANCH  12  13
ENDBRANCH   2  12
TORSDOF 5
ENDMDL
MODEL 2
REMARK VINA RESULT:      -6.5      0.285      1.514
REMARK  Name = 
REMARK  7 active torsions:
REMARK  status: ('A' for Active; 'I' for Inactive)
REMARK    1  A    between atoms: C_1  and  C_2
REMARK    2  A    between atoms: C_5  and  N_6
REMARK    3  A    between atoms: C_7  and  C_9
REMARK    4  A    between atoms: C_9  and  N_10
REMARK    5  A    between atoms: N_10  and  C_11
REMARK    6  A    between atoms: N_10  and  C_12
REMARK    7  A    between atoms: C_12  and  C_13
REMARK                            x       y       z     vdW  Elec       q    Type
REMARK                         _______ _______ _______ _____ _____    ______ ____
ROOT
ATOM      1  N   UNL     1       3.737   6.921  16.994  0.00  0.00    +0.000 N 
ATOM      2  C   UNL     1       5.102   6.679  17.062  0.00  0.00    +0.000 C 
ATOM      3  O   UNL     1       5.842   6.884  18.020  0.00  0.00    +0.000 OA
ATOM      4  H   UNL     1       3.302   6.707  16.102  0.00  0.00    +0.000 HD
ENDROOT
BRANCH   1   9
ATOM      5  C   UNL     1       0.450   9.409  20.983  0.00  0.00    +0.000 C 
ATOM      6  C   UNL     1       1.302   8.747  19.942  0.00  0.00    +0.000 A 
ATOM      7  C   UNL     1       1.900   7.512  20.199  0.00  0.00    +0.000 A 
ATOM      8  C   UNL     1       2.699   6.893  19.235  0.00  0.00    +0.000 A 
ATOM      9  C   UNL     1       2.926   7.495  17.997  0.00  0.00    +0.000 A 
ATOM     10  C   UNL     1       2.330   8.734  17.737  0.00  0.00    +0.000 A 
ATOM     11  C   UNL     1       1.523   9.354  18.702  0.00  0.00    +0.000 A 
ENDBRANCH   1   9
BRANCH   2  12
ATOM     12  C   UNL     1       5.665   6.064  15.780  0.00  0.00    +0.000 C 
BRANCH  12  13
ATOM     13  N   UNL     1       5.075   4.724  15.509  0.00  0.00    +0.000 NA
ATOM     14  C   UNL     1       5.597   4.196  14.238  0.00  0.00    +0.000 C 
BRANCH  13  15
ATOM     15  C   UNL     1       5.427   3.785  16.598  0.00  0.00    +0.000 C 
BRANCH  15  16
ATOM     16  C   UNL     1       4.308   3.617  17.604  0.00  0.00    +0.000 A 
ATOM     17  C   UNL     1       4.596   3.543  18.975  0.00  0.00    +0.000 A 
ATOM     18  C   UNL     1       3.581   3.301  19.902  0.00  0.00    +0.000 A 
ATOM     19  C   UNL     1       2.268   3.144  19.461  0.00  0.00    +0.000 A 
ATOM     20 CL   UNL     1       1.022   2.801  20.596  0.00  0.00    +0.000 Cl
ATOM     21  C   UNL     1       1.960   3.251  18.106  0.00  0.00    +0.000 A 
ATOM     22  C   UNL     1       2.977   3.491  17.179  0.00  0.00    +0.000 A 
ENDBRANCH  15  16
ENDBRANCH  13  15
ENDBRANCH  12  13
ENDBRANCH   2  12
TORSDOF 5
ENDMDL
MODEL 3
REMARK VINA RESULT:      -6.4      0.142      1.065
REMARK  Name = 
REMARK  7 active torsions:
REMARK  status: ('A' for Active; 'I' for Inactive)
REMARK    1  A    between atoms: C_1  and  C_2
REMARK    2  A    between atoms: C_5  and  N_6
REMARK    3  A    between atoms: C_7  and  C_9
REMARK    4  A    between atoms: C_9  and  N_10
REMARK    5  A    between atoms: N_10  and  C_11
REMARK    6  A    between atoms: N_10  and  C_12
REMARK    7  A    between atoms: C_12  and  C_13
REMARK                            x       y       z     vdW  Elec       q    Type
REMARK                         _______ _______ _______ _____ _____    ______ ____
ROOT
ATOM      1  N   UNL     1       3.959   6.716  17.044  0.00  0.00    +0.000 N 
ATOM      2  C   UNL     1       5.347   6.714  17.065  0.00  0.00    +0.000 C 
ATOM      3  O   UNL     1       6.074   7.264  17.887  0.00  0.00    +0.000 OA
ATOM      4  H   UNL     1       3.536   6.221  16.265  0.00  0.00    +0.000 HD
ENDROOT
BRANCH   1   9
ATOM      5  C   UNL     1       0.450   9.314  20.764  0.00  0.00    +0.000 C 
ATOM      6  C   UNL     1       1.374   8.646  19.790  0.00  0.00    +0.000 A 
ATOM      7  C   UNL     1       1.631   9.229  18.548  0.00  0.00    +0.000 A 
ATOM      8  C   UNL     1       2.487   8.609  17.635  0.00  0.00    +0.000 A 
ATOM      9  C   UNL     1       3.099   7.391  17.936  0.00  0.00    +0.000 A 
ATOM     10  C   UNL     1       2.841   6.804  19.180  0.00  0.00    +0.000 A 
ATOM     11  C   UNL     1       1.986   7.428  20.100  0.00  0.00    +0.000 A 
ENDBRANCH   1   9
BRANCH   2  12
ATOM     12  C   UNL     1       5.960   5.891  15.931  0.00  0.00    +0.000 C 
BRANCH  12  13
ATOM     13  N   UNL     1       5.118   4.711  15.591  0.00  0.00    +0.000 NA
ATOM     14  C   UNL     1       5.452   4.231  14.240  0.00  0.00    +0.000 C 
BRANCH  13  15
ATOM     15  C   UNL     1       5.359   3.619  16.560  0.00  0.00    +0.000 C 
BRANCH  15  16
ATOM     16  C   UNL     1       4.257   3.506  17.594  0.00  0.00    +0.000 A 
ATOM     17  C   UNL     1       4.572   3.465  18.960  0.00  0.00    +0.000 A 
ATOM     18  C   UNL     1       3.571   3.274  19.913  0.00  0.00    +0.000 A 
ATOM     19  C   UNL     1       2.247   3.136  19.504  0.00  0.00    +0.000 A 
ATOM     20 CL   UNL     1       1.016   2.854  20.674  0.00  0.00    +0.000 Cl
ATOM     21  C   UNL     1       1.913   3.210  18.153  0.00  0.00    +0.000 A 
ATOM     22  C   UNL     1       2.916   3.399  17.200  0.00  0.00    +0.000 A 
ENDBRANCH  15  16
ENDBRANCH  13  15
ENDBRANCH  12  13
ENDBRANCH   2  12
TORSDOF 5
ENDMDL
MODEL 4
REMARK VINA RESULT:      -6.3      2.939      4.290
REMARK  Name = 
REMARK  7 active torsions:
REMARK  status: ('A' for Active; 'I' for Inactive)
REMARK    1  A    between atoms: C_1  and  C_2
REMARK    2  A    between atoms: C_5  and  N_6
REMARK    3  A    between atoms: C_7  and  C_9
REMARK    4  A    between atoms: C_9  and  N_10
REMARK    5  A    between atoms: N_10  and  C_11
REMARK    6  A    between atoms: N_10  and  C_12
REMARK    7  A    between atoms: C_12  and  C_13
REMARK                            x       y       z     vdW  Elec       q    Type
REMARK                         _______ _______ _______ _____ _____    ______ ____
ROOT
ATOM      1  N   UNL     1       2.827   5.963  20.089  0.00  0.00    +0.000 N 
ATOM      2  C   UNL     1       2.283   4.701  19.890  0.00  0.00    +0.000 C 
ATOM      3  O   UNL     1       1.175   4.438  19.430  0.00  0.00    +0.000 OA
ATOM      4  H   UNL     1       3.752   5.975  20.505  0.00  0.00    +0.000 HD
ENDROOT
BRANCH   1   9
ATOM      5  C   UNL     1       0.184  10.985  19.259  0.00  0.00    +0.000 C 
ATOM      6  C   UNL     1       0.886   9.678  19.471  0.00  0.00    +0.000 A 
ATOM      7  C   UNL     1       1.605   9.086  18.431  0.00  0.00    +0.000 A 
ATOM      8  C   UNL     1       2.257   7.866  18.622  0.00  0.00    +0.000 A 
ATOM      9  C   UNL     1       2.199   7.204  19.849  0.00  0.00    +0.000 A 
ATOM     10  C   UNL     1       1.477   7.794  20.892  0.00  0.00    +0.000 A 
ATOM     11  C   UNL     1       0.827   9.022  20.705  0.00  0.00    +0.000 A 
ENDBRANCH   1   9
BRANCH   2  12
ATOM     12  C   UNL     1       3.237   3.571  20.278  0.00  0.00    +0.000 C 
BRANCH  12  13
ATOM     13  N   UNL     1       3.979   3.049  19.098  0.00  0.00    +0.000 NA
ATOM     14  C   UNL     1       3.483   1.706  18.750  0.00  0.00    +0.000 C 
BRANCH  13  15
ATOM     15  C   UNL     1       3.784   3.946  17.938  0.00  0.00    +0.000 C 
BRANCH  15  16
ATOM     16  C   UNL     1       4.916   4.939  17.775  0.00  0.00    +0.000 A 
ATOM     17  C   UNL     1       6.005   4.920  18.660  0.00  0.00    +0.000 A 
ATOM     18  C   UNL     1       7.009   5.885  18.571  0.00  0.00    +0.000 A 
ATOM     19  C   UNL     1       6.935   6.868  17.585  0.00  0.00    +0.000 A 
ATOM     20 CL   UNL     1       8.147   8.086  17.502  0.00  0.00    +0.000 Cl
ATOM     21  C   UNL     1       5.878   6.879  16.676  0.00  0.00    +0.000 A 
ATOM     22  C   UNL     1       4.873   5.914  16.767  0.00  0.00    +0.000 A 
ENDBRANCH  15  16
ENDBRANCH  13  15
ENDBRANCH  12  13
ENDBRANCH   2  12
TORSDOF 5
ENDMDL
MODEL 5
REMARK VINA RESULT:      -6.2      2.657      6.203
REMARK  Name = 
REMARK  7 active torsions:
REMARK  status: ('A' for Active; 'I' for Inactive)
REMARK    1  A    between atoms: C_1  and  C_2
REMARK    2  A    between atoms: C_5  and  N_6
REMARK    3  A    between atoms: C_7  and  C_9
REMARK    4  A    between atoms: C_9  and  N_10
REMARK    5  A    between atoms: N_10  and  C_11
REMARK    6  A    between atoms: N_10  and  C_12
REMARK    7  A    between atoms: C_12  and  C_13
REMARK                            x       y       z     vdW  Elec       q    Type
REMARK                         _______ _______ _______ _____ _____    ______ ____
ROOT
ATOM      1  N   UNL     1       4.448   4.047  18.007  0.00  0.00    +0.000 N 
ATOM      2  C   UNL     1       3.774   2.882  18.345  0.00  0.00    +0.000 C 
ATOM      3  O   UNL     1       3.763   1.826  17.719  0.00  0.00    +0.000 OA
ATOM      4  H   UNL     1       4.314   4.827  18.643  0.00  0.00    +0.000 HD
ENDROOT
BRANCH   1   9
ATOM      5  C   UNL     1       7.717   5.033  13.398  0.00  0.00    +0.000 C 
ATOM      6  C   UNL     1       6.858   4.764  14.597  0.00  0.00    +0.000 A 
ATOM      7  C   UNL     1       5.502   4.472  14.443  0.00  0.00    +0.000 A 
ATOM      8  C   UNL     1       4.696   4.226  15.556  0.00  0.00    +0.000 A 
ATOM      9  C   UNL     1       5.221   4.273  16.848  0.00  0.00    +0.000 A 
ATOM     10  C   UNL     1       6.581   4.568  17.006  0.00  0.00    +0.000 A 
ATOM     11  C   UNL     1       7.392   4.809  15.888  0.00  0.00    +0.000 A 
ENDBRANCH   1   9
BRANCH   2  12
ATOM     12  C   UNL     1       3.013   2.995  19.668  0.00  0.00    +0.000 C 
BRANCH  12  13
ATOM     13  N   UNL     1       2.093   4.165  19.673  0.00  0.00    +0.000 NA
ATOM     14  C   UNL     1       0.788   3.772  20.232  0.00  0.00    +0.000 C 
BRANCH  13  15
ATOM     15  C   UNL     1       2.660   5.252  20.501  0.00  0.00    +0.000 C 
BRANCH  15  16
ATOM     16  C   UNL     1       2.275   6.627  19.995  0.00  0.00    +0.000 A 
ATOM     17  C   UNL     1       1.601   7.526  20.836  0.00  0.00    +0.000 A 
ATOM     18  C   UNL     1       1.167   8.761  20.351  0.00  0.00    +0.000 A 
ATOM     19  C   UNL     1       1.417   9.108  19.025  0.00  0.00    +0.000 A 
ATOM     20 CL   UNL     1       0.843  10.610  18.413  0.00  0.00    +0.000 Cl
ATOM     21  C   UNL     1       2.117   8.241  18.187  0.00  0.00    +0.000 A 
ATOM     22  C   UNL     1       2.549   7.005  18.673  0.00  0.00    +0.000 A 
ENDBRANCH  15  16
ENDBRANCH  13  15
ENDBRANCH  12  13
ENDBRANCH   2  12
TORSDOF 5
ENDMDL
MODEL 6
REMARK VINA RESULT:      -6.2      3.755      7.753
REMARK  Name = 
REMARK  7 active torsions:
REMARK  status: ('A' for Active; 'I' for Inactive)
REMARK    1  A    between atoms: C_1  and  C_2
REMARK    2  A    between atoms: C_5  and  N_6
REMARK    3  A    between atoms: C_7  and  C_9
REMARK    4  A    between atoms: C_9  and  N_10
REMARK    5  A    between atoms: N_10  and  C_11
REMARK    6  A    between atoms: N_10  and  C_12
REMARK    7  A    between atoms: C_12  and  C_13
REMARK                            x       y       z     vdW  Elec       q    Type
REMARK                         _______ _______ _______ _____ _____    ______ ____
ROOT
ATOM      1  N   UNL     1       1.810   6.587  21.027  0.00  0.00    +0.000 N 
ATOM      2  C   UNL     1       1.756   7.845  20.443  0.00  0.00    +0.000 C 
ATOM      3  O   UNL     1       1.905   8.115  19.255  0.00  0.00    +0.000 OA
ATOM      4  H   UNL     1       1.684   6.570  22.034  0.00  0.00    +0.000 HD
ENDROOT
BRANCH   1   9
ATOM      5  C   UNL     1       3.111   1.693  18.333  0.00  0.00    +0.000 C 
ATOM      6  C   UNL     1       2.767   2.965  19.048  0.00  0.00    +0.000 A 
ATOM      7  C   UNL     1       1.499   3.140  19.606  0.00  0.00    +0.000 A 
ATOM      8  C   UNL     1       1.171   4.325  20.269  0.00  0.00    +0.000 A 
ATOM      9  C   UNL     1       2.095   5.364  20.382  0.00  0.00    +0.000 A 
ATOM     10  C   UNL     1       3.366   5.192  19.821  0.00  0.00    +0.000 A 
ATOM     11  C   UNL     1       3.699   4.001  19.161  0.00  0.00    +0.000 A 
ENDBRANCH   1   9
BRANCH   2  12
ATOM     12  C   UNL     1       1.441   8.956  21.446  0.00  0.00    +0.000 C 
BRANCH  12  13
ATOM     13  N   UNL     1       0.045   9.452  21.295  0.00  0.00    +0.000 NA
ATOM     14  C   UNL     1      -0.566   9.636  22.623  0.00  0.00    +0.000 C 
BRANCH  13  15
ATOM     15  C   UNL     1       0.042  10.749  20.583  0.00  0.00    +0.000 C 
BRANCH  15  16
ATOM     16  C   UNL     1      -0.979  10.795  19.465  0.00  0.00    +0.000 A 
ATOM     17  C   UNL     1      -0.812   9.997  18.323  0.00  0.00    +0.000 A 
ATOM     18  C   UNL     1      -1.701  10.097  17.252  0.00  0.00    +0.000 A 
ATOM     19  C   UNL     1      -2.770  10.988  17.324  0.00  0.00    +0.000 A 
ATOM     20 CL   UNL     1      -3.841  11.146  15.986  0.00  0.00    +0.000 Cl
ATOM     21  C   UNL     1      -2.970  11.762  18.466  0.00  0.00    +0.000 A 
ATOM     22  C   UNL     1      -2.079  11.662  19.537  0.00  0.00    +0.000 A 
ENDBRANCH  15  16
ENDBRANCH  13  15
ENDBRANCH  12  13
ENDBRANCH   2  12
TORSDOF 5
ENDMDL
MODEL 7
REMARK VINA RESULT:      -6.2      4.638      5.497
REMARK  Name = 
REMARK  7 active torsions:
REMARK  status: ('A' for Active; 'I' for Inactive)
REMARK    1  A    between atoms: C_1  and  C_2
REMARK    2  A    between atoms: C_5  and  N_6
REMARK    3  A    between atoms: C_7  and  C_9
REMARK    4  A    between atoms: C_9  and  N_10
REMARK    5  A    between atoms: N_10  and  C_11
REMARK    6  A    between atoms: N_10  and  C_12
REMARK    7  A    between atoms: C_12  and  C_13
REMARK                            x       y       z     vdW  Elec       q    Type
REMARK                         _______ _______ _______ _____ _____    ______ ____
ROOT
ATOM      1  N   UNL     1       8.935   8.786  19.100  0.00  0.00    +0.000 N 
ATOM      2  C   UNL     1       8.104   8.128  18.204  0.00  0.00    +0.000 C 
ATOM      3  O   UNL     1       7.494   8.623  17.260  0.00  0.00    +0.000 OA
ATOM      4  H   UNL     1       9.332   8.205  19.831  0.00  0.00    +0.000 HD
ENDROOT
BRANCH   1   9
ATOM      5  C   UNL     1      10.014  14.410  19.429  0.00  0.00    +0.000 C 
ATOM      6  C   UNL     1       9.742  12.939  19.335  0.00  0.00    +0.000 A 
ATOM      7  C   UNL     1       9.653  12.316  18.089  0.00  0.00    +0.000 A 
ATOM      8  C   UNL     1       9.396  10.946  17.995  0.00  0.00    +0.000 A 
ATOM      9  C   UNL     1       9.213  10.169  19.140  0.00  0.00    +0.000 A 
ATOM     10  C   UNL     1       9.300  10.792  20.390  0.00  0.00    +0.000 A 
ATOM     11  C   UNL     1       9.565  12.165  20.486  0.00  0.00    +0.000 A 
ENDBRANCH   1   9
BRANCH   2  12
ATOM     12  C   UNL     1       8.015   6.624  18.466  0.00  0.00    +0.000 C 
BRANCH  12  13
ATOM     13  N   UNL     1       6.651   6.097  18.184  0.00  0.00    +0.000 NA
ATOM     14  C   UNL     1       6.705   5.147  17.061  0.00  0.00    +0.000 C 
BRANCH  13  15
ATOM     15  C   UNL     1       6.120   5.400  19.376  0.00  0.00    +0.000 C 
BRANCH  15  16
ATOM     16  C   UNL     1       4.792   4.721  19.108  0.00  0.00    +0.000 A 
ATOM     17  C   UNL     1       3.666   5.484  18.763  0.00  0.00    +0.000 A 
ATOM     18  C   UNL     1       2.421   4.875  18.599  0.00  0.00    +0.000 A 
ATOM     19  C   UNL     1       2.299   3.498  18.768  0.00  0.00    +0.000 A 
ATOM     20 CL   UNL     1       0.756   2.752  18.611  0.00  0.00    +0.000 Cl
ATOM     21  C   UNL     1       3.415   2.721  19.076  0.00  0.00    +0.000 A 
ATOM     22  C   UNL     1       4.660   3.331  19.241  0.00  0.00    +0.000 A 
ENDBRANCH  15  16
ENDBRANCH  13  15
ENDBRANCH  12  13
ENDBRANCH   2  12
TORSDOF 5
ENDMDL
MODEL 8
REMARK VINA RESULT:      -6.2      2.436      6.102
REMARK  Name = 
REMARK  7 active torsions:
REMARK  status: ('A' for Active; 'I' for Inactive)
REMARK    1  A    between atoms: C_1  and  C_2
REMARK    2  A    between atoms: C_5  and  N_6
REMARK    3  A    between atoms: C_7  and  C_9
REMARK    4  A    between atoms: C_9  and  N_10
REMARK    5  A    between atoms: N_10  and  C_11
REMARK    6  A    between atoms: N_10  and  C_12
REMARK    7  A    between atoms: C_12  and  C_13
REMARK                            x       y       z     vdW  Elec       q    Type
REMARK                         _______ _______ _______ _____ _____    ______ ____
ROOT
ATOM      1  N   UNL     1       4.291   3.529  17.418  0.00  0.00    +0.000 N 
ATOM      2  C   UNL     1       4.508   3.434  18.786  0.00  0.00    +0.000 C 
ATOM      3  O   UNL     1       5.519   3.767  19.398  0.00  0.00    +0.000 OA
ATOM      4  H   UNL     1       3.395   3.176  17.095  0.00  0.00    +0.000 HD
ENDROOT
BRANCH   1   9
ATOM      5  C   UNL     1       7.919   5.289  13.339  0.00  0.00    +0.000 C 
ATOM      6  C   UNL     1       6.971   4.841  14.411  0.00  0.00    +0.000 A 
ATOM      7  C   UNL     1       7.290   5.025  15.758  0.00  0.00    +0.000 A 
ATOM      8  C   UNL     1       6.414   4.605  16.760  0.00  0.00    +0.000 A 
ATOM      9  C   UNL     1       5.204   3.985  16.444  0.00  0.00    +0.000 A 
ATOM     10  C   UNL     1       4.883   3.798  15.095  0.00  0.00    +0.000 A 
ATOM     11  C   UNL     1       5.759   4.225  14.087  0.00  0.00    +0.000 A 
ENDBRANCH   1   9
BRANCH   2  12
ATOM     12  C   UNL     1       3.304   2.873  19.545  0.00  0.00    +0.000 C 
BRANCH  12  13
ATOM     13  N   UNL     1       2.199   3.866  19.630  0.00  0.00    +0.000 NA
ATOM     14  C   UNL     1       1.000   3.232  20.205  0.00  0.00    +0.000 C 
BRANCH  13  15
ATOM     15  C   UNL     1       2.600   5.000  20.492  0.00  0.00    +0.000 C 
BRANCH  15  16
ATOM     16  C   UNL     1       2.270   6.344  19.875  0.00  0.00    +0.000 A 
ATOM     17  C   UNL     1       2.640   6.622  18.550  0.00  0.00    +0.000 A 
ATOM     18  C   UNL     1       2.417   7.886  18.003  0.00  0.00    +0.000 A 
ATOM     19  C   UNL     1       1.812   8.876  18.775  0.00  0.00    +0.000 A 
ATOM     20 CL   UNL     1       1.578  10.449  18.118  0.00  0.00    +0.000 Cl
ATOM     21  C   UNL     1       1.407   8.604  20.081  0.00  0.00    +0.000 A 
ATOM     22  C   UNL     1       1.631   7.339  20.629  0.00  0.00    +0.000 A 
ENDBRANCH  15  16
ENDBRANCH  13  15
ENDBRANCH  12  13
ENDBRANCH   2  12
TORSDOF 5
ENDMDL
MODEL 9
REMARK VINA RESULT:      -6.1      2.961      4.414
REMARK  Name = 
REMARK  7 active torsions:
REMARK  status: ('A' for Active; 'I' for Inactive)
REMARK    1  A    between atoms: C_1  and  C_2
REMARK    2  A    between atoms: C_5  and  N_6
REMARK    3  A    between atoms: C_7  and  C_9
REMARK    4  A    between atoms: C_9  and  N_10
REMARK    5  A    between atoms: N_10  and  C_11
REMARK    6  A    between atoms: N_10  and  C_12
REMARK    7  A    between atoms: C_12  and  C_13
REMARK                            x       y       z     vdW  Elec       q    Type
REMARK                         _______ _______ _______ _____ _____    ______ ____
ROOT
ATOM      1  N   UNL     1       2.606   6.462  20.216  0.00  0.00    +0.000 N 
ATOM      2  C   UNL     1       2.065   5.198  20.408  0.00  0.00    +0.000 C 
ATOM      3  O   UNL     1       0.875   4.909  20.494  0.00  0.00    +0.000 OA
ATOM      4  H   UNL     1       3.620   6.502  20.196  0.00  0.00    +0.000 HD
ENDROOT
BRANCH   1   9
ATOM      5  C   UNL     1      -0.183  11.447  19.698  0.00  0.00    +0.000 C 
ATOM      6  C   UNL     1       0.535  10.139  19.839  0.00  0.00    +0.000 A 
ATOM      7  C   UNL     1       0.583   9.490  21.074  0.00  0.00    +0.000 A 
ATOM      8  C   UNL     1       1.255   8.273  21.213  0.00  0.00    +0.000 A 
ATOM      9  C   UNL     1       1.901   7.681  20.127  0.00  0.00    +0.000 A 
ATOM     10  C   UNL     1       1.855   8.331  18.888  0.00  0.00    +0.000 A 
ATOM     11  C   UNL     1       1.176   9.549  18.745  0.00  0.00    +0.000 A 
ENDBRANCH   1   9
BRANCH   2  12
ATOM     12  C   UNL     1       3.127   4.099  20.480  0.00  0.00    +0.000 C 
BRANCH  12  13
ATOM     13  N   UNL     1       3.324   3.440  19.160  0.00  0.00    +0.000 NA
ATOM     14  C   UNL     1       2.450   2.259  19.055  0.00  0.00    +0.000 C 
BRANCH  13  15
ATOM     15  C   UNL     1       2.991   4.380  18.068  0.00  0.00    +0.000 C 
BRANCH  15  16
ATOM     16  C   UNL     1       4.147   4.595  17.113  0.00  0.00    +0.000 A 
ATOM     17  C   UNL     1       4.529   5.894  16.747  0.00  0.00    +0.000 A 
ATOM     18  C   UNL     1       5.536   6.098  15.802  0.00  0.00    +0.000 A 
ATOM     19  C   UNL     1       6.174   5.001  15.227  0.00  0.00    +0.000 A 
ATOM     20 CL   UNL     1       7.384   5.248  14.028  0.00  0.00    +0.000 Cl
ATOM     21  C   UNL     1       5.831   3.704  15.606  0.00  0.00    +0.000 A 
ATOM     22  C   UNL     1       4.822   3.501  16.551  0.00  0.00    +0.000 A 
ENDBRANCH  15  16
ENDBRANCH  13  15
ENDBRANCH  12  13
ENDBRANCH   2  12
TORSDOF 5
ENDMDL
