MODEL 1
REMARK VINA RESULT:      -7.9      0.000      0.000
REMARK  Name = 
REMARK  8 active torsions:
REMARK  status: ('A' for Active; 'I' for Inactive)
REMARK    1  A    between atoms: C_1  and  C_2
REMARK    2  A    between atoms: C_2  and  C_3
REMARK    3  A    between atoms: C_2  and  C_11
REMARK    4  A    between atoms: C_2  and  S_15
REMARK    5  A    between atoms: C_3  and  C_4
REMARK    6  A    between atoms: C_4  and  C_5
REMARK    7  A    between atoms: N_13  and  O_14
REMARK    8  A    between atoms: S_15  and  C_18
REMARK                            x       y       z     vdW  Elec       q    Type
REMARK                         _______ _______ _______ _____ _____    ______ ____
ROOT
ATOM      1  C   UNL     1       1.776   4.428  18.148  0.00  0.00    +0.000 C 
ATOM      2  C   UNL     1       2.947   4.449  19.158  0.00  0.00    +0.000 C 
ENDROOT
BRANCH   2   3
ATOM      3  C   UNL     1       2.387   4.064  20.530  0.00  0.00    +0.000 C 
ATOM      4  O   UNL     1       2.104   4.851  21.431  0.00  0.00    +0.000 OA
ATOM      5  N   UNL     1       2.201   2.713  20.741  0.00  0.00    +0.000 N 
ATOM      6  H   UNL     1       2.302   1.970  20.061  0.00  0.00    +0.000 HD
BRANCH   5   7
ATOM      7  O   UNL     1       1.661   2.351  21.996  0.00  0.00    +0.000 OA
ATOM      8  H   UNL     1       2.060   3.018  22.599  0.00  0.00    +0.000 HD
ENDBRANCH   5   7
ENDBRANCH   2   3
BRANCH   2   9
ATOM      9  S   UNL     1       4.156   3.171  18.689  0.00  0.00    +0.000 S 
ATOM     10  O   UNL     1       5.020   2.857  19.814  0.00  0.00    +0.000 OA
ATOM     11  O   UNL     1       3.468   2.108  17.976  0.00  0.00    +0.000 OA
BRANCH   9  12
ATOM     12  C   UNL     1       5.220   3.942  17.472  0.00  0.00    +0.000 A 
ATOM     13  C   UNL     1       4.773   4.094  16.156  0.00  0.00    +0.000 A 
ATOM     14  C   UNL     1       5.598   4.709  15.216  0.00  0.00    +0.000 A 
ATOM     15  C   UNL     1       6.849   5.194  15.596  0.00  0.00    +0.000 A 
ATOM     16  C   UNL     1       7.273   5.085  16.922  0.00  0.00    +0.000 A 
ATOM     17  C   UNL     1       6.453   4.469  17.867  0.00  0.00    +0.000 A 
ENDBRANCH   9  12
ENDBRANCH   2   9
BRANCH   2  18
ATOM     18  C   UNL     1       3.543   5.881  19.181  0.00  0.00    +0.000 C 
BRANCH  18  19
ATOM     19  C   UNL     1       3.059   6.841  18.083  0.00  0.00    +0.000 C 
BRANCH  19  20
ATOM     20  C   UNL     1       2.208   7.957  18.651  0.00  0.00    +0.000 A 
ATOM     21  C   UNL     1       1.765   9.009  17.838  0.00  0.00    +0.000 A 
ATOM     22  C   UNL     1       0.984  10.037  18.369  0.00  0.00    +0.000 A 
ATOM     23  C   UNL     1       0.624  10.017  19.715  0.00  0.00    +0.000 A 
ATOM     24  C   UNL     1       1.045   8.969  20.530  0.00  0.00    +0.000 A 
ATOM     25  C   UNL     1       1.835   7.946  20.002  0.00  0.00    +0.000 A 
ENDBRANCH  19  20
ENDBRANCH  18  19
ENDBRANCH   2  18
TORSDOF 7
ENDMDL
MODEL 2
REMARK VINA RESULT:      -7.9      0.632      1.204
REMARK  Name = 
REMARK  8 active torsions:
REMARK  status: ('A' for Active; 'I' for Inactive)
REMARK    1  A    between atoms: C_1  and  C_2
REMARK    2  A    between atoms: C_2  and  C_3
REMARK    3  A    between atoms: C_2  and  C_11
REMARK    4  A    between atoms: C_2  and  S_15
REMARK    5  A    between atoms: C_3  and  C_4
REMARK    6  A    between atoms: C_4  and  C_5
REMARK    7  A    between atoms: N_13  and  O_14
REMARK    8  A    between atoms: S_15  and  C_18
REMARK                            x       y       z     vdW  Elec       q    Type
REMARK                         _______ _______ _______ _____ _____    ______ ____
ROOT
ATOM      1  C   UNL     1       1.813   4.369  17.735  0.00  0.00    +0.000 C 
ATOM      2  C   UNL     1       2.685   4.195  19.000  0.00  0.00    +0.000 C 
ENDROOT
BRANCH   2   3
ATOM      3  C   UNL     1       1.820   3.534  20.077  0.00  0.00    +0.000 C 
ATOM      4  O   UNL     1       0.638   3.221  19.950  0.00  0.00    +0.000 OA
ATOM      5  N   UNL     1       2.450   3.287  21.279  0.00  0.00    +0.000 N 
ATOM      6  H   UNL     1       3.434   3.406  21.489  0.00  0.00    +0.000 HD
BRANCH   5   7
ATOM      7  O   UNL     1       1.666   2.654  22.271  0.00  0.00    +0.000 OA
ATOM      8  H   UNL     1       0.864   3.223  22.302  0.00  0.00    +0.000 HD
ENDBRANCH   5   7
ENDBRANCH   2   3
BRANCH   2   9
ATOM      9  S   UNL     1       4.050   3.050  18.625  0.00  0.00    +0.000 S 
ATOM     10  O   UNL     1       4.819   2.771  19.825  0.00  0.00    +0.000 OA
ATOM     11  O   UNL     1       3.542   1.957  17.812  0.00  0.00    +0.000 OA
BRANCH   9  12
ATOM     12  C   UNL     1       5.156   3.960  17.550  0.00  0.00    +0.000 A 
ATOM     13  C   UNL     1       4.829   4.131  16.202  0.00  0.00    +0.000 A 
ATOM     14  C   UNL     1       5.686   4.854  15.372  0.00  0.00    +0.000 A 
ATOM     15  C   UNL     1       6.846   5.426  15.895  0.00  0.00    +0.000 A 
ATOM     16  C   UNL     1       7.145   5.294  17.252  0.00  0.00    +0.000 A 
ATOM     17  C   UNL     1       6.294   4.570  18.087  0.00  0.00    +0.000 A 
ENDBRANCH   9  12
ENDBRANCH   2   9
BRANCH   2  18
ATOM     18  C   UNL     1       3.166   5.597  19.455  0.00  0.00    +0.000 C 
BRANCH  18  19
ATOM     19  C   UNL     1       3.116   6.714  18.400  0.00  0.00    +0.000 C 
BRANCH  19  20
ATOM     20  C   UNL     1       2.210   7.848  18.829  0.00  0.00    +0.000 A 
ATOM     21  C   UNL     1       1.779   7.960  20.158  0.00  0.00    +0.000 A 
ATOM     22  C   UNL     1       0.940   9.007  20.547  0.00  0.00    +0.000 A 
ATOM     23  C   UNL     1       0.535   9.961  19.615  0.00  0.00    +0.000 A 
ATOM     24  C   UNL     1       0.969   9.868  18.295  0.00  0.00    +0.000 A 
ATOM     25  C   UNL     1       1.800   8.817  17.903  0.00  0.00    +0.000 A 
ENDBRANCH  19  20
ENDBRANCH  18  19
ENDBRANCH   2  18
TORSDOF 7
ENDMDL
MODEL 3
REMARK VINA RESULT:      -7.7      0.915      1.750
REMARK  Name = 
REMARK  8 active torsions:
REMARK  status: ('A' for Active; 'I' for Inactive)
REMARK    1  A    between atoms: C_1  and  C_2
REMARK    2  A    between atoms: C_2  and  C_3
REMARK    3  A    between atoms: C_2  and  C_11
REMARK    4  A    between atoms: C_2  and  S_15
REMARK    5  A    between atoms: C_3  and  C_4
REMARK    6  A    between atoms: C_4  and  C_5
REMARK    7  A    between atoms: N_13  and  O_14
REMARK    8  A    between atoms: S_15  and  C_18
REMARK                            x       y       z     vdW  Elec       q    Type
REMARK                         _______ _______ _______ _____ _____    ______ ____
ROOT
ATOM      1  C   UNL     1       1.802   4.372  17.746  0.00  0.00    +0.000 C 
ATOM      2  C   UNL     1       2.642   4.253  19.039  0.00  0.00    +0.000 C 
ENDROOT
BRANCH   2   3
ATOM      3  C   UNL     1       1.829   3.443  20.052  0.00  0.00    +0.000 C 
ATOM      4  O   UNL     1       0.781   2.848  19.813  0.00  0.00    +0.000 OA
ATOM      5  N   UNL     1       2.343   3.401  21.332  0.00  0.00    +0.000 N 
ATOM      6  H   UNL     1       3.236   3.762  21.644  0.00  0.00    +0.000 HD
BRANCH   5   7
ATOM      7  O   UNL     1       1.612   2.634  22.268  0.00  0.00    +0.000 OA
ATOM      8  H   UNL     1       1.692   3.168  23.090  0.00  0.00    +0.000 HD
ENDBRANCH   5   7
ENDBRANCH   2   3
BRANCH   2   9
ATOM      9  S   UNL     1       4.155   3.307  18.678  0.00  0.00    +0.000 S 
ATOM     10  O   UNL     1       4.743   2.806  19.908  0.00  0.00    +0.000 OA
ATOM     11  O   UNL     1       3.894   2.402  17.571  0.00  0.00    +0.000 OA
BRANCH   9  12
ATOM     12  C   UNL     1       5.327   4.502  18.042  0.00  0.00    +0.000 A 
ATOM     13  C   UNL     1       6.304   5.034  18.888  0.00  0.00    +0.000 A 
ATOM     14  C   UNL     1       7.224   5.953  18.385  0.00  0.00    +0.000 A 
ATOM     15  C   UNL     1       7.185   6.315  17.038  0.00  0.00    +0.000 A 
ATOM     16  C   UNL     1       6.239   5.744  16.185  0.00  0.00    +0.000 A 
ATOM     17  C   UNL     1       5.314   4.826  16.682  0.00  0.00    +0.000 A 
ENDBRANCH   9  12
ENDBRANCH   2   9
BRANCH   2  18
ATOM     18  C   UNL     1       2.924   5.684  19.569  0.00  0.00    +0.000 C 
BRANCH  18  19
ATOM     19  C   UNL     1       2.808   6.827  18.548  0.00  0.00    +0.000 C 
BRANCH  19  20
ATOM     20  C   UNL     1       2.005   7.987  19.097  0.00  0.00    +0.000 A 
ATOM     21  C   UNL     1       1.589   8.004  20.435  0.00  0.00    +0.000 A 
ATOM     22  C   UNL     1       0.845   9.075  20.935  0.00  0.00    +0.000 A 
ATOM     23  C   UNL     1       0.521  10.148  20.106  0.00  0.00    +0.000 A 
ATOM     24  C   UNL     1       0.941  10.149  18.778  0.00  0.00    +0.000 A 
ATOM     25  C   UNL     1       1.677   9.074  18.275  0.00  0.00    +0.000 A 
ENDBRANCH  19  20
ENDBRANCH  18  19
ENDBRANCH   2  18
TORSDOF 7
ENDMDL
MODEL 4
REMARK VINA RESULT:      -7.7      0.966      1.471
REMARK  Name = 
REMARK  8 active torsions:
REMARK  status: ('A' for Active; 'I' for Inactive)
REMARK    1  A    between atoms: C_1  and  C_2
REMARK    2  A    between atoms: C_2  and  C_3
REMARK    3  A    between atoms: C_2  and  C_11
REMARK    4  A    between atoms: C_2  and  S_15
REMARK    5  A    between atoms: C_3  and  C_4
REMARK    6  A    between atoms: C_4  and  C_5
REMARK    7  A    between atoms: N_13  and  O_14
REMARK    8  A    between atoms: S_15  and  C_18
REMARK                            x       y       z     vdW  Elec       q    Type
REMARK                         _______ _______ _______ _____ _____    ______ ____
ROOT
ATOM      1  C   UNL     1       1.842   4.428  17.734  0.00  0.00    +0.000 C 
ATOM      2  C   UNL     1       2.689   4.323  19.024  0.00  0.00    +0.000 C 
ENDROOT
BRANCH   2   3
ATOM      3  C   UNL     1       1.886   3.511  20.045  0.00  0.00    +0.000 C 
ATOM      4  O   UNL     1       0.848   2.896  19.810  0.00  0.00    +0.000 OA
ATOM      5  N   UNL     1       2.396   3.494  21.327  0.00  0.00    +0.000 N 
ATOM      6  H   UNL     1       3.281   3.875  21.637  0.00  0.00    +0.000 HD
BRANCH   5   7
ATOM      7  O   UNL     1       1.674   2.727  22.270  0.00  0.00    +0.000 OA
ATOM      8  H   UNL     1       2.314   2.015  22.498  0.00  0.00    +0.000 HD
ENDBRANCH   5   7
ENDBRANCH   2   3
BRANCH   2   9
ATOM      9  S   UNL     1       4.207   3.386  18.662  0.00  0.00    +0.000 S 
ATOM     10  O   UNL     1       4.769   2.844  19.886  0.00  0.00    +0.000 OA
ATOM     11  O   UNL     1       3.967   2.518  17.521  0.00  0.00    +0.000 OA
BRANCH   9  12
ATOM     12  C   UNL     1       5.393   4.599  18.089  0.00  0.00    +0.000 A 
ATOM     13  C   UNL     1       6.349   5.107  18.974  0.00  0.00    +0.000 A 
ATOM     14  C   UNL     1       7.280   6.040  18.519  0.00  0.00    +0.000 A 
ATOM     15  C   UNL     1       7.272   6.441  17.183  0.00  0.00    +0.000 A 
ATOM     16  C   UNL     1       6.347   5.895  16.291  0.00  0.00    +0.000 A 
ATOM     17  C   UNL     1       5.411   4.963  16.739  0.00  0.00    +0.000 A 
ENDBRANCH   9  12
ENDBRANCH   2   9
BRANCH   2  18
ATOM     18  C   UNL     1       2.961   5.758  19.545  0.00  0.00    +0.000 C 
BRANCH  18  19
ATOM     19  C   UNL     1       2.809   6.897  18.524  0.00  0.00    +0.000 C 
BRANCH  19  20
ATOM     20  C   UNL     1       1.999   8.046  19.086  0.00  0.00    +0.000 A 
ATOM     21  C   UNL     1       1.624   9.126  18.275  0.00  0.00    +0.000 A 
ATOM     22  C   UNL     1       0.881  10.185  18.800  0.00  0.00    +0.000 A 
ATOM     23  C   UNL     1       0.490  10.169  20.137  0.00  0.00    +0.000 A 
ATOM     24  C   UNL     1       0.843   9.094  20.950  0.00  0.00    +0.000 A 
ATOM     25  C   UNL     1       1.595   8.039  20.428  0.00  0.00    +0.000 A 
ENDBRANCH  19  20
ENDBRANCH  18  19
ENDBRANCH   2  18
TORSDOF 7
ENDMDL
MODEL 5
REMARK VINA RESULT:      -7.6      0.746      1.085
REMARK  Name = 
REMARK  8 active torsions:
REMARK  status: ('A' for Active; 'I' for Inactive)
REMARK    1  A    between atoms: C_1  and  C_2
REMARK    2  A    between atoms: C_2  and  C_3
REMARK    3  A    between atoms: C_2  and  C_11
REMARK    4  A    between atoms: C_2  and  S_15
REMARK    5  A    between atoms: C_3  and  C_4
REMARK    6  A    between atoms: C_4  and  C_5
REMARK    7  A    between atoms: N_13  and  O_14
REMARK    8  A    between atoms: S_15  and  C_18
REMARK                            x       y       z     vdW  Elec       q    Type
REMARK                         _______ _______ _______ _____ _____    ______ ____
ROOT
ATOM      1  C   UNL     1       1.799   4.399  17.811  0.00  0.00    +0.000 C 
ATOM      2  C   UNL     1       2.658   4.182  19.079  0.00  0.00    +0.000 C 
ENDROOT
BRANCH   2   3
ATOM      3  C   UNL     1       1.787   3.470  20.117  0.00  0.00    +0.000 C 
ATOM      4  O   UNL     1       0.601   3.179  19.975  0.00  0.00    +0.000 OA
ATOM      5  N   UNL     1       2.415   3.148  21.302  0.00  0.00    +0.000 N 
ATOM      6  H   UNL     1       3.400   3.243  21.517  0.00  0.00    +0.000 HD
BRANCH   5   7
ATOM      7  O   UNL     1       1.625   2.468  22.257  0.00  0.00    +0.000 OA
ATOM      8  H   UNL     1       1.174   3.207  22.725  0.00  0.00    +0.000 HD
ENDBRANCH   5   7
ENDBRANCH   2   3
BRANCH   2   9
ATOM      9  S   UNL     1       4.039   3.065  18.675  0.00  0.00    +0.000 S 
ATOM     10  O   UNL     1       4.803   2.756  19.869  0.00  0.00    +0.000 OA
ATOM     11  O   UNL     1       3.547   1.995  17.823  0.00  0.00    +0.000 OA
BRANCH   9  12
ATOM     12  C   UNL     1       5.141   4.023  17.638  0.00  0.00    +0.000 A 
ATOM     13  C   UNL     1       4.835   4.211  16.287  0.00  0.00    +0.000 A 
ATOM     14  C   UNL     1       5.688   4.970  15.487  0.00  0.00    +0.000 A 
ATOM     15  C   UNL     1       6.823   5.561  16.042  0.00  0.00    +0.000 A 
ATOM     16  C   UNL     1       7.099   5.413  17.402  0.00  0.00    +0.000 A 
ATOM     17  C   UNL     1       6.252   4.653  18.207  0.00  0.00    +0.000 A 
ENDBRANCH   9  12
ENDBRANCH   2   9
BRANCH   2  18
ATOM     18  C   UNL     1       3.121   5.569  19.596  0.00  0.00    +0.000 C 
BRANCH  18  19
ATOM     19  C   UNL     1       2.076   6.398  20.360  0.00  0.00    +0.000 C 
BRANCH  19  20
ATOM     20  C   UNL     1       1.833   7.738  19.699  0.00  0.00    +0.000 A 
ATOM     21  C   UNL     1       2.281   7.988  18.394  0.00  0.00    +0.000 A 
ATOM     22  C   UNL     1       2.058   9.227  17.791  0.00  0.00    +0.000 A 
ATOM     23  C   UNL     1       1.372  10.226  18.479  0.00  0.00    +0.000 A 
ATOM     24  C   UNL     1       0.909   9.985  19.770  0.00  0.00    +0.000 A 
ATOM     25  C   UNL     1       1.139   8.749  20.378  0.00  0.00    +0.000 A 
ENDBRANCH  19  20
ENDBRANCH  18  19
ENDBRANCH   2  18
TORSDOF 7
ENDMDL
MODEL 6
REMARK VINA RESULT:      -7.5      2.777      5.643
REMARK  Name = 
REMARK  8 active torsions:
REMARK  status: ('A' for Active; 'I' for Inactive)
REMARK    1  A    between atoms: C_1  and  C_2
REMARK    2  A    between atoms: C_2  and  C_3
REMARK    3  A    between atoms: C_2  and  C_11
REMARK    4  A    between atoms: C_2  and  S_15
REMARK    5  A    between atoms: C_3  and  C_4
REMARK    6  A    between atoms: C_4  and  C_5
REMARK    7  A    between atoms: N_13  and  O_14
REMARK    8  A    between atoms: S_15  and  C_18
REMARK                            x       y       z     vdW  Elec       q    Type
REMARK                         _______ _______ _______ _____ _____    ______ ____
ROOT
ATOM      1  C   UNL     1       5.662   4.322  15.211  0.00  0.00    +0.000 C 
ATOM      2  C   UNL     1       5.277   4.832  16.620  0.00  0.00    +0.000 C 
ENDROOT
BRANCH   2   3
ATOM      3  C   UNL     1       6.395   4.427  17.585  0.00  0.00    +0.000 C 
ATOM      4  O   UNL     1       6.260   4.229  18.790  0.00  0.00    +0.000 OA
ATOM      5  N   UNL     1       7.647   4.286  17.022  0.00  0.00    +0.000 N 
ATOM      6  H   UNL     1       7.882   4.327  16.038  0.00  0.00    +0.000 HD
BRANCH   5   7
ATOM      7  O   UNL     1       8.680   3.889  17.901  0.00  0.00    +0.000 OA
ATOM      8  H   UNL     1       8.180   3.563  18.683  0.00  0.00    +0.000 HD
ENDBRANCH   5   7
ENDBRANCH   2   3
BRANCH   2   9
ATOM      9  S   UNL     1       5.217   6.652  16.595  0.00  0.00    +0.000 S 
ATOM     10  O   UNL     1       6.396   7.205  17.237  0.00  0.00    +0.000 OA
ATOM     11  O   UNL     1       4.833   7.094  15.265  0.00  0.00    +0.000 OA
BRANCH   9  12
ATOM     12  C   UNL     1       3.843   7.099  17.654  0.00  0.00    +0.000 A 
ATOM     13  C   UNL     1       3.627   6.398  18.844  0.00  0.00    +0.000 A 
ATOM     14  C   UNL     1       2.566   6.760  19.673  0.00  0.00    +0.000 A 
ATOM     15  C   UNL     1       1.745   7.833  19.328  0.00  0.00    +0.000 A 
ATOM     16  C   UNL     1       1.992   8.562  18.163  0.00  0.00    +0.000 A 
ATOM     17  C   UNL     1       3.051   8.204  17.328  0.00  0.00    +0.000 A 
ENDBRANCH   9  12
ENDBRANCH   2   9
BRANCH   2  18
ATOM     18  C   UNL     1       3.930   4.177  17.022  0.00  0.00    +0.000 C 
BRANCH  18  19
ATOM     19  C   UNL     1       4.017   2.871  17.828  0.00  0.00    +0.000 C 
BRANCH  19  20
ATOM     20  C   UNL     1       3.052   2.868  18.994  0.00  0.00    +0.000 A 
ATOM     21  C   UNL     1       3.506   2.661  20.303  0.00  0.00    +0.000 A 
ATOM     22  C   UNL     1       2.610   2.655  21.374  0.00  0.00    +0.000 A 
ATOM     23  C   UNL     1       1.252   2.872  21.150  0.00  0.00    +0.000 A 
ATOM     24  C   UNL     1       0.790   3.094  19.855  0.00  0.00    +0.000 A 
ATOM     25  C   UNL     1       1.684   3.090  18.782  0.00  0.00    +0.000 A 
ENDBRANCH  19  20
ENDBRANCH  18  19
ENDBRANCH   2  18
TORSDOF 7
ENDMDL
MODEL 7
REMARK VINA RESULT:      -7.4      3.466      6.699
REMARK  Name = 
REMARK  8 active torsions:
REMARK  status: ('A' for Active; 'I' for Inactive)
REMARK    1  A    between atoms: C_1  and  C_2
REMARK    2  A    between atoms: C_2  and  C_3
REMARK    3  A    between atoms: C_2  and  C_11
REMARK    4  A    between atoms: C_2  and  S_15
REMARK    5  A    between atoms: C_3  and  C_4
REMARK    6  A    between atoms: C_4  and  C_5
REMARK    7  A    between atoms: N_13  and  O_14
REMARK    8  A    between atoms: S_15  and  C_18
REMARK                            x       y       z     vdW  Elec       q    Type
REMARK                         _______ _______ _______ _____ _____    ______ ____
ROOT
ATOM      1  C   UNL     1       4.823   6.348  16.511  0.00  0.00    +0.000 C 
ATOM      2  C   UNL     1       5.872   5.607  17.374  0.00  0.00    +0.000 C 
ENDROOT
BRANCH   2   3
ATOM      3  C   UNL     1       7.040   6.566  17.617  0.00  0.00    +0.000 C 
ATOM      4  O   UNL     1       7.481   7.375  16.803  0.00  0.00    +0.000 OA
ATOM      5  N   UNL     1       7.626   6.488  18.863  0.00  0.00    +0.000 N 
ATOM      6  H   UNL     1       7.309   5.940  19.654  0.00  0.00    +0.000 HD
BRANCH   5   7
ATOM      7  O   UNL     1       8.689   7.387  19.106  0.00  0.00    +0.000 OA
ATOM      8  H   UNL     1       8.217   8.199  19.401  0.00  0.00    +0.000 HD
ENDBRANCH   5   7
ENDBRANCH   2   3
BRANCH   2   9
ATOM      9  S   UNL     1       5.140   5.223  18.996  0.00  0.00    +0.000 S 
ATOM     10  O   UNL     1       6.088   4.493  19.817  0.00  0.00    +0.000 OA
ATOM     11  O   UNL     1       4.488   6.414  19.515  0.00  0.00    +0.000 OA
BRANCH   9  12
ATOM     12  C   UNL     1       3.812   4.069  18.661  0.00  0.00    +0.000 A 
ATOM     13  C   UNL     1       4.029   2.697  18.817  0.00  0.00    +0.000 A 
ATOM     14  C   UNL     1       2.987   1.803  18.570  0.00  0.00    +0.000 A 
ATOM     15  C   UNL     1       1.731   2.281  18.197  0.00  0.00    +0.000 A 
ATOM     16  C   UNL     1       1.504   3.654  18.090  0.00  0.00    +0.000 A 
ATOM     17  C   UNL     1       2.542   4.554  18.333  0.00  0.00    +0.000 A 
ENDBRANCH   9  12
ENDBRANCH   2   9
BRANCH   2  18
ATOM     18  C   UNL     1       6.338   4.348  16.596  0.00  0.00    +0.000 C 
BRANCH  18  19
ATOM     19  C   UNL     1       5.447   3.897  15.427  0.00  0.00    +0.000 C 
BRANCH  19  20
ATOM     20  C   UNL     1       6.143   4.074  14.094  0.00  0.00    +0.000 A 
ATOM     21  C   UNL     1       5.749   3.329  12.973  0.00  0.00    +0.000 A 
ATOM     22  C   UNL     1       6.398   3.494  11.748  0.00  0.00    +0.000 A 
ATOM     23  C   UNL     1       7.436   4.415  11.624  0.00  0.00    +0.000 A 
ATOM     24  C   UNL     1       7.826   5.171  12.727  0.00  0.00    +0.000 A 
ATOM     25  C   UNL     1       7.185   5.000  13.956  0.00  0.00    +0.000 A 
ENDBRANCH  19  20
ENDBRANCH  18  19
ENDBRANCH   2  18
TORSDOF 7
ENDMDL
MODEL 8
REMARK VINA RESULT:      -7.4      3.455      6.646
REMARK  Name = 
REMARK  8 active torsions:
REMARK  status: ('A' for Active; 'I' for Inactive)
REMARK    1  A    between atoms: C_1  and  C_2
REMARK    2  A    between atoms: C_2  and  C_3
REMARK    3  A    between atoms: C_2  and  C_11
REMARK    4  A    between atoms: C_2  and  S_15
REMARK    5  A    between atoms: C_3  and  C_4
REMARK    6  A    between atoms: C_4  and  C_5
REMARK    7  A    between atoms: N_13  and  O_14
REMARK    8  A    between atoms: S_15  and  C_18
REMARK                            x       y       z     vdW  Elec       q    Type
REMARK                         _______ _______ _______ _____ _____    ______ ____
ROOT
ATOM      1  C   UNL     1       4.761   6.328  16.497  0.00  0.00    +0.000 C 
ATOM      2  C   UNL     1       5.832   5.676  17.402  0.00  0.00    +0.000 C 
ENDROOT
BRANCH   2   3
ATOM      3  C   UNL     1       6.937   6.709  17.637  0.00  0.00    +0.000 C 
ATOM      4  O   UNL     1       7.194   7.659  16.901  0.00  0.00    +0.000 OA
ATOM      5  N   UNL     1       7.692   6.525  18.778  0.00  0.00    +0.000 N 
ATOM      6  H   UNL     1       7.533   5.848  19.513  0.00  0.00    +0.000 HD
BRANCH   5   7
ATOM      7  O   UNL     1       8.699   7.489  19.016  0.00  0.00    +0.000 OA
ATOM      8  H   UNL     1       9.446   6.939  19.345  0.00  0.00    +0.000 HD
ENDBRANCH   5   7
ENDBRANCH   2   3
BRANCH   2   9
ATOM      9  S   UNL     1       5.090   5.300  19.022  0.00  0.00    +0.000 S 
ATOM     10  O   UNL     1       6.033   4.574  19.853  0.00  0.00    +0.000 OA
ATOM     11  O   UNL     1       4.435   6.494  19.531  0.00  0.00    +0.000 OA
BRANCH   9  12
ATOM     12  C   UNL     1       3.764   4.144  18.684  0.00  0.00    +0.000 A 
ATOM     13  C   UNL     1       2.505   4.622  18.309  0.00  0.00    +0.000 A 
ATOM     14  C   UNL     1       1.481   3.718  18.032  0.00  0.00    +0.000 A 
ATOM     15  C   UNL     1       1.722   2.346  18.101  0.00  0.00    +0.000 A 
ATOM     16  C   UNL     1       2.994   1.871  18.428  0.00  0.00    +0.000 A 
ATOM     17  C   UNL     1       4.023   2.770  18.709  0.00  0.00    +0.000 A 
ENDBRANCH   9  12
ENDBRANCH   2   9
BRANCH   2  18
ATOM     18  C   UNL     1       6.386   4.423  16.674  0.00  0.00    +0.000 C 
BRANCH  18  19
ATOM     19  C   UNL     1       5.514   3.843  15.549  0.00  0.00    +0.000 C 
BRANCH  19  20
ATOM     20  C   UNL     1       6.162   4.019  14.193  0.00  0.00    +0.000 A 
ATOM     21  C   UNL     1       5.745   3.257  13.093  0.00  0.00    +0.000 A 
ATOM     22  C   UNL     1       6.350   3.421  11.845  0.00  0.00    +0.000 A 
ATOM     23  C   UNL     1       7.367   4.359  11.678  0.00  0.00    +0.000 A 
ATOM     24  C   UNL     1       7.779   5.133  12.760  0.00  0.00    +0.000 A 
ATOM     25  C   UNL     1       7.182   4.963  14.011  0.00  0.00    +0.000 A 
ENDBRANCH  19  20
ENDBRANCH  18  19
ENDBRANCH   2  18
TORSDOF 7
ENDMDL
MODEL 9
REMARK VINA RESULT:      -7.3      1.048      1.458
REMARK  Name = 
REMARK  8 active torsions:
REMARK  status: ('A' for Active; 'I' for Inactive)
REMARK    1  A    between atoms: C_1  and  C_2
REMARK    2  A    between atoms: C_2  and  C_3
REMARK    3  A    between atoms: C_2  and  C_11
REMARK    4  A    between atoms: C_2  and  S_15
REMARK    5  A    between atoms: C_3  and  C_4
REMARK    6  A    between atoms: C_4  and  C_5
REMARK    7  A    between atoms: N_13  and  O_14
REMARK    8  A    between atoms: S_15  and  C_18
REMARK                            x       y       z     vdW  Elec       q    Type
REMARK                         _______ _______ _______ _____ _____    ______ ____
ROOT
ATOM      1  C   UNL     1       1.728   4.589  17.887  0.00  0.00    +0.000 C 
ATOM      2  C   UNL     1       2.647   4.330  19.104  0.00  0.00    +0.000 C 
ENDROOT
BRANCH   2   3
ATOM      3  C   UNL     1       1.869   3.465  20.101  0.00  0.00    +0.000 C 
ATOM      4  O   UNL     1       0.718   3.061  19.949  0.00  0.00    +0.000 OA
ATOM      5  N   UNL     1       2.545   3.134  21.257  0.00  0.00    +0.000 N 
ATOM      6  H   UNL     1       3.518   3.317  21.470  0.00  0.00    +0.000 HD
BRANCH   5   7
ATOM      7  O   UNL     1       1.843   2.316  22.172  0.00  0.00    +0.000 OA
ATOM      8  H   UNL     1       2.558   2.008  22.774  0.00  0.00    +0.000 HD
ENDBRANCH   5   7
ENDBRANCH   2   3
BRANCH   2   9
ATOM      9  S   UNL     1       4.091   3.362  18.561  0.00  0.00    +0.000 S 
ATOM     10  O   UNL     1       5.141   3.419  19.562  0.00  0.00    +0.000 OA
ATOM     11  O   UNL     1       3.636   2.080  18.050  0.00  0.00    +0.000 OA
BRANCH   9  12
ATOM     12  C   UNL     1       4.741   4.232  17.138  0.00  0.00    +0.000 A 
ATOM     13  C   UNL     1       4.866   5.624  17.173  0.00  0.00    +0.000 A 
ATOM     14  C   UNL     1       5.388   6.296  16.068  0.00  0.00    +0.000 A 
ATOM     15  C   UNL     1       5.807   5.578  14.948  0.00  0.00    +0.000 A 
ATOM     16  C   UNL     1       5.727   4.185  14.935  0.00  0.00    +0.000 A 
ATOM     17  C   UNL     1       5.204   3.506  16.036  0.00  0.00    +0.000 A 
ENDBRANCH   9  12
ENDBRANCH   2   9
BRANCH   2  18
ATOM     18  C   UNL     1       3.023   5.698  19.729  0.00  0.00    +0.000 C 
BRANCH  18  19
ATOM     19  C   UNL     1       1.878   6.493  20.377  0.00  0.00    +0.000 C 
BRANCH  19  20
ATOM     20  C   UNL     1       1.707   7.852  19.734  0.00  0.00    +0.000 A 
ATOM     21  C   UNL     1       2.207   8.107  18.449  0.00  0.00    +0.000 A 
ATOM     22  C   UNL     1       2.050   9.365  17.862  0.00  0.00    +0.000 A 
ATOM     23  C   UNL     1       1.379  10.376  18.546  0.00  0.00    +0.000 A 
ATOM     24  C   UNL     1       0.865  10.131  19.817  0.00  0.00    +0.000 A 
ATOM     25  C   UNL     1       1.030   8.877  20.409  0.00  0.00    +0.000 A 
ENDBRANCH  19  20
ENDBRANCH  18  19
ENDBRANCH   2  18
TORSDOF 7
ENDMDL
