MODEL 1
REMARK VINA RESULT:      -9.0      0.000      0.000
REMARK  Name = 
REMARK  5 active torsions:
REMARK  status: ('A' for Active; 'I' for Inactive)
REMARK    1  A    between atoms: C_1  and  C_2
REMARK    2  A    between atoms: C_2  and  O_3
REMARK    3  A    between atoms: O_3  and  C_4
REMARK    4  A    between atoms: C_4  and  C_6
REMARK    5  A    between atoms: C_17  and  C_18
REMARK                            x       y       z     vdW  Elec       q    Type
REMARK                         _______ _______ _______ _____ _____    ______ ____
ROOT
ATOM      1  C   UNL     1       6.685   5.018  15.524  0.00  0.00    +0.000 C 
ATOM      2  C   UNL     1       5.250   4.479  15.760  0.00  0.00    +0.000 C 
ATOM      3  C   UNL     1       5.024   4.122  17.188  0.00  0.00    +0.000 A 
ATOM      4  C   UNL     1       6.023   4.240  18.131  0.00  0.00    +0.000 A 
ATOM      5  N   UNL     1       5.525   3.818  19.335  0.00  0.00    +0.000 N 
ATOM      6  C   UNL     1       4.211   3.421  19.180  0.00  0.00    +0.000 A 
ATOM      7  C   UNL     1       3.297   2.917  20.115  0.00  0.00    +0.000 A 
ATOM      8  C   UNL     1       2.015   2.589  19.659  0.00  0.00    +0.000 A 
ATOM      9  C   UNL     1       1.660   2.760  18.322  0.00  0.00    +0.000 A 
ATOM     10  C   UNL     1       2.581   3.265  17.401  0.00  0.00    +0.000 A 
ATOM     11  C   UNL     1       3.876   3.604  17.835  0.00  0.00    +0.000 A 
ATOM     12  C   UNL     1       7.400   4.745  17.874  0.00  0.00    +0.000 C 
ATOM     13  C   UNL     1       7.508   6.235  18.214  0.00  0.00    +0.000 C 
ATOM     14  N   UNL     1       7.737   4.488  16.456  0.00  0.00    +0.000 NA
ATOM     15  H   UNL     1       6.030   3.793  20.209  0.00  0.00    +0.000 HD
ATOM     16  H   UNL     1       7.760   3.472  16.325  0.00  0.00    +0.000 HD
ENDROOT
BRANCH   1  17
ATOM     17  C   UNL     1       7.033   4.744  14.062  0.00  0.00    +0.000 C 
ATOM     18  O   UNL     1       7.726   5.503  13.388  0.00  0.00    +0.000 OA
BRANCH  17  19
ATOM     19  O   UNL     1       6.401   3.638  13.573  0.00  0.00    +0.000 OA
BRANCH  19  21
ATOM     20  C   UNL     1       4.963   3.166  11.677  0.00  0.00    +0.000 C 
ATOM     21  C   UNL     1       6.360   3.545  12.139  0.00  0.00    +0.000 C 
ENDBRANCH  19  21
ENDBRANCH  17  19
ENDBRANCH   1  17
TORSDOF 3
ENDMDL
MODEL 2
REMARK VINA RESULT:      -7.7      2.519      5.982
REMARK  Name = 
REMARK  5 active torsions:
REMARK  status: ('A' for Active; 'I' for Inactive)
REMARK    1  A    between atoms: C_1  and  C_2
REMARK    2  A    between atoms: C_2  and  O_3
REMARK    3  A    between atoms: O_3  and  C_4
REMARK    4  A    between atoms: C_4  and  C_6
REMARK    5  A    between atoms: C_17  and  C_18
REMARK                            x       y       z     vdW  Elec       q    Type
REMARK                         _______ _______ _______ _____ _____    ______ ____
ROOT
ATOM      1  C   UNL     1       4.600   4.595  18.043  0.00  0.00    +0.000 C 
ATOM      2  C   UNL     1       4.546   4.009  16.608  0.00  0.00    +0.000 C 
ATOM      3  C   UNL     1       5.667   4.513  15.766  0.00  0.00    +0.000 A 
ATOM      4  C   UNL     1       6.584   5.421  16.248  0.00  0.00    +0.000 A 
ATOM      5  N   UNL     1       7.469   5.709  15.243  0.00  0.00    +0.000 N 
ATOM      6  C   UNL     1       7.130   4.998  14.109  0.00  0.00    +0.000 A 
ATOM      7  C   UNL     1       7.729   4.966  12.843  0.00  0.00    +0.000 A 
ATOM      8  C   UNL     1       7.151   4.141  11.871  0.00  0.00    +0.000 A 
ATOM      9  C   UNL     1       6.020   3.378  12.153  0.00  0.00    +0.000 A 
ATOM     10  C   UNL     1       5.433   3.418  13.421  0.00  0.00    +0.000 A 
ATOM     11  C   UNL     1       5.997   4.239  14.416  0.00  0.00    +0.000 A 
ATOM     12  C   UNL     1       6.602   5.982  17.628  0.00  0.00    +0.000 C 
ATOM     13  C   UNL     1       7.566   5.199  18.524  0.00  0.00    +0.000 C 
ATOM     14  N   UNL     1       5.223   5.957  18.163  0.00  0.00    +0.000 NA
ATOM     15  H   UNL     1       8.252   6.344  15.308  0.00  0.00    +0.000 HD
ATOM     16  H   UNL     1       4.658   6.590  17.588  0.00  0.00    +0.000 HD
ENDROOT
BRANCH   1  17
ATOM     17  C   UNL     1       3.173   4.574  18.590  0.00  0.00    +0.000 C 
ATOM     18  O   UNL     1       2.185   4.735  17.879  0.00  0.00    +0.000 OA
BRANCH  17  19
ATOM     19  O   UNL     1       3.137   4.472  19.950  0.00  0.00    +0.000 OA
BRANCH  19  21
ATOM     20  C   UNL     1       1.356   3.167  20.953  0.00  0.00    +0.000 C 
ATOM     21  C   UNL     1       2.790   3.171  20.453  0.00  0.00    +0.000 C 
ENDBRANCH  19  21
ENDBRANCH  17  19
ENDBRANCH   1  17
TORSDOF 3
ENDMDL
MODEL 3
REMARK VINA RESULT:      -7.7      2.441      5.702
REMARK  Name = 
REMARK  5 active torsions:
REMARK  status: ('A' for Active; 'I' for Inactive)
REMARK    1  A    between atoms: C_1  and  C_2
REMARK    2  A    between atoms: C_2  and  O_3
REMARK    3  A    between atoms: O_3  and  C_4
REMARK    4  A    between atoms: C_4  and  C_6
REMARK    5  A    between atoms: C_17  and  C_18
REMARK                            x       y       z     vdW  Elec       q    Type
REMARK                         _______ _______ _______ _____ _____    ______ ____
ROOT
ATOM      1  C   UNL     1       4.787   4.667  18.114  0.00  0.00    +0.000 C 
ATOM      2  C   UNL     1       4.668   4.088  16.680  0.00  0.00    +0.000 C 
ATOM      3  C   UNL     1       5.775   4.560  15.803  0.00  0.00    +0.000 A 
ATOM      4  C   UNL     1       6.735   5.438  16.257  0.00  0.00    +0.000 A 
ATOM      5  N   UNL     1       7.596   5.701  15.224  0.00  0.00    +0.000 N 
ATOM      6  C   UNL     1       7.198   5.004  14.100  0.00  0.00    +0.000 A 
ATOM      7  C   UNL     1       7.754   4.958  12.815  0.00  0.00    +0.000 A 
ATOM      8  C   UNL     1       7.120   4.155  11.861  0.00  0.00    +0.000 A 
ATOM      9  C   UNL     1       5.975   3.426  12.178  0.00  0.00    +0.000 A 
ATOM     10  C   UNL     1       5.432   3.480  13.465  0.00  0.00    +0.000 A 
ATOM     11  C   UNL     1       6.053   4.279  14.442  0.00  0.00    +0.000 A 
ATOM     12  C   UNL     1       6.816   5.994  17.636  0.00  0.00    +0.000 C 
ATOM     13  C   UNL     1       7.784   5.178  18.499  0.00  0.00    +0.000 C 
ATOM     14  N   UNL     1       5.455   6.009  18.216  0.00  0.00    +0.000 NA
ATOM     15  H   UNL     1       8.400   6.312  15.264  0.00  0.00    +0.000 HD
ATOM     16  H   UNL     1       4.891   6.661  17.662  0.00  0.00    +0.000 HD
ENDROOT
BRANCH   1  17
ATOM     17  C   UNL     1       3.379   4.688  18.707  0.00  0.00    +0.000 C 
ATOM     18  O   UNL     1       3.155   4.972  19.881  0.00  0.00    +0.000 OA
BRANCH  17  19
ATOM     19  O   UNL     1       2.434   4.251  17.825  0.00  0.00    +0.000 OA
BRANCH  19  21
ATOM     20  C   UNL     1       1.595   2.121  18.627  0.00  0.00    +0.000 C 
ATOM     21  C   UNL     1       1.301   3.597  18.422  0.00  0.00    +0.000 C 
ENDBRANCH  19  21
ENDBRANCH  17  19
ENDBRANCH   1  17
TORSDOF 3
ENDMDL
MODEL 4
REMARK VINA RESULT:      -7.4      2.685      5.998
REMARK  Name = 
REMARK  5 active torsions:
REMARK  status: ('A' for Active; 'I' for Inactive)
REMARK    1  A    between atoms: C_1  and  C_2
REMARK    2  A    between atoms: C_2  and  O_3
REMARK    3  A    between atoms: O_3  and  C_4
REMARK    4  A    between atoms: C_4  and  C_6
REMARK    5  A    between atoms: C_17  and  C_18
REMARK                            x       y       z     vdW  Elec       q    Type
REMARK                         _______ _______ _______ _____ _____    ______ ____
ROOT
ATOM      1  C   UNL     1       4.631   4.571  18.003  0.00  0.00    +0.000 C 
ATOM      2  C   UNL     1       4.591   4.001  16.561  0.00  0.00    +0.000 C 
ATOM      3  C   UNL     1       5.720   4.515  15.736  0.00  0.00    +0.000 A 
ATOM      4  C   UNL     1       6.632   5.419  16.238  0.00  0.00    +0.000 A 
ATOM      5  N   UNL     1       7.527   5.718  15.245  0.00  0.00    +0.000 N 
ATOM      6  C   UNL     1       7.200   5.020  14.100  0.00  0.00    +0.000 A 
ATOM      7  C   UNL     1       7.811   5.002  12.839  0.00  0.00    +0.000 A 
ATOM      8  C   UNL     1       7.244   4.189  11.852  0.00  0.00    +0.000 A 
ATOM      9  C   UNL     1       6.110   3.421  12.115  0.00  0.00    +0.000 A 
ATOM     10  C   UNL     1       5.511   3.447  13.377  0.00  0.00    +0.000 A 
ATOM     11  C   UNL     1       6.064   4.256  14.387  0.00  0.00    +0.000 A 
ATOM     12  C   UNL     1       6.636   5.964  17.624  0.00  0.00    +0.000 C 
ATOM     13  C   UNL     1       7.592   5.171  18.521  0.00  0.00    +0.000 C 
ATOM     14  N   UNL     1       5.252   5.932  18.145  0.00  0.00    +0.000 NA
ATOM     15  H   UNL     1       8.309   6.353  15.324  0.00  0.00    +0.000 HD
ATOM     16  H   UNL     1       4.692   6.571  17.571  0.00  0.00    +0.000 HD
ENDROOT
BRANCH   1  17
ATOM     17  C   UNL     1       3.199   4.543  18.536  0.00  0.00    +0.000 C 
ATOM     18  O   UNL     1       2.221   4.378  17.810  0.00  0.00    +0.000 OA
BRANCH  17  19
ATOM     19  O   UNL     1       3.131   4.832  19.868  0.00  0.00    +0.000 OA
BRANCH  19  21
ATOM     20  C   UNL     1       2.241   7.086  19.948  0.00  0.00    +0.000 C 
ATOM     21  C   UNL     1       1.996   5.621  20.262  0.00  0.00    +0.000 C 
ENDBRANCH  19  21
ENDBRANCH  17  19
ENDBRANCH   1  17
TORSDOF 3
ENDMDL
MODEL 5
REMARK VINA RESULT:      -7.4      1.144      1.187
REMARK  Name = 
REMARK  5 active torsions:
REMARK  status: ('A' for Active; 'I' for Inactive)
REMARK    1  A    between atoms: C_1  and  C_2
REMARK    2  A    between atoms: C_2  and  O_3
REMARK    3  A    between atoms: O_3  and  C_4
REMARK    4  A    between atoms: C_4  and  C_6
REMARK    5  A    between atoms: C_17  and  C_18
REMARK                            x       y       z     vdW  Elec       q    Type
REMARK                         _______ _______ _______ _____ _____    ______ ____
ROOT
ATOM      1  C   UNL     1       5.875   5.237  15.536  0.00  0.00    +0.000 C 
ATOM      2  C   UNL     1       4.774   4.194  15.863  0.00  0.00    +0.000 C 
ATOM      3  C   UNL     1       4.301   4.318  17.270  0.00  0.00    +0.000 A 
ATOM      4  C   UNL     1       4.843   5.239  18.139  0.00  0.00    +0.000 A 
ATOM      5  N   UNL     1       4.225   5.097  19.353  0.00  0.00    +0.000 N 
ATOM      6  C   UNL     1       3.288   4.085  19.280  0.00  0.00    +0.000 A 
ATOM      7  C   UNL     1       2.421   3.577  20.257  0.00  0.00    +0.000 A 
ATOM      8  C   UNL     1       1.572   2.527  19.889  0.00  0.00    +0.000 A 
ATOM      9  C   UNL     1       1.588   2.005  18.597  0.00  0.00    +0.000 A 
ATOM     10  C   UNL     1       2.458   2.522  17.633  0.00  0.00    +0.000 A 
ATOM     11  C   UNL     1       3.320   3.580  17.977  0.00  0.00    +0.000 A 
ATOM     12  C   UNL     1       5.913   6.219  17.803  0.00  0.00    +0.000 C 
ATOM     13  C   UNL     1       5.313   7.579  17.432  0.00  0.00    +0.000 C 
ATOM     14  N   UNL     1       6.726   5.666  16.697  0.00  0.00    +0.000 NA
ATOM     15  H   UNL     1       4.417   5.640  20.183  0.00  0.00    +0.000 HD
ATOM     16  H   UNL     1       7.190   4.822  17.049  0.00  0.00    +0.000 HD
ENDROOT
BRANCH   1  17
ATOM     17  C   UNL     1       6.716   4.660  14.399  0.00  0.00    +0.000 C 
ATOM     18  O   UNL     1       7.746   5.194  13.994  0.00  0.00    +0.000 OA
BRANCH  17  19
ATOM     19  O   UNL     1       6.137   3.566  13.824  0.00  0.00    +0.000 OA
BRANCH  19  21
ATOM     20  C   UNL     1       4.806   3.317  11.812  0.00  0.00    +0.000 C 
ATOM     21  C   UNL     1       6.194   3.532  12.388  0.00  0.00    +0.000 C 
ENDBRANCH  19  21
ENDBRANCH  17  19
ENDBRANCH   1  17
TORSDOF 3
ENDMDL
MODEL 6
REMARK VINA RESULT:      -7.4      1.137      1.453
REMARK  Name = 
REMARK  5 active torsions:
REMARK  status: ('A' for Active; 'I' for Inactive)
REMARK    1  A    between atoms: C_1  and  C_2
REMARK    2  A    between atoms: C_2  and  O_3
REMARK    3  A    between atoms: O_3  and  C_4
REMARK    4  A    between atoms: C_4  and  C_6
REMARK    5  A    between atoms: C_17  and  C_18
REMARK                            x       y       z     vdW  Elec       q    Type
REMARK                         _______ _______ _______ _____ _____    ______ ____
ROOT
ATOM      1  C   UNL     1       6.440   5.062  15.831  0.00  0.00    +0.000 C 
ATOM      2  C   UNL     1       4.949   4.701  16.062  0.00  0.00    +0.000 C 
ATOM      3  C   UNL     1       4.684   4.341  17.483  0.00  0.00    +0.000 A 
ATOM      4  C   UNL     1       5.691   4.311  18.423  0.00  0.00    +0.000 A 
ATOM      5  N   UNL     1       5.148   3.926  19.620  0.00  0.00    +0.000 N 
ATOM      6  C   UNL     1       3.794   3.700  19.462  0.00  0.00    +0.000 A 
ATOM      7  C   UNL     1       2.827   3.292  20.390  0.00  0.00    +0.000 A 
ATOM      8  C   UNL     1       1.513   3.138  19.934  0.00  0.00    +0.000 A 
ATOM      9  C   UNL     1       1.178   3.383  18.603  0.00  0.00    +0.000 A 
ATOM     10  C   UNL     1       2.153   3.791  17.689  0.00  0.00    +0.000 A 
ATOM     11  C   UNL     1       3.482   3.955  18.124  0.00  0.00    +0.000 A 
ATOM     12  C   UNL     1       7.120   4.646  18.170  0.00  0.00    +0.000 C 
ATOM     13  C   UNL     1       7.415   6.103  18.544  0.00  0.00    +0.000 C 
ATOM     14  N   UNL     1       7.419   4.383  16.745  0.00  0.00    +0.000 NA
ATOM     15  H   UNL     1       5.649   3.818  20.490  0.00  0.00    +0.000 HD
ATOM     16  H   UNL     1       7.315   3.375  16.590  0.00  0.00    +0.000 HD
ENDROOT
BRANCH   1  17
ATOM     17  C   UNL     1       6.747   4.782  14.361  0.00  0.00    +0.000 C 
ATOM     18  O   UNL     1       6.221   3.866  13.733  0.00  0.00    +0.000 OA
BRANCH  17  19
ATOM     19  O   UNL     1       7.740   5.581  13.873  0.00  0.00    +0.000 OA
BRANCH  19  21
ATOM     20  C   UNL     1       7.869   6.278  11.554  0.00  0.00    +0.000 C 
ATOM     21  C   UNL     1       8.233   5.214  12.574  0.00  0.00    +0.000 C 
ENDBRANCH  19  21
ENDBRANCH  17  19
ENDBRANCH   1  17
TORSDOF 3
ENDMDL
MODEL 7
REMARK VINA RESULT:      -7.2      2.865      5.782
REMARK  Name = 
REMARK  5 active torsions:
REMARK  status: ('A' for Active; 'I' for Inactive)
REMARK    1  A    between atoms: C_1  and  C_2
REMARK    2  A    between atoms: C_2  and  O_3
REMARK    3  A    between atoms: O_3  and  C_4
REMARK    4  A    between atoms: C_4  and  C_6
REMARK    5  A    between atoms: C_17  and  C_18
REMARK                            x       y       z     vdW  Elec       q    Type
REMARK                         _______ _______ _______ _____ _____    ______ ____
ROOT
ATOM      1  C   UNL     1       4.791   4.943  18.049  0.00  0.00    +0.000 C 
ATOM      2  C   UNL     1       4.598   4.324  16.641  0.00  0.00    +0.000 C 
ATOM      3  C   UNL     1       5.731   4.660  15.733  0.00  0.00    +0.000 A 
ATOM      4  C   UNL     1       6.772   5.465  16.141  0.00  0.00    +0.000 A 
ATOM      5  N   UNL     1       7.637   5.611  15.089  0.00  0.00    +0.000 N 
ATOM      6  C   UNL     1       7.161   4.911  13.998  0.00  0.00    +0.000 A 
ATOM      7  C   UNL     1       7.691   4.767  12.709  0.00  0.00    +0.000 A 
ATOM      8  C   UNL     1       6.973   3.990  11.794  0.00  0.00    +0.000 A 
ATOM      9  C   UNL     1       5.772   3.379  12.152  0.00  0.00    +0.000 A 
ATOM     10  C   UNL     1       5.256   3.530  13.442  0.00  0.00    +0.000 A 
ATOM     11  C   UNL     1       5.961   4.306  14.381  0.00  0.00    +0.000 A 
ATOM     12  C   UNL     1       6.923   6.062  17.497  0.00  0.00    +0.000 C 
ATOM     13  C   UNL     1       7.828   5.195  18.379  0.00  0.00    +0.000 C 
ATOM     14  N   UNL     1       5.578   6.221  18.092  0.00  0.00    +0.000 NA
ATOM     15  H   UNL     1       8.494   6.147  15.096  0.00  0.00    +0.000 HD
ATOM     16  H   UNL     1       5.067   6.900  17.520  0.00  0.00    +0.000 HD
ENDROOT
BRANCH   1  17
ATOM     17  C   UNL     1       3.400   5.113  18.658  0.00  0.00    +0.000 C 
ATOM     18  O   UNL     1       2.617   4.178  18.804  0.00  0.00    +0.000 OA
BRANCH  17  19
ATOM     19  O   UNL     1       3.096   6.420  18.909  0.00  0.00    +0.000 OA
BRANCH  19  21
ATOM     20  C   UNL     1       2.391   8.535  17.955  0.00  0.00    +0.000 C 
ATOM     21  C   UNL     1       2.201   7.028  17.963  0.00  0.00    +0.000 C 
ENDBRANCH  19  21
ENDBRANCH  17  19
ENDBRANCH   1  17
TORSDOF 3
ENDMDL
MODEL 8
REMARK VINA RESULT:      -7.1      1.449      1.797
REMARK  Name = 
REMARK  5 active torsions:
REMARK  status: ('A' for Active; 'I' for Inactive)
REMARK    1  A    between atoms: C_1  and  C_2
REMARK    2  A    between atoms: C_2  and  O_3
REMARK    3  A    between atoms: O_3  and  C_4
REMARK    4  A    between atoms: C_4  and  C_6
REMARK    5  A    between atoms: C_17  and  C_18
REMARK                            x       y       z     vdW  Elec       q    Type
REMARK                         _______ _______ _______ _____ _____    ______ ____
ROOT
ATOM      1  C   UNL     1       5.431   5.510  16.749  0.00  0.00    +0.000 C 
ATOM      2  C   UNL     1       3.986   5.214  17.228  0.00  0.00    +0.000 C 
ATOM      3  C   UNL     1       3.976   4.425  18.491  0.00  0.00    +0.000 A 
ATOM      4  C   UNL     1       5.142   4.002  19.091  0.00  0.00    +0.000 A 
ATOM      5  N   UNL     1       4.812   3.286  20.211  0.00  0.00    +0.000 N 
ATOM      6  C   UNL     1       3.437   3.236  20.340  0.00  0.00    +0.000 A 
ATOM      7  C   UNL     1       2.637   2.622  21.312  0.00  0.00    +0.000 A 
ATOM      8  C   UNL     1       1.249   2.736  21.179  0.00  0.00    +0.000 A 
ATOM      9  C   UNL     1       0.682   3.436  20.115  0.00  0.00    +0.000 A 
ATOM     10  C   UNL     1       1.492   4.045  19.153  0.00  0.00    +0.000 A 
ATOM     11  C   UNL     1       2.891   3.947  19.267  0.00  0.00    +0.000 A 
ATOM     12  C   UNL     1       6.519   4.285  18.599  0.00  0.00    +0.000 C 
ATOM     13  C   UNL     1       7.114   5.505  19.311  0.00  0.00    +0.000 C 
ATOM     14  N   UNL     1       6.462   4.488  17.134  0.00  0.00    +0.000 NA
ATOM     15  H   UNL     1       5.462   2.854  20.851  0.00  0.00    +0.000 HD
ATOM     16  H   UNL     1       6.168   3.601  16.713  0.00  0.00    +0.000 HD
ENDROOT
BRANCH   1  17
ATOM     17  C   UNL     1       5.370   5.711  15.236  0.00  0.00    +0.000 C 
ATOM     18  O   UNL     1       5.267   6.818  14.714  0.00  0.00    +0.000 OA
BRANCH  17  19
ATOM     19  O   UNL     1       5.329   4.530  14.553  0.00  0.00    +0.000 OA
BRANCH  19  21
ATOM     20  C   UNL     1       6.069   3.435  12.519  0.00  0.00    +0.000 C 
ATOM     21  C   UNL     1       6.473   4.267  13.724  0.00  0.00    +0.000 C 
ENDBRANCH  19  21
ENDBRANCH  17  19
ENDBRANCH   1  17
TORSDOF 3
ENDMDL
MODEL 9
REMARK VINA RESULT:      -7.1      2.623      2.764
REMARK  Name = 
REMARK  5 active torsions:
REMARK  status: ('A' for Active; 'I' for Inactive)
REMARK    1  A    between atoms: C_1  and  C_2
REMARK    2  A    between atoms: C_2  and  O_3
REMARK    3  A    between atoms: O_3  and  C_4
REMARK    4  A    between atoms: C_4  and  C_6
REMARK    5  A    between atoms: C_17  and  C_18
REMARK                            x       y       z     vdW  Elec       q    Type
REMARK                         _______ _______ _______ _____ _____    ______ ____
ROOT
ATOM      1  C   UNL     1       6.680   5.343  15.889  0.00  0.00    +0.000 C 
ATOM      2  C   UNL     1       5.482   6.325  15.964  0.00  0.00    +0.000 C 
ATOM      3  C   UNL     1       4.806   6.267  17.290  0.00  0.00    +0.000 A 
ATOM      4  C   UNL     1       5.216   5.395  18.275  0.00  0.00    +0.000 A 
ATOM      5  N   UNL     1       4.393   5.557  19.358  0.00  0.00    +0.000 N 
ATOM      6  C   UNL     1       3.447   6.525  19.081  0.00  0.00    +0.000 A 
ATOM      7  C   UNL     1       2.402   7.026  19.869  0.00  0.00    +0.000 A 
ATOM      8  C   UNL     1       1.586   8.017  19.311  0.00  0.00    +0.000 A 
ATOM      9  C   UNL     1       1.806   8.488  18.018  0.00  0.00    +0.000 A 
ATOM     10  C   UNL     1       2.852   7.980  17.244  0.00  0.00    +0.000 A 
ATOM     11  C   UNL     1       3.688   6.984  17.783  0.00  0.00    +0.000 A 
ATOM     12  C   UNL     1       6.361   4.449  18.170  0.00  0.00    +0.000 C 
ATOM     13  C   UNL     1       7.626   5.050  18.790  0.00  0.00    +0.000 C 
ATOM     14  N   UNL     1       6.563   4.113  16.744  0.00  0.00    +0.000 NA
ATOM     15  H   UNL     1       4.456   5.051  20.231  0.00  0.00    +0.000 HD
ATOM     16  H   UNL     1       5.728   3.612  16.424  0.00  0.00    +0.000 HD
ENDROOT
BRANCH   1  17
ATOM     17  C   UNL     1       6.882   4.992  14.416  0.00  0.00    +0.000 C 
ATOM     18  O   UNL     1       7.792   5.462  13.737  0.00  0.00    +0.000 OA
BRANCH  17  19
ATOM     19  O   UNL     1       5.883   4.202  13.925  0.00  0.00    +0.000 OA
BRANCH  19  21
ATOM     20  C   UNL     1       4.884   3.256  11.928  0.00  0.00    +0.000 C 
ATOM     21  C   UNL     1       6.173   3.565  12.670  0.00  0.00    +0.000 C 
ENDBRANCH  19  21
ENDBRANCH  17  19
ENDBRANCH   1  17
TORSDOF 3
ENDMDL
