MODEL 1
REMARK VINA RESULT:      -8.0      0.000      0.000
REMARK  Name = 
REMARK  6 active torsions:
REMARK  status: ('A' for Active; 'I' for Inactive)
REMARK    1  A    between atoms: C_1  and  C_2
REMARK    2  A    between atoms: C_2  and  O_4
REMARK    3  A    between atoms: O_4  and  C_5
REMARK    4  A    between atoms: C_8  and  C_9
REMARK    5  A    between atoms: C_17  and  C_18
REMARK    6  A    between atoms: C_18  and  O_20
REMARK                            x       y       z     vdW  Elec       q    Type
REMARK                         _______ _______ _______ _____ _____    ______ ____
ROOT
ATOM      1  C   UNL     1       4.825   4.613  16.738  0.00  0.00    +0.000 A 
ATOM      2  C   UNL     1       5.135   5.971  16.605  0.00  0.00    +0.000 A 
ATOM      3  C   UNL     1       4.350   6.939  17.228  0.00  0.00    +0.000 A 
ATOM      4  C   UNL     1       3.199   6.596  17.950  0.00  0.00    +0.000 A 
ATOM      5  C   UNL     1       2.882   5.224  18.036  0.00  0.00    +0.000 A 
ATOM      6  C   UNL     1       3.682   4.221  17.445  0.00  0.00    +0.000 A 
ENDROOT
BRANCH   4   7
ATOM      7  C   UNL     1       2.358   7.642  18.583  0.00  0.00    +0.000 A 
ATOM      8  C   UNL     1       1.890   8.750  17.845  0.00  0.00    +0.000 A 
ATOM      9  C   UNL     1       1.126   9.757  18.438  0.00  0.00    +0.000 A 
ATOM     10  C   UNL     1       0.798   9.662  19.780  0.00  0.00    +0.000 A 
ATOM     11  F   UNL     1       0.061  10.622  20.352  0.00  0.00    +0.000 F 
ATOM     12  C   UNL     1       1.227   8.583  20.537  0.00  0.00    +0.000 A 
ATOM     13  C   UNL     1       2.007   7.584  19.945  0.00  0.00    +0.000 A 
ENDBRANCH   4   7
BRANCH   6  14
ATOM     14  C   UNL     1       3.211   2.812  17.629  0.00  0.00    +0.000 C 
ATOM     15  O   UNL     1       2.045   2.490  17.463  0.00  0.00    +0.000 OA
BRANCH  14  16
ATOM     16  O   UNL     1       4.146   1.918  17.999  0.00  0.00    +0.000 OA
ATOM     17  H   UNL     1       5.060   2.188  17.812  0.00  0.00    +0.000 HD
ENDBRANCH  14  16
ENDBRANCH   6  14
BRANCH   1  18
ATOM     18  O   UNL     1       5.607   3.675  16.032  0.00  0.00    +0.000 OA
BRANCH  18  20
ATOM     19  C   UNL     1       6.047   3.988  13.726  0.00  0.00    +0.000 C 
ATOM     20  C   UNL     1       6.537   4.197  15.126  0.00  0.00    +0.000 C 
ATOM     21  O   UNL     1       7.596   4.734  15.415  0.00  0.00    +0.000 OA
ENDBRANCH  18  20
ENDBRANCH   1  18
TORSDOF 5
ENDMDL
MODEL 2
REMARK VINA RESULT:      -7.9      0.464      1.171
REMARK  Name = 
REMARK  6 active torsions:
REMARK  status: ('A' for Active; 'I' for Inactive)
REMARK    1  A    between atoms: C_1  and  C_2
REMARK    2  A    between atoms: C_2  and  O_4
REMARK    3  A    between atoms: O_4  and  C_5
REMARK    4  A    between atoms: C_8  and  C_9
REMARK    5  A    between atoms: C_17  and  C_18
REMARK    6  A    between atoms: C_18  and  O_20
REMARK                            x       y       z     vdW  Elec       q    Type
REMARK                         _______ _______ _______ _____ _____    ______ ____
ROOT
ATOM      1  C   UNL     1       4.793   4.871  16.664  0.00  0.00    +0.000 A 
ATOM      2  C   UNL     1       5.064   6.241  16.574  0.00  0.00    +0.000 A 
ATOM      3  C   UNL     1       4.269   7.164  17.250  0.00  0.00    +0.000 A 
ATOM      4  C   UNL     1       3.145   6.764  17.986  0.00  0.00    +0.000 A 
ATOM      5  C   UNL     1       2.868   5.381  18.028  0.00  0.00    +0.000 A 
ATOM      6  C   UNL     1       3.679   4.422  17.382  0.00  0.00    +0.000 A 
ENDROOT
BRANCH   4   7
ATOM      7  C   UNL     1       2.294   7.762  18.676  0.00  0.00    +0.000 A 
ATOM      8  C   UNL     1       1.977   7.632  20.045  0.00  0.00    +0.000 A 
ATOM      9  C   UNL     1       1.149   8.549  20.698  0.00  0.00    +0.000 A 
ATOM     10  C   UNL     1       0.638   9.626  19.993  0.00  0.00    +0.000 A 
ATOM     11  F   UNL     1      -0.151  10.510  20.615  0.00  0.00    +0.000 F 
ATOM     12  C   UNL     1       0.936   9.798  18.651  0.00  0.00    +0.000 A 
ATOM     13  C   UNL     1       1.752   8.869  17.996  0.00  0.00    +0.000 A 
ENDBRANCH   4   7
BRANCH   6  14
ATOM     14  C   UNL     1       3.249   2.995  17.525  0.00  0.00    +0.000 C 
ATOM     15  O   UNL     1       2.085   2.653  17.402  0.00  0.00    +0.000 OA
BRANCH  14  16
ATOM     16  O   UNL     1       4.222   2.109  17.808  0.00  0.00    +0.000 OA
ATOM     17  H   UNL     1       4.266   1.843  18.741  0.00  0.00    +0.000 HD
ENDBRANCH  14  16
ENDBRANCH   6  14
BRANCH   1  18
ATOM     18  O   UNL     1       5.583   3.981  15.906  0.00  0.00    +0.000 OA
BRANCH  18  20
ATOM     19  C   UNL     1       7.019   4.738  14.181  0.00  0.00    +0.000 C 
ATOM     20  C   UNL     1       6.893   4.390  15.633  0.00  0.00    +0.000 C 
ATOM     21  O   UNL     1       7.809   4.449  16.440  0.00  0.00    +0.000 OA
ENDBRANCH  18  20
ENDBRANCH   1  18
TORSDOF 5
ENDMDL
MODEL 3
REMARK VINA RESULT:      -7.8      1.223      1.432
REMARK  Name = 
REMARK  6 active torsions:
REMARK  status: ('A' for Active; 'I' for Inactive)
REMARK    1  A    between atoms: C_1  and  C_2
REMARK    2  A    between atoms: C_2  and  O_4
REMARK    3  A    between atoms: O_4  and  C_5
REMARK    4  A    between atoms: C_8  and  C_9
REMARK    5  A    between atoms: C_17  and  C_18
REMARK    6  A    between atoms: C_18  and  O_20
REMARK                            x       y       z     vdW  Elec       q    Type
REMARK                         _______ _______ _______ _____ _____    ______ ____
ROOT
ATOM      1  C   UNL     1       4.859   5.081  17.332  0.00  0.00    +0.000 A 
ATOM      2  C   UNL     1       4.758   6.349  16.749  0.00  0.00    +0.000 A 
ATOM      3  C   UNL     1       3.881   7.298  17.269  0.00  0.00    +0.000 A 
ATOM      4  C   UNL     1       3.032   7.001  18.344  0.00  0.00    +0.000 A 
ATOM      5  C   UNL     1       3.121   5.703  18.889  0.00  0.00    +0.000 A 
ATOM      6  C   UNL     1       4.029   4.735  18.404  0.00  0.00    +0.000 A 
ENDROOT
BRANCH   4   7
ATOM      7  C   UNL     1       2.084   8.015  18.867  0.00  0.00    +0.000 A 
ATOM      8  C   UNL     1       1.555   9.021  18.031  0.00  0.00    +0.000 A 
ATOM      9  C   UNL     1       0.686  10.000  18.520  0.00  0.00    +0.000 A 
ATOM     10  C   UNL     1       0.316   9.976  19.854  0.00  0.00    +0.000 A 
ATOM     11  F   UNL     1      -0.520  10.908  20.326  0.00  0.00    +0.000 F 
ATOM     12  C   UNL     1       0.803   8.997  20.705  0.00  0.00    +0.000 A 
ATOM     13  C   UNL     1       1.685   8.028  20.217  0.00  0.00    +0.000 A 
ENDBRANCH   4   7
BRANCH   6  14
ATOM     14  C   UNL     1       4.000   3.406  19.092  0.00  0.00    +0.000 C 
ATOM     15  O   UNL     1       2.957   2.874  19.435  0.00  0.00    +0.000 OA
BRANCH  14  16
ATOM     16  O   UNL     1       5.196   2.833  19.323  0.00  0.00    +0.000 OA
ATOM     17  H   UNL     1       5.178   1.863  19.362  0.00  0.00    +0.000 HD
ENDBRANCH  14  16
ENDBRANCH   6  14
BRANCH   1  18
ATOM     18  O   UNL     1       5.710   4.132  16.728  0.00  0.00    +0.000 OA
BRANCH  18  20
ATOM     19  C   UNL     1       7.742   4.636  17.834  0.00  0.00    +0.000 C 
ATOM     20  C   UNL     1       7.035   4.528  16.519  0.00  0.00    +0.000 C 
ATOM     21  O   UNL     1       7.549   4.767  15.436  0.00  0.00    +0.000 OA
ENDBRANCH  18  20
ENDBRANCH   1  18
TORSDOF 5
ENDMDL
MODEL 4
REMARK VINA RESULT:      -7.7      1.226      1.783
REMARK  Name = 
REMARK  6 active torsions:
REMARK  status: ('A' for Active; 'I' for Inactive)
REMARK    1  A    between atoms: C_1  and  C_2
REMARK    2  A    between atoms: C_2  and  O_4
REMARK    3  A    between atoms: O_4  and  C_5
REMARK    4  A    between atoms: C_8  and  C_9
REMARK    5  A    between atoms: C_17  and  C_18
REMARK    6  A    between atoms: C_18  and  O_20
REMARK                            x       y       z     vdW  Elec       q    Type
REMARK                         _______ _______ _______ _____ _____    ______ ____
ROOT
ATOM      1  C   UNL     1       4.808   5.226  17.268  0.00  0.00    +0.000 A 
ATOM      2  C   UNL     1       4.680   6.527  16.770  0.00  0.00    +0.000 A 
ATOM      3  C   UNL     1       3.809   7.432  17.373  0.00  0.00    +0.000 A 
ATOM      4  C   UNL     1       2.993   7.058  18.450  0.00  0.00    +0.000 A 
ATOM      5  C   UNL     1       3.108   5.728  18.908  0.00  0.00    +0.000 A 
ATOM      6  C   UNL     1       4.010   4.803  18.338  0.00  0.00    +0.000 A 
ENDROOT
BRANCH   4   7
ATOM      7  C   UNL     1       2.050   8.026  19.061  0.00  0.00    +0.000 A 
ATOM      8  C   UNL     1       1.616   7.880  20.396  0.00  0.00    +0.000 A 
ATOM      9  C   UNL     1       0.703   8.766  20.972  0.00  0.00    +0.000 A 
ATOM     10  C   UNL     1       0.224   9.830  20.226  0.00  0.00    +0.000 A 
ATOM     11  F   UNL     1      -0.647  10.685  20.775  0.00  0.00    +0.000 F 
ATOM     12  C   UNL     1       0.635  10.016  18.916  0.00  0.00    +0.000 A 
ATOM     13  C   UNL     1       1.537   9.117  18.336  0.00  0.00    +0.000 A 
ENDBRANCH   4   7
BRANCH   6  14
ATOM     14  C   UNL     1       4.013   3.432  18.940  0.00  0.00    +0.000 C 
ATOM     15  O   UNL     1       2.983   2.862  19.260  0.00  0.00    +0.000 OA
BRANCH  14  16
ATOM     16  O   UNL     1       5.221   2.867  19.120  0.00  0.00    +0.000 OA
ATOM     17  H   UNL     1       5.730   2.734  18.304  0.00  0.00    +0.000 HD
ENDBRANCH  14  16
ENDBRANCH   6  14
BRANCH   1  18
ATOM     18  O   UNL     1       5.650   4.325  16.582  0.00  0.00    +0.000 OA
BRANCH  18  20
ATOM     19  C   UNL     1       7.731   4.589  17.682  0.00  0.00    +0.000 C 
ATOM     20  C   UNL     1       6.976   4.732  16.397  0.00  0.00    +0.000 C 
ATOM     21  O   UNL     1       7.457   5.154  15.356  0.00  0.00    +0.000 OA
ENDBRANCH  18  20
ENDBRANCH   1  18
TORSDOF 5
ENDMDL
MODEL 5
REMARK VINA RESULT:      -7.5      0.810      1.260
REMARK  Name = 
REMARK  6 active torsions:
REMARK  status: ('A' for Active; 'I' for Inactive)
REMARK    1  A    between atoms: C_1  and  C_2
REMARK    2  A    between atoms: C_2  and  O_4
REMARK    3  A    between atoms: O_4  and  C_5
REMARK    4  A    between atoms: C_8  and  C_9
REMARK    5  A    between atoms: C_17  and  C_18
REMARK    6  A    between atoms: C_18  and  O_20
REMARK                            x       y       z     vdW  Elec       q    Type
REMARK                         _______ _______ _______ _____ _____    ______ ____
ROOT
ATOM      1  C   UNL     1       4.751   5.179  16.816  0.00  0.00    +0.000 A 
ATOM      2  C   UNL     1       4.939   6.556  16.654  0.00  0.00    +0.000 A 
ATOM      3  C   UNL     1       4.095   7.464  17.290  0.00  0.00    +0.000 A 
ATOM      4  C   UNL     1       3.003   7.037  18.058  0.00  0.00    +0.000 A 
ATOM      5  C   UNL     1       2.808   5.644  18.173  0.00  0.00    +0.000 A 
ATOM      6  C   UNL     1       3.671   4.703  17.568  0.00  0.00    +0.000 A 
ENDROOT
BRANCH   4   7
ATOM      7  C   UNL     1       2.098   8.018  18.705  0.00  0.00    +0.000 A 
ATOM      8  C   UNL     1       1.516   9.072  17.969  0.00  0.00    +0.000 A 
ATOM      9  C   UNL     1       0.688  10.020  18.574  0.00  0.00    +0.000 A 
ATOM     10  C   UNL     1       0.412   9.917  19.928  0.00  0.00    +0.000 A 
ATOM     11  F   UNL     1      -0.385  10.820  20.512  0.00  0.00    +0.000 F 
ATOM     12  C   UNL     1       0.953   8.889  20.683  0.00  0.00    +0.000 A 
ATOM     13  C   UNL     1       1.795   7.950  20.077  0.00  0.00    +0.000 A 
ENDBRANCH   4   7
BRANCH   6  14
ATOM     14  C   UNL     1       3.328   3.262  17.788  0.00  0.00    +0.000 C 
ATOM     15  O   UNL     1       3.983   2.543  18.525  0.00  0.00    +0.000 OA
BRANCH  14  16
ATOM     16  O   UNL     1       2.258   2.799  17.115  0.00  0.00    +0.000 OA
ATOM     17  H   UNL     1       1.440   3.300  17.264  0.00  0.00    +0.000 HD
ENDBRANCH  14  16
ENDBRANCH   6  14
BRANCH   1  18
ATOM     18  O   UNL     1       5.587   4.299  16.097  0.00  0.00    +0.000 OA
BRANCH  18  20
ATOM     19  C   UNL     1       7.518   4.488  17.455  0.00  0.00    +0.000 C 
ATOM     20  C   UNL     1       6.949   4.615  16.075  0.00  0.00    +0.000 C 
ATOM     21  O   UNL     1       7.591   4.956  15.092  0.00  0.00    +0.000 OA
ENDBRANCH  18  20
ENDBRANCH   1  18
TORSDOF 5
ENDMDL
MODEL 6
REMARK VINA RESULT:      -7.4      3.999      6.763
REMARK  Name = 
REMARK  6 active torsions:
REMARK  status: ('A' for Active; 'I' for Inactive)
REMARK    1  A    between atoms: C_1  and  C_2
REMARK    2  A    between atoms: C_2  and  O_4
REMARK    3  A    between atoms: O_4  and  C_5
REMARK    4  A    between atoms: C_8  and  C_9
REMARK    5  A    between atoms: C_17  and  C_18
REMARK    6  A    between atoms: C_18  and  O_20
REMARK                            x       y       z     vdW  Elec       q    Type
REMARK                         _______ _______ _______ _____ _____    ______ ____
ROOT
ATOM      1  C   UNL     1       3.381   4.843  19.826  0.00  0.00    +0.000 A 
ATOM      2  C   UNL     1       4.131   3.716  19.472  0.00  0.00    +0.000 A 
ATOM      3  C   UNL     1       4.835   3.686  18.270  0.00  0.00    +0.000 A 
ATOM      4  C   UNL     1       4.769   4.745  17.354  0.00  0.00    +0.000 A 
ATOM      5  C   UNL     1       3.972   5.852  17.713  0.00  0.00    +0.000 A 
ATOM      6  C   UNL     1       3.279   5.924  18.942  0.00  0.00    +0.000 A 
ENDROOT
BRANCH   4   7
ATOM      7  C   UNL     1       5.502   4.683  16.066  0.00  0.00    +0.000 A 
ATOM      8  C   UNL     1       6.772   5.281  15.918  0.00  0.00    +0.000 A 
ATOM      9  C   UNL     1       7.457   5.257  14.701  0.00  0.00    +0.000 A 
ATOM     10  C   UNL     1       6.889   4.615  13.613  0.00  0.00    +0.000 A 
ATOM     11  F   UNL     1       7.544   4.585  12.446  0.00  0.00    +0.000 F 
ATOM     12  C   UNL     1       5.649   4.005  13.720  0.00  0.00    +0.000 A 
ATOM     13  C   UNL     1       4.959   4.044  14.936  0.00  0.00    +0.000 A 
ENDBRANCH   4   7
BRANCH   6  14
ATOM     14  C   UNL     1       2.480   7.168  19.173  0.00  0.00    +0.000 C 
ATOM     15  O   UNL     1       2.135   7.898  18.258  0.00  0.00    +0.000 OA
BRANCH  14  16
ATOM     16  O   UNL     1       2.170   7.444  20.454  0.00  0.00    +0.000 OA
ATOM     17  H   UNL     1       2.835   7.970  20.926  0.00  0.00    +0.000 HD
ENDBRANCH  14  16
ENDBRANCH   6  14
BRANCH   1  18
ATOM     18  O   UNL     1       2.630   4.800  21.019  0.00  0.00    +0.000 OA
BRANCH  18  20
ATOM     19  C   UNL     1       0.786   3.530  20.246  0.00  0.00    +0.000 C 
ATOM     20  C   UNL     1       1.894   3.633  21.249  0.00  0.00    +0.000 C 
ATOM     21  O   UNL     1       2.102   2.816  22.134  0.00  0.00    +0.000 OA
ENDBRANCH  18  20
ENDBRANCH   1  18
TORSDOF 5
ENDMDL
MODEL 7
REMARK VINA RESULT:      -7.4      4.048      6.675
REMARK  Name = 
REMARK  6 active torsions:
REMARK  status: ('A' for Active; 'I' for Inactive)
REMARK    1  A    between atoms: C_1  and  C_2
REMARK    2  A    between atoms: C_2  and  O_4
REMARK    3  A    between atoms: O_4  and  C_5
REMARK    4  A    between atoms: C_8  and  C_9
REMARK    5  A    between atoms: C_17  and  C_18
REMARK    6  A    between atoms: C_18  and  O_20
REMARK                            x       y       z     vdW  Elec       q    Type
REMARK                         _______ _______ _______ _____ _____    ______ ____
ROOT
ATOM      1  C   UNL     1       3.999   4.911  18.764  0.00  0.00    +0.000 A 
ATOM      2  C   UNL     1       4.307   6.039  17.997  0.00  0.00    +0.000 A 
ATOM      3  C   UNL     1       4.861   5.900  16.726  0.00  0.00    +0.000 A 
ATOM      4  C   UNL     1       5.184   4.641  16.201  0.00  0.00    +0.000 A 
ATOM      5  C   UNL     1       4.904   3.519  17.010  0.00  0.00    +0.000 A 
ATOM      6  C   UNL     1       4.308   3.632  18.286  0.00  0.00    +0.000 A 
ENDROOT
BRANCH   4   7
ATOM      7  C   UNL     1       5.800   4.512  14.858  0.00  0.00    +0.000 A 
ATOM      8  C   UNL     1       5.184   3.754  13.840  0.00  0.00    +0.000 A 
ATOM      9  C   UNL     1       5.771   3.599  12.582  0.00  0.00    +0.000 A 
ATOM     10  C   UNL     1       6.980   4.220  12.314  0.00  0.00    +0.000 A 
ATOM     11  F   UNL     1       7.544   4.079  11.109  0.00  0.00    +0.000 F 
ATOM     12  C   UNL     1       7.612   4.984  13.283  0.00  0.00    +0.000 A 
ATOM     13  C   UNL     1       7.029   5.123  14.547  0.00  0.00    +0.000 A 
ENDBRANCH   4   7
BRANCH   6  14
ATOM     14  C   UNL     1       4.073   2.347  19.017  0.00  0.00    +0.000 C 
ATOM     15  O   UNL     1       3.186   1.571  18.699  0.00  0.00    +0.000 OA
BRANCH  14  16
ATOM     16  O   UNL     1       4.892   2.098  20.056  0.00  0.00    +0.000 OA
ATOM     17  H   UNL     1       4.458   1.693  20.824  0.00  0.00    +0.000 HD
ENDBRANCH  14  16
ENDBRANCH   6  14
BRANCH   1  18
ATOM     18  O   UNL     1       3.504   5.104  20.071  0.00  0.00    +0.000 OA
BRANCH  18  20
ATOM     19  C   UNL     1       1.240   4.427  20.229  0.00  0.00    +0.000 C 
ATOM     20  C   UNL     1       2.193   5.581  20.176  0.00  0.00    +0.000 C 
ATOM     21  O   UNL     1       1.858   6.756  20.207  0.00  0.00    +0.000 OA
ENDBRANCH  18  20
ENDBRANCH   1  18
TORSDOF 5
ENDMDL
MODEL 8
REMARK VINA RESULT:      -7.4      4.001      6.731
REMARK  Name = 
REMARK  6 active torsions:
REMARK  status: ('A' for Active; 'I' for Inactive)
REMARK    1  A    between atoms: C_1  and  C_2
REMARK    2  A    between atoms: C_2  and  O_4
REMARK    3  A    between atoms: O_4  and  C_5
REMARK    4  A    between atoms: C_8  and  C_9
REMARK    5  A    between atoms: C_17  and  C_18
REMARK    6  A    between atoms: C_18  and  O_20
REMARK                            x       y       z     vdW  Elec       q    Type
REMARK                         _______ _______ _______ _____ _____    ______ ____
ROOT
ATOM      1  C   UNL     1       3.261   4.836  19.925  0.00  0.00    +0.000 A 
ATOM      2  C   UNL     1       3.999   3.712  19.539  0.00  0.00    +0.000 A 
ATOM      3  C   UNL     1       4.734   3.721  18.355  0.00  0.00    +0.000 A 
ATOM      4  C   UNL     1       4.711   4.821  17.486  0.00  0.00    +0.000 A 
ATOM      5  C   UNL     1       3.926   5.926  17.876  0.00  0.00    +0.000 A 
ATOM      6  C   UNL     1       3.202   5.957  19.089  0.00  0.00    +0.000 A 
ENDROOT
BRANCH   4   7
ATOM      7  C   UNL     1       5.475   4.802  16.216  0.00  0.00    +0.000 A 
ATOM      8  C   UNL     1       4.968   4.159  15.067  0.00  0.00    +0.000 A 
ATOM      9  C   UNL     1       5.694   4.107  13.874  0.00  0.00    +0.000 A 
ATOM     10  C   UNL     1       6.935   4.718  13.805  0.00  0.00    +0.000 A 
ATOM     11  F   UNL     1       7.632   4.675  12.664  0.00  0.00    +0.000 F 
ATOM     12  C   UNL     1       7.463   5.371  14.908  0.00  0.00    +0.000 A 
ATOM     13  C   UNL     1       6.741   5.407  16.106  0.00  0.00    +0.000 A 
ENDBRANCH   4   7
BRANCH   6  14
ATOM     14  C   UNL     1       2.420   7.205  19.356  0.00  0.00    +0.000 C 
ATOM     15  O   UNL     1       2.114   7.982  18.466  0.00  0.00    +0.000 OA
BRANCH  14  16
ATOM     16  O   UNL     1       2.083   7.429  20.639  0.00  0.00    +0.000 OA
ATOM     17  H   UNL     1       1.172   7.180  20.867  0.00  0.00    +0.000 HD
ENDBRANCH  14  16
ENDBRANCH   6  14
BRANCH   1  18
ATOM     18  O   UNL     1       2.479   4.755  21.096  0.00  0.00    +0.000 OA
BRANCH  18  20
ATOM     19  C   UNL     1       0.712   3.437  20.230  0.00  0.00    +0.000 C 
ATOM     20  C   UNL     1       1.766   3.566  21.286  0.00  0.00    +0.000 C 
ATOM     21  O   UNL     1       1.953   2.752  22.178  0.00  0.00    +0.000 OA
ENDBRANCH  18  20
ENDBRANCH   1  18
TORSDOF 5
ENDMDL
MODEL 9
REMARK VINA RESULT:      -7.3      3.774      4.707
REMARK  Name = 
REMARK  6 active torsions:
REMARK  status: ('A' for Active; 'I' for Inactive)
REMARK    1  A    between atoms: C_1  and  C_2
REMARK    2  A    between atoms: C_2  and  O_4
REMARK    3  A    between atoms: O_4  and  C_5
REMARK    4  A    between atoms: C_8  and  C_9
REMARK    5  A    between atoms: C_17  and  C_18
REMARK    6  A    between atoms: C_18  and  O_20
REMARK                            x       y       z     vdW  Elec       q    Type
REMARK                         _______ _______ _______ _____ _____    ______ ____
ROOT
ATOM      1  C   UNL     1       6.273   5.207  16.068  0.00  0.00    +0.000 A 
ATOM      2  C   UNL     1       5.268   4.282  15.767  0.00  0.00    +0.000 A 
ATOM      3  C   UNL     1       4.356   3.886  16.743  0.00  0.00    +0.000 A 
ATOM      4  C   UNL     1       4.450   4.346  18.064  0.00  0.00    +0.000 A 
ATOM      5  C   UNL     1       5.498   5.245  18.355  0.00  0.00    +0.000 A 
ATOM      6  C   UNL     1       6.412   5.692  17.374  0.00  0.00    +0.000 A 
ENDROOT
BRANCH   4   7
ATOM      7  C   UNL     1       3.489   3.892  19.098  0.00  0.00    +0.000 A 
ATOM      8  C   UNL     1       2.170   4.390  19.139  0.00  0.00    +0.000 A 
ATOM      9  C   UNL     1       1.266   3.994  20.128  0.00  0.00    +0.000 A 
ATOM     10  C   UNL     1       1.663   3.073  21.084  0.00  0.00    +0.000 A 
ATOM     11  F   UNL     1       0.799   2.686  22.030  0.00  0.00    +0.000 F 
ATOM     12  C   UNL     1       2.947   2.550  21.071  0.00  0.00    +0.000 A 
ATOM     13  C   UNL     1       3.854   2.962  20.089  0.00  0.00    +0.000 A 
ENDBRANCH   4   7
BRANCH   6  14
ATOM     14  C   UNL     1       7.465   6.647  17.844  0.00  0.00    +0.000 C 
ATOM     15  O   UNL     1       8.061   6.490  18.897  0.00  0.00    +0.000 OA
BRANCH  14  16
ATOM     16  O   UNL     1       7.710   7.699  17.042  0.00  0.00    +0.000 OA
ATOM     17  H   UNL     1       7.661   8.563  17.483  0.00  0.00    +0.000 HD
ENDBRANCH  14  16
ENDBRANCH   6  14
BRANCH   1  18
ATOM     18  O   UNL     1       7.214   5.525  15.066  0.00  0.00    +0.000 OA
BRANCH  18  20
ATOM     19  C   UNL     1       7.950   5.445  12.817  0.00  0.00    +0.000 C 
ATOM     20  C   UNL     1       7.140   4.778  13.886  0.00  0.00    +0.000 C 
ATOM     21  O   UNL     1       6.507   3.745  13.729  0.00  0.00    +0.000 OA
ENDBRANCH  18  20
ENDBRANCH   1  18
TORSDOF 5
ENDMDL
