MODEL 1
REMARK VINA RESULT:      -8.2      0.000      0.000
REMARK  Name = 
REMARK  8 active torsions:
REMARK  status: ('A' for Active; 'I' for Inactive)
REMARK    1  A    between atoms: C_2  and  C_25
REMARK    2  A    between atoms: N_3  and  C_4
REMARK    3  A    between atoms: C_7  and  C_8
REMARK    4  A    between atoms: C_8  and  C_9
REMARK    5  A    between atoms: C_9  and  N_10
REMARK    6  A    between atoms: C_12  and  C_13
REMARK    7  A    between atoms: C_22  and  C_23
REMARK    8  A    between atoms: C_23  and  O_24
REMARK                            x       y       z     vdW  Elec       q    Type
REMARK                         _______ _______ _______ _____ _____    ______ ____
ROOT
ATOM      1  C   UNL     1       4.885   4.270  17.878  0.00  0.00    +0.000 C 
ATOM      2  C   UNL     1       4.831   5.715  18.374  0.00  0.00    +0.000 C 
ATOM      3  C   UNL     1       3.566   6.419  17.901  0.00  0.00    +0.000 C 
ATOM      4  C   UNL     1       2.295   5.615  18.205  0.00  0.00    +0.000 C 
ATOM      5  O   UNL     1       2.416   4.263  17.741  0.00  0.00    +0.000 OA
ATOM      6  C   UNL     1       3.571   3.543  18.222  0.00  0.00    +0.000 C 
ENDROOT
BRANCH   1   9
ATOM      7  O   UNL     1       7.410   4.718  16.757  0.00  0.00    +0.000 OA
ATOM      8  C   UNL     1       6.481   4.456  15.995  0.00  0.00    +0.000 C 
ATOM      9  N   UNL     1       5.195   4.231  16.442  0.00  0.00    +0.000 N 
ATOM     10  H   UNL     1       4.441   4.064  15.787  0.00  0.00    +0.000 HD
BRANCH   8  11
ATOM     11  C   UNL     1       6.744   4.395  14.533  0.00  0.00    +0.000 A 
ATOM     12  C   UNL     1       7.661   5.231  13.886  0.00  0.00    +0.000 A 
ATOM     13  C   UNL     1       7.809   5.157  12.496  0.00  0.00    +0.000 A 
ATOM     14  C   UNL     1       7.043   4.255  11.749  0.00  0.00    +0.000 A 
ATOM     15  C   UNL     1       6.127   3.425  12.391  0.00  0.00    +0.000 A 
ATOM     16  C   UNL     1       5.975   3.498  13.775  0.00  0.00    +0.000 A 
ENDBRANCH   8  11
ENDBRANCH   1   9
BRANCH   4  17
ATOM     17  C   UNL     1       1.829   5.697  19.672  0.00  0.00    +0.000 C 
BRANCH  17  18
ATOM     18  C   UNL     1       2.465   6.899  20.378  0.00  0.00    +0.000 C 
BRANCH  18  19
ATOM     19  N   UNL     1       1.683   8.111  20.319  0.00  0.00    +0.000 N 
ATOM     20  C   UNL     1       0.856   8.600  21.277  0.00  0.00    +0.000 A 
ATOM     21  C   UNL     1       0.299   9.715  20.693  0.00  0.00    +0.000 A 
ATOM     22  N   UNL     1       0.759   9.823  19.403  0.00  0.00    +0.000 NA
ATOM     23  N   UNL     1       1.599   8.819  19.180  0.00  0.00    +0.000 NA
BRANCH  21  24
ATOM     24  C   UNL     1      -0.600  10.647  21.344  0.00  0.00    +0.000 A 
ATOM     25  C   UNL     1      -0.804  10.597  22.719  0.00  0.00    +0.000 A 
ATOM     26  C   UNL     1      -1.741  11.459  23.284  0.00  0.00    +0.000 A 
ATOM     27  C   UNL     1      -2.436  12.343  22.466  0.00  0.00    +0.000 A 
ATOM     28  C   UNL     1      -2.156  12.341  21.110  0.00  0.00    +0.000 A 
ATOM     29  N   UNL     1      -1.255  11.520  20.533  0.00  0.00    +0.000 NA
ENDBRANCH  21  24
ENDBRANCH  18  19
ENDBRANCH  17  18
ENDBRANCH   4  17
BRANCH   6  30
ATOM     30  C   UNL     1       3.534   2.133  17.613  0.00  0.00    +0.000 C 
BRANCH  30  31
ATOM     31  O   UNL     1       4.077   1.188  18.534  0.00  0.00    +0.000 OA
ATOM     32  H   UNL     1       4.972   0.980  18.198  0.00  0.00    +0.000 HD
ENDBRANCH  30  31
ENDBRANCH   6  30
TORSDOF 8
ENDMDL
MODEL 2
REMARK VINA RESULT:      -8.1      1.381      1.651
REMARK  Name = 
REMARK  8 active torsions:
REMARK  status: ('A' for Active; 'I' for Inactive)
REMARK    1  A    between atoms: C_2  and  C_25
REMARK    2  A    between atoms: N_3  and  C_4
REMARK    3  A    between atoms: C_7  and  C_8
REMARK    4  A    between atoms: C_8  and  C_9
REMARK    5  A    between atoms: C_9  and  N_10
REMARK    6  A    between atoms: C_12  and  C_13
REMARK    7  A    between atoms: C_22  and  C_23
REMARK    8  A    between atoms: C_23  and  O_24
REMARK                            x       y       z     vdW  Elec       q    Type
REMARK                         _______ _______ _______ _____ _____    ______ ____
ROOT
ATOM      1  C   UNL     1       5.137   5.589  18.021  0.00  0.00    +0.000 C 
ATOM      2  C   UNL     1       4.847   7.086  17.913  0.00  0.00    +0.000 C 
ATOM      3  C   UNL     1       3.429   7.344  17.422  0.00  0.00    +0.000 C 
ATOM      4  C   UNL     1       2.376   6.569  18.226  0.00  0.00    +0.000 C 
ATOM      5  O   UNL     1       2.716   5.178  18.315  0.00  0.00    +0.000 OA
ATOM      6  C   UNL     1       4.032   4.894  18.838  0.00  0.00    +0.000 C 
ENDROOT
BRANCH   1   9
ATOM      7  O   UNL     1       7.181   6.237  16.222  0.00  0.00    +0.000 OA
ATOM      8  C   UNL     1       6.363   5.385  15.881  0.00  0.00    +0.000 C 
ATOM      9  N   UNL     1       5.309   5.001  16.685  0.00  0.00    +0.000 N 
ATOM     10  H   UNL     1       4.625   4.331  16.358  0.00  0.00    +0.000 HD
BRANCH   8  11
ATOM     11  C   UNL     1       6.498   4.752  14.542  0.00  0.00    +0.000 A 
ATOM     12  C   UNL     1       7.599   4.964  13.704  0.00  0.00    +0.000 A 
ATOM     13  C   UNL     1       7.626   4.384  12.431  0.00  0.00    +0.000 A 
ATOM     14  C   UNL     1       6.558   3.593  11.990  0.00  0.00    +0.000 A 
ATOM     15  C   UNL     1       5.460   3.385  12.821  0.00  0.00    +0.000 A 
ATOM     16  C   UNL     1       5.428   3.965  14.088  0.00  0.00    +0.000 A 
ENDBRANCH   8  11
ENDBRANCH   1   9
BRANCH   4  17
ATOM     17  C   UNL     1       2.046   7.186  19.598  0.00  0.00    +0.000 C 
BRANCH  17  18
ATOM     18  C   UNL     1       1.779   8.689  19.469  0.00  0.00    +0.000 C 
BRANCH  18  19
ATOM     19  N   UNL     1       1.125   9.282  20.611  0.00  0.00    +0.000 N 
ATOM     20  C   UNL     1       0.456  10.461  20.652  0.00  0.00    +0.000 A 
ATOM     21  C   UNL     1       0.107  10.597  21.976  0.00  0.00    +0.000 A 
ATOM     22  N   UNL     1       0.621   9.539  22.686  0.00  0.00    +0.000 NA
ATOM     23  N   UNL     1       1.260   8.744  21.836  0.00  0.00    +0.000 NA
BRANCH  21  24
ATOM     24  C   UNL     1      -0.704  11.663  22.530  0.00  0.00    +0.000 A 
ATOM     25  C   UNL     1      -1.919  11.387  23.147  0.00  0.00    +0.000 A 
ATOM     26  C   UNL     1      -2.699  12.453  23.586  0.00  0.00    +0.000 A 
ATOM     27  C   UNL     1      -2.244  13.753  23.403  0.00  0.00    +0.000 A 
ATOM     28  C   UNL     1      -1.013  13.939  22.796  0.00  0.00    +0.000 A 
ATOM     29  N   UNL     1      -0.234  12.928  22.361  0.00  0.00    +0.000 NA
ENDBRANCH  21  24
ENDBRANCH  18  19
ENDBRANCH  17  18
ENDBRANCH   4  17
BRANCH   6  30
ATOM     30  C   UNL     1       4.215   3.368  18.846  0.00  0.00    +0.000 C 
BRANCH  30  31
ATOM     31  O   UNL     1       5.563   3.039  19.176  0.00  0.00    +0.000 OA
ATOM     32  H   UNL     1       5.643   2.076  19.021  0.00  0.00    +0.000 HD
ENDBRANCH  30  31
ENDBRANCH   6  30
TORSDOF 8
ENDMDL
MODEL 3
REMARK VINA RESULT:      -8.0      2.300      2.929
REMARK  Name = 
REMARK  8 active torsions:
REMARK  status: ('A' for Active; 'I' for Inactive)
REMARK    1  A    between atoms: C_2  and  C_25
REMARK    2  A    between atoms: N_3  and  C_4
REMARK    3  A    between atoms: C_7  and  C_8
REMARK    4  A    between atoms: C_8  and  C_9
REMARK    5  A    between atoms: C_9  and  N_10
REMARK    6  A    between atoms: C_12  and  C_13
REMARK    7  A    between atoms: C_22  and  C_23
REMARK    8  A    between atoms: C_23  and  O_24
REMARK                            x       y       z     vdW  Elec       q    Type
REMARK                         _______ _______ _______ _____ _____    ______ ____
ROOT
ATOM      1  C   UNL     1       5.031   5.634  17.841  0.00  0.00    +0.000 C 
ATOM      2  C   UNL     1       4.849   7.149  17.930  0.00  0.00    +0.000 C 
ATOM      3  C   UNL     1       3.457   7.570  17.480  0.00  0.00    +0.000 C 
ATOM      4  C   UNL     1       2.346   6.773  18.176  0.00  0.00    +0.000 C 
ATOM      5  O   UNL     1       2.586   5.362  18.082  0.00  0.00    +0.000 OA
ATOM      6  C   UNL     1       3.874   4.919  18.561  0.00  0.00    +0.000 C 
ENDROOT
BRANCH   1   9
ATOM      7  O   UNL     1       7.454   5.407  16.458  0.00  0.00    +0.000 OA
ATOM      8  C   UNL     1       6.420   5.125  15.856  0.00  0.00    +0.000 C 
ATOM      9  N   UNL     1       5.172   5.215  16.439  0.00  0.00    +0.000 N 
ATOM     10  H   UNL     1       4.335   5.022  15.904  0.00  0.00    +0.000 HD
BRANCH   8  11
ATOM     11  C   UNL     1       6.508   4.687  14.438  0.00  0.00    +0.000 A 
ATOM     12  C   UNL     1       5.651   3.733  13.878  0.00  0.00    +0.000 A 
ATOM     13  C   UNL     1       5.836   3.325  12.552  0.00  0.00    +0.000 A 
ATOM     14  C   UNL     1       6.874   3.863  11.783  0.00  0.00    +0.000 A 
ATOM     15  C   UNL     1       7.731   4.810  12.340  0.00  0.00    +0.000 A 
ATOM     16  C   UNL     1       7.551   5.216  13.661  0.00  0.00    +0.000 A 
ENDBRANCH   8  11
ENDBRANCH   1   9
BRANCH   4  17
ATOM     17  C   UNL     1       2.050   7.228  19.618  0.00  0.00    +0.000 C 
BRANCH  17  18
ATOM     18  C   UNL     1       2.067   8.756  19.722  0.00  0.00    +0.000 C 
BRANCH  18  19
ATOM     19  N   UNL     1       0.784   9.385  19.520  0.00  0.00    +0.000 N 
ATOM     20  C   UNL     1       0.118   9.531  18.347  0.00  0.00    +0.000 A 
ATOM     21  C   UNL     1      -0.996  10.263  18.689  0.00  0.00    +0.000 A 
ATOM     22  N   UNL     1      -0.933  10.577  20.025  0.00  0.00    +0.000 NA
ATOM     23  N   UNL     1       0.177  10.044  20.522  0.00  0.00    +0.000 NA
BRANCH  21  24
ATOM     24  C   UNL     1      -2.081  10.614  17.795  0.00  0.00    +0.000 A 
ATOM     25  C   UNL     1      -3.165  11.358  18.248  0.00  0.00    +0.000 A 
ATOM     26  C   UNL     1      -4.221  11.597  17.372  0.00  0.00    +0.000 A 
ATOM     27  C   UNL     1      -4.160  11.094  16.077  0.00  0.00    +0.000 A 
ATOM     28  C   UNL     1      -3.035  10.380  15.701  0.00  0.00    +0.000 A 
ATOM     29  N   UNL     1      -1.996  10.132  16.526  0.00  0.00    +0.000 NA
ENDBRANCH  21  24
ENDBRANCH  18  19
ENDBRANCH  17  18
ENDBRANCH   4  17
BRANCH   6  30
ATOM     30  C   UNL     1       3.948   3.396  18.369  0.00  0.00    +0.000 C 
BRANCH  30  31
ATOM     31  O   UNL     1       5.170   2.894  18.907  0.00  0.00    +0.000 OA
ATOM     32  H   UNL     1       5.630   2.466  18.157  0.00  0.00    +0.000 HD
ENDBRANCH  30  31
ENDBRANCH   6  30
TORSDOF 8
ENDMDL
MODEL 4
REMARK VINA RESULT:      -8.0      1.530      2.161
REMARK  Name = 
REMARK  8 active torsions:
REMARK  status: ('A' for Active; 'I' for Inactive)
REMARK    1  A    between atoms: C_2  and  C_25
REMARK    2  A    between atoms: N_3  and  C_4
REMARK    3  A    between atoms: C_7  and  C_8
REMARK    4  A    between atoms: C_8  and  C_9
REMARK    5  A    between atoms: C_9  and  N_10
REMARK    6  A    between atoms: C_12  and  C_13
REMARK    7  A    between atoms: C_22  and  C_23
REMARK    8  A    between atoms: C_23  and  O_24
REMARK                            x       y       z     vdW  Elec       q    Type
REMARK                         _______ _______ _______ _____ _____    ______ ____
ROOT
ATOM      1  C   UNL     1       5.122   6.237  17.788  0.00  0.00    +0.000 C 
ATOM      2  C   UNL     1       4.621   7.675  17.653  0.00  0.00    +0.000 C 
ATOM      3  C   UNL     1       3.132   7.718  17.339  0.00  0.00    +0.000 C 
ATOM      4  C   UNL     1       2.301   6.863  18.304  0.00  0.00    +0.000 C 
ATOM      5  O   UNL     1       2.834   5.536  18.408  0.00  0.00    +0.000 OA
ATOM      6  C   UNL     1       4.230   5.455  18.769  0.00  0.00    +0.000 C 
ENDROOT
BRANCH   1   9
ATOM      7  O   UNL     1       7.433   6.081  16.215  0.00  0.00    +0.000 OA
ATOM      8  C   UNL     1       6.405   5.567  15.779  0.00  0.00    +0.000 C 
ATOM      9  N   UNL     1       5.209   5.598  16.467  0.00  0.00    +0.000 N 
ATOM     10  H   UNL     1       4.368   5.206  16.061  0.00  0.00    +0.000 HD
BRANCH   8  11
ATOM     11  C   UNL     1       6.441   4.899  14.451  0.00  0.00    +0.000 A 
ATOM     12  C   UNL     1       5.524   3.914  14.066  0.00  0.00    +0.000 A 
ATOM     13  C   UNL     1       5.660   3.286  12.823  0.00  0.00    +0.000 A 
ATOM     14  C   UNL     1       6.708   3.635  11.963  0.00  0.00    +0.000 A 
ATOM     15  C   UNL     1       7.624   4.611  12.347  0.00  0.00    +0.000 A 
ATOM     16  C   UNL     1       7.493   5.237  13.586  0.00  0.00    +0.000 A 
ENDBRANCH   8  11
ENDBRANCH   1   9
BRANCH   4  17
ATOM     17  C   UNL     1       2.060   7.513  19.680  0.00  0.00    +0.000 C 
BRANCH  17  18
ATOM     18  C   UNL     1       1.651   8.982  19.524  0.00  0.00    +0.000 C 
BRANCH  18  19
ATOM     19  N   UNL     1       0.955   9.534  20.662  0.00  0.00    +0.000 N 
ATOM     20  C   UNL     1       0.221  10.674  20.700  0.00  0.00    +0.000 A 
ATOM     21  C   UNL     1      -0.146  10.786  22.021  0.00  0.00    +0.000 A 
ATOM     22  N   UNL     1       0.420   9.756  22.733  0.00  0.00    +0.000 NA
ATOM     23  N   UNL     1       1.109   9.000  21.886  0.00  0.00    +0.000 NA
BRANCH  21  24
ATOM     24  C   UNL     1      -1.019  11.804  22.570  0.00  0.00    +0.000 A 
ATOM     25  C   UNL     1      -0.693  13.152  22.470  0.00  0.00    +0.000 A 
ATOM     26  C   UNL     1      -1.522  14.085  23.087  0.00  0.00    +0.000 A 
ATOM     27  C   UNL     1      -2.648  13.648  23.776  0.00  0.00    +0.000 A 
ATOM     28  C   UNL     1      -2.911  12.288  23.809  0.00  0.00    +0.000 A 
ATOM     29  N   UNL     1      -2.127  11.361  23.222  0.00  0.00    +0.000 NA
ENDBRANCH  21  24
ENDBRANCH  18  19
ENDBRANCH  17  18
ENDBRANCH   4  17
BRANCH   6  30
ATOM     30  C   UNL     1       4.618   3.969  18.819  0.00  0.00    +0.000 C 
BRANCH  30  31
ATOM     31  O   UNL     1       6.037   3.835  18.884  0.00  0.00    +0.000 OA
ATOM     32  H   UNL     1       6.357   3.998  17.975  0.00  0.00    +0.000 HD
ENDBRANCH  30  31
ENDBRANCH   6  30
TORSDOF 8
ENDMDL
MODEL 5
REMARK VINA RESULT:      -7.9      1.408      1.977
REMARK  Name = 
REMARK  8 active torsions:
REMARK  status: ('A' for Active; 'I' for Inactive)
REMARK    1  A    between atoms: C_2  and  C_25
REMARK    2  A    between atoms: N_3  and  C_4
REMARK    3  A    between atoms: C_7  and  C_8
REMARK    4  A    between atoms: C_8  and  C_9
REMARK    5  A    between atoms: C_9  and  N_10
REMARK    6  A    between atoms: C_12  and  C_13
REMARK    7  A    between atoms: C_22  and  C_23
REMARK    8  A    between atoms: C_23  and  O_24
REMARK                            x       y       z     vdW  Elec       q    Type
REMARK                         _______ _______ _______ _____ _____    ______ ____
ROOT
ATOM      1  C   UNL     1       5.066   6.267  17.782  0.00  0.00    +0.000 C 
ATOM      2  C   UNL     1       4.247   7.553  17.670  0.00  0.00    +0.000 C 
ATOM      3  C   UNL     1       2.759   7.255  17.538  0.00  0.00    +0.000 C 
ATOM      4  C   UNL     1       2.252   6.292  18.620  0.00  0.00    +0.000 C 
ATOM      5  O   UNL     1       3.075   5.120  18.695  0.00  0.00    +0.000 OA
ATOM      6  C   UNL     1       4.486   5.364  18.886  0.00  0.00    +0.000 C 
ENDROOT
BRANCH   1   9
ATOM      7  O   UNL     1       7.333   6.174  16.143  0.00  0.00    +0.000 OA
ATOM      8  C   UNL     1       6.319   5.597  15.755  0.00  0.00    +0.000 C 
ATOM      9  N   UNL     1       5.144   5.592  16.479  0.00  0.00    +0.000 N 
ATOM     10  H   UNL     1       4.311   5.149  16.112  0.00  0.00    +0.000 HD
BRANCH   8  11
ATOM     11  C   UNL     1       6.347   4.891  14.447  0.00  0.00    +0.000 A 
ATOM     12  C   UNL     1       5.355   3.989  14.044  0.00  0.00    +0.000 A 
ATOM     13  C   UNL     1       5.483   3.315  12.824  0.00  0.00    +0.000 A 
ATOM     14  C   UNL     1       6.597   3.535  12.006  0.00  0.00    +0.000 A 
ATOM     15  C   UNL     1       7.587   4.429  12.408  0.00  0.00    +0.000 A 
ATOM     16  C   UNL     1       7.465   5.100  13.624  0.00  0.00    +0.000 A 
ENDBRANCH   8  11
ENDBRANCH   1   9
BRANCH   4  17
ATOM     17  C   UNL     1       2.029   6.948  19.996  0.00  0.00    +0.000 C 
BRANCH  17  18
ATOM     18  C   UNL     1       1.827   8.460  19.853  0.00  0.00    +0.000 C 
BRANCH  18  19
ATOM     19  N   UNL     1       0.880   9.028  20.782  0.00  0.00    +0.000 N 
ATOM     20  C   UNL     1       0.661  10.345  21.026  0.00  0.00    +0.000 A 
ATOM     21  C   UNL     1      -0.267  10.341  22.043  0.00  0.00    +0.000 A 
ATOM     22  N   UNL     1      -0.527   9.042  22.408  0.00  0.00    +0.000 NA
ATOM     23  N   UNL     1       0.199   8.243  21.634  0.00  0.00    +0.000 NA
BRANCH  21  24
ATOM     24  C   UNL     1      -0.899  11.515  22.612  0.00  0.00    +0.000 A 
ATOM     25  C   UNL     1      -2.185  11.449  23.135  0.00  0.00    +0.000 A 
ATOM     26  C   UNL     1      -2.779  12.622  23.592  0.00  0.00    +0.000 A 
ATOM     27  C   UNL     1      -2.072  13.818  23.519  0.00  0.00    +0.000 A 
ATOM     28  C   UNL     1      -0.788  13.792  23.002  0.00  0.00    +0.000 A 
ATOM     29  N   UNL     1      -0.186  12.672  22.552  0.00  0.00    +0.000 NA
ENDBRANCH  21  24
ENDBRANCH  18  19
ENDBRANCH  17  18
ENDBRANCH   4  17
BRANCH   6  30
ATOM     30  C   UNL     1       5.197   4.003  18.929  0.00  0.00    +0.000 C 
BRANCH  30  31
ATOM     31  O   UNL     1       4.628   3.122  17.961  0.00  0.00    +0.000 OA
ATOM     32  H   UNL     1       4.626   2.239  18.380  0.00  0.00    +0.000 HD
ENDBRANCH  30  31
ENDBRANCH   6  30
TORSDOF 8
ENDMDL
MODEL 6
REMARK VINA RESULT:      -7.9      0.851      1.357
REMARK  Name = 
REMARK  8 active torsions:
REMARK  status: ('A' for Active; 'I' for Inactive)
REMARK    1  A    between atoms: C_2  and  C_25
REMARK    2  A    between atoms: N_3  and  C_4
REMARK    3  A    between atoms: C_7  and  C_8
REMARK    4  A    between atoms: C_8  and  C_9
REMARK    5  A    between atoms: C_9  and  N_10
REMARK    6  A    between atoms: C_12  and  C_13
REMARK    7  A    between atoms: C_22  and  C_23
REMARK    8  A    between atoms: C_23  and  O_24
REMARK                            x       y       z     vdW  Elec       q    Type
REMARK                         _______ _______ _______ _____ _____    ______ ____
ROOT
ATOM      1  C   UNL     1       4.675   4.388  17.841  0.00  0.00    +0.000 C 
ATOM      2  C   UNL     1       4.887   5.835  18.286  0.00  0.00    +0.000 C 
ATOM      3  C   UNL     1       3.744   6.731  17.827  0.00  0.00    +0.000 C 
ATOM      4  C   UNL     1       2.367   6.167  18.198  0.00  0.00    +0.000 C 
ATOM      5  O   UNL     1       2.239   4.801  17.779  0.00  0.00    +0.000 OA
ATOM      6  C   UNL     1       3.271   3.908  18.250  0.00  0.00    +0.000 C 
ENDROOT
BRANCH   1   9
ATOM      7  O   UNL     1       7.131   4.834  16.573  0.00  0.00    +0.000 OA
ATOM      8  C   UNL     1       6.179   4.486  15.877  0.00  0.00    +0.000 C 
ATOM      9  N   UNL     1       4.923   4.252  16.398  0.00  0.00    +0.000 N 
ATOM     10  H   UNL     1       4.147   4.013  15.794  0.00  0.00    +0.000 HD
BRANCH   8  11
ATOM     11  C   UNL     1       6.379   4.325  14.412  0.00  0.00    +0.000 A 
ATOM     12  C   UNL     1       5.597   3.474  13.623  0.00  0.00    +0.000 A 
ATOM     13  C   UNL     1       5.885   3.328  12.261  0.00  0.00    +0.000 A 
ATOM     14  C   UNL     1       6.952   4.027  11.684  0.00  0.00    +0.000 A 
ATOM     15  C   UNL     1       7.733   4.871  12.469  0.00  0.00    +0.000 A 
ATOM     16  C   UNL     1       7.451   5.016  13.826  0.00  0.00    +0.000 A 
ENDBRANCH   8  11
ENDBRANCH   1   9
BRANCH   4  17
ATOM     17  C   UNL     1       1.975   6.372  19.673  0.00  0.00    +0.000 C 
BRANCH  17  18
ATOM     18  C   UNL     1       2.259   7.811  20.117  0.00  0.00    +0.000 C 
BRANCH  18  19
ATOM     19  N   UNL     1       1.142   8.477  20.743  0.00  0.00    +0.000 N 
ATOM     20  C   UNL     1       0.883   9.808  20.753  0.00  0.00    +0.000 A 
ATOM     21  C   UNL     1      -0.237   9.920  21.546  0.00  0.00    +0.000 A 
ATOM     22  N   UNL     1      -0.573   8.677  22.025  0.00  0.00    +0.000 NA
ATOM     23  N   UNL     1       0.294   7.798  21.535  0.00  0.00    +0.000 NA
BRANCH  21  24
ATOM     24  C   UNL     1      -0.968  11.144  21.805  0.00  0.00    +0.000 A 
ATOM     25  C   UNL     1      -1.572  11.366  23.038  0.00  0.00    +0.000 A 
ATOM     26  C   UNL     1      -2.333  12.519  23.208  0.00  0.00    +0.000 A 
ATOM     27  C   UNL     1      -2.462  13.414  22.151  0.00  0.00    +0.000 A 
ATOM     28  C   UNL     1      -1.810  13.127  20.963  0.00  0.00    +0.000 A 
ATOM     29  N   UNL     1      -1.066  12.018  20.768  0.00  0.00    +0.000 NA
ENDBRANCH  21  24
ENDBRANCH  18  19
ENDBRANCH  17  18
ENDBRANCH   4  17
BRANCH   6  30
ATOM     30  C   UNL     1       2.971   2.508  17.694  0.00  0.00    +0.000 C 
BRANCH  30  31
ATOM     31  O   UNL     1       4.108   1.661  17.861  0.00  0.00    +0.000 OA
ATOM     32  H   UNL     1       4.147   1.113  17.052  0.00  0.00    +0.000 HD
ENDBRANCH  30  31
ENDBRANCH   6  30
TORSDOF 8
ENDMDL
MODEL 7
REMARK VINA RESULT:      -7.9      1.399      1.832
REMARK  Name = 
REMARK  8 active torsions:
REMARK  status: ('A' for Active; 'I' for Inactive)
REMARK    1  A    between atoms: C_2  and  C_25
REMARK    2  A    between atoms: N_3  and  C_4
REMARK    3  A    between atoms: C_7  and  C_8
REMARK    4  A    between atoms: C_8  and  C_9
REMARK    5  A    between atoms: C_9  and  N_10
REMARK    6  A    between atoms: C_12  and  C_13
REMARK    7  A    between atoms: C_22  and  C_23
REMARK    8  A    between atoms: C_23  and  O_24
REMARK                            x       y       z     vdW  Elec       q    Type
REMARK                         _______ _______ _______ _____ _____    ______ ____
ROOT
ATOM      1  C   UNL     1       4.640   4.016  18.177  0.00  0.00    +0.000 C 
ATOM      2  C   UNL     1       4.691   5.423  18.771  0.00  0.00    +0.000 C 
ATOM      3  C   UNL     1       3.496   6.257  18.331  0.00  0.00    +0.000 C 
ATOM      4  C   UNL     1       2.159   5.539  18.559  0.00  0.00    +0.000 C 
ATOM      5  O   UNL     1       2.182   4.217  18.004  0.00  0.00    +0.000 OA
ATOM      6  C   UNL     1       3.267   3.375  18.451  0.00  0.00    +0.000 C 
ENDROOT
BRANCH   1   9
ATOM      7  O   UNL     1       7.199   4.443  17.125  0.00  0.00    +0.000 OA
ATOM      8  C   UNL     1       6.276   4.257  16.335  0.00  0.00    +0.000 C 
ATOM      9  N   UNL     1       4.975   4.050  16.746  0.00  0.00    +0.000 N 
ATOM     10  H   UNL     1       4.229   3.946  16.071  0.00  0.00    +0.000 HD
BRANCH   8  11
ATOM     11  C   UNL     1       6.563   4.273  14.876  0.00  0.00    +0.000 A 
ATOM     12  C   UNL     1       7.551   5.080  14.300  0.00  0.00    +0.000 A 
ATOM     13  C   UNL     1       7.721   5.086  12.911  0.00  0.00    +0.000 A 
ATOM     14  C   UNL     1       6.908   4.292  12.094  0.00  0.00    +0.000 A 
ATOM     15  C   UNL     1       5.922   3.491  12.665  0.00  0.00    +0.000 A 
ATOM     16  C   UNL     1       5.748   3.485  14.048  0.00  0.00    +0.000 A 
ENDBRANCH   8  11
ENDBRANCH   1   9
BRANCH   4  17
ATOM     17  C   UNL     1       1.673   5.558  20.021  0.00  0.00    +0.000 C 
BRANCH  17  18
ATOM     18  C   UNL     1       2.191   6.802  20.751  0.00  0.00    +0.000 C 
BRANCH  18  19
ATOM     19  N   UNL     1       1.330   7.957  20.653  0.00  0.00    +0.000 N 
ATOM     20  C   UNL     1       1.522   9.059  19.886  0.00  0.00    +0.000 A 
ATOM     21  C   UNL     1       0.471   9.881  20.223  0.00  0.00    +0.000 A 
ATOM     22  N   UNL     1      -0.272   9.278  21.208  0.00  0.00    +0.000 NA
ATOM     23  N   UNL     1       0.277   8.099  21.475  0.00  0.00    +0.000 NA
BRANCH  21  24
ATOM     24  C   UNL     1       0.173  11.161  19.611  0.00  0.00    +0.000 A 
ATOM     25  C   UNL     1       1.157  11.873  18.934  0.00  0.00    +0.000 A 
ATOM     26  C   UNL     1       0.842  13.136  18.438  0.00  0.00    +0.000 A 
ATOM     27  C   UNL     1      -0.438  13.643  18.626  0.00  0.00    +0.000 A 
ATOM     28  C   UNL     1      -1.364  12.859  19.294  0.00  0.00    +0.000 A 
ATOM     29  N   UNL     1      -1.090  11.633  19.786  0.00  0.00    +0.000 NA
ENDBRANCH  21  24
ENDBRANCH  18  19
ENDBRANCH  17  18
ENDBRANCH   4  17
BRANCH   6  30
ATOM     30  C   UNL     1       3.130   2.017  17.745  0.00  0.00    +0.000 C 
BRANCH  30  31
ATOM     31  O   UNL     1       4.246   1.186  18.062  0.00  0.00    +0.000 OA
ATOM     32  H   UNL     1       4.686   1.002  17.209  0.00  0.00    +0.000 HD
ENDBRANCH  30  31
ENDBRANCH   6  30
TORSDOF 8
ENDMDL
MODEL 8
REMARK VINA RESULT:      -7.9      0.591      1.279
REMARK  Name = 
REMARK  8 active torsions:
REMARK  status: ('A' for Active; 'I' for Inactive)
REMARK    1  A    between atoms: C_2  and  C_25
REMARK    2  A    between atoms: N_3  and  C_4
REMARK    3  A    between atoms: C_7  and  C_8
REMARK    4  A    between atoms: C_8  and  C_9
REMARK    5  A    between atoms: C_9  and  N_10
REMARK    6  A    between atoms: C_12  and  C_13
REMARK    7  A    between atoms: C_22  and  C_23
REMARK    8  A    between atoms: C_23  and  O_24
REMARK                            x       y       z     vdW  Elec       q    Type
REMARK                         _______ _______ _______ _____ _____    ______ ____
ROOT
ATOM      1  C   UNL     1       4.742   3.885  18.004  0.00  0.00    +0.000 C 
ATOM      2  C   UNL     1       4.770   5.343  18.461  0.00  0.00    +0.000 C 
ATOM      3  C   UNL     1       3.542   6.102  17.978  0.00  0.00    +0.000 C 
ATOM      4  C   UNL     1       2.231   5.376  18.310  0.00  0.00    +0.000 C 
ATOM      5  O   UNL     1       2.276   4.009  17.880  0.00  0.00    +0.000 OA
ATOM      6  C   UNL     1       3.394   3.240  18.374  0.00  0.00    +0.000 C 
ENDROOT
BRANCH   1   9
ATOM      7  O   UNL     1       6.877   5.151  16.710  0.00  0.00    +0.000 OA
ATOM      8  C   UNL     1       6.129   4.450  16.032  0.00  0.00    +0.000 C 
ATOM      9  N   UNL     1       5.040   3.792  16.568  0.00  0.00    +0.000 N 
ATOM     10  H   UNL     1       4.415   3.259  15.976  0.00  0.00    +0.000 HD
BRANCH   8  11
ATOM     11  C   UNL     1       6.392   4.315  14.575  0.00  0.00    +0.000 A 
ATOM     12  C   UNL     1       5.700   3.417  13.754  0.00  0.00    +0.000 A 
ATOM     13  C   UNL     1       6.047   3.302  12.403  0.00  0.00    +0.000 A 
ATOM     14  C   UNL     1       7.082   4.078  11.868  0.00  0.00    +0.000 A 
ATOM     15  C   UNL     1       7.774   4.969  12.685  0.00  0.00    +0.000 A 
ATOM     16  C   UNL     1       7.434   5.083  14.032  0.00  0.00    +0.000 A 
ENDBRANCH   8  11
ENDBRANCH   1   9
BRANCH   4  17
ATOM     17  C   UNL     1       1.781   5.522  19.775  0.00  0.00    +0.000 C 
BRANCH  17  18
ATOM     18  C   UNL     1       2.455   6.730  20.435  0.00  0.00    +0.000 C 
BRANCH  18  19
ATOM     19  N   UNL     1       1.701   7.958  20.347  0.00  0.00    +0.000 N 
ATOM     20  C   UNL     1       0.849   8.464  21.274  0.00  0.00    +0.000 A 
ATOM     21  C   UNL     1       0.337   9.590  20.671  0.00  0.00    +0.000 A 
ATOM     22  N   UNL     1       0.848   9.689  19.400  0.00  0.00    +0.000 NA
ATOM     23  N   UNL     1       1.675   8.668  19.207  0.00  0.00    +0.000 NA
BRANCH  21  24
ATOM     24  C   UNL     1      -0.565  10.541  21.289  0.00  0.00    +0.000 A 
ATOM     25  C   UNL     1      -1.124  11.578  20.549  0.00  0.00    +0.000 A 
ATOM     26  C   UNL     1      -1.917  12.513  21.209  0.00  0.00    +0.000 A 
ATOM     27  C   UNL     1      -2.131  12.383  22.576  0.00  0.00    +0.000 A 
ATOM     28  C   UNL     1      -1.554  11.310  23.233  0.00  0.00    +0.000 A 
ATOM     29  N   UNL     1      -0.782  10.387  22.623  0.00  0.00    +0.000 NA
ENDBRANCH  21  24
ENDBRANCH  18  19
ENDBRANCH  17  18
ENDBRANCH   4  17
BRANCH   6  30
ATOM     30  C   UNL     1       3.276   1.818  17.803  0.00  0.00    +0.000 C 
BRANCH  30  31
ATOM     31  O   UNL     1       4.298   0.985  18.349  0.00  0.00    +0.000 OA
ATOM     32  H   UNL     1       4.783   0.627  17.579  0.00  0.00    +0.000 HD
ENDBRANCH  30  31
ENDBRANCH   6  30
TORSDOF 8
ENDMDL
MODEL 9
REMARK VINA RESULT:      -7.8      2.239      9.767
REMARK  Name = 
REMARK  8 active torsions:
REMARK  status: ('A' for Active; 'I' for Inactive)
REMARK    1  A    between atoms: C_2  and  C_25
REMARK    2  A    between atoms: N_3  and  C_4
REMARK    3  A    between atoms: C_7  and  C_8
REMARK    4  A    between atoms: C_8  and  C_9
REMARK    5  A    between atoms: C_9  and  N_10
REMARK    6  A    between atoms: C_12  and  C_13
REMARK    7  A    between atoms: C_22  and  C_23
REMARK    8  A    between atoms: C_23  and  O_24
REMARK                            x       y       z     vdW  Elec       q    Type
REMARK                         _______ _______ _______ _____ _____    ______ ____
ROOT
ATOM      1  C   UNL     1       2.722   5.991  18.212  0.00  0.00    +0.000 C 
ATOM      2  C   UNL     1       3.983   6.604  17.604  0.00  0.00    +0.000 C 
ATOM      3  C   UNL     1       5.163   6.514  18.562  0.00  0.00    +0.000 C 
ATOM      4  C   UNL     1       5.370   5.097  19.113  0.00  0.00    +0.000 C 
ATOM      5  O   UNL     1       4.148   4.567  19.644  0.00  0.00    +0.000 OA
ATOM      6  C   UNL     1       3.022   4.576  18.740  0.00  0.00    +0.000 C 
ENDROOT
BRANCH   1   9
ATOM      7  O   UNL     1       1.750   8.579  17.773  0.00  0.00    +0.000 OA
ATOM      8  C   UNL     1       1.704   8.134  18.918  0.00  0.00    +0.000 C 
ATOM      9  N   UNL     1       2.168   6.876  19.246  0.00  0.00    +0.000 N 
ATOM     10  H   UNL     1       2.160   6.555  20.206  0.00  0.00    +0.000 HD
BRANCH   8  11
ATOM     11  C   UNL     1       1.144   8.987  20.000  0.00  0.00    +0.000 A 
ATOM     12  C   UNL     1       1.224   8.650  21.357  0.00  0.00    +0.000 A 
ATOM     13  C   UNL     1       0.618   9.472  22.313  0.00  0.00    +0.000 A 
ATOM     14  C   UNL     1      -0.070  10.627  21.922  0.00  0.00    +0.000 A 
ATOM     15  C   UNL     1      -0.153  10.961  20.573  0.00  0.00    +0.000 A 
ATOM     16  C   UNL     1       0.446  10.143  19.617  0.00  0.00    +0.000 A 
ENDBRANCH   8  11
ENDBRANCH   1   9
BRANCH   4  17
ATOM     17  C   UNL     1       6.056   4.130  18.130  0.00  0.00    +0.000 C 
BRANCH  17  18
ATOM     18  C   UNL     1       7.127   4.857  17.309  0.00  0.00    +0.000 C 
BRANCH  18  19
ATOM     19  N   UNL     1       6.947   4.770  15.880  0.00  0.00    +0.000 N 
ATOM     20  C   UNL     1       6.236   3.838  15.198  0.00  0.00    +0.000 A 
ATOM     21  C   UNL     1       6.456   4.157  13.877  0.00  0.00    +0.000 A 
ATOM     22  N   UNL     1       7.325   5.218  13.811  0.00  0.00    +0.000 NA
ATOM     23  N   UNL     1       7.633   5.577  15.052  0.00  0.00    +0.000 NA
BRANCH  21  24
ATOM     24  C   UNL     1       5.841   3.503  12.739  0.00  0.00    +0.000 A 
ATOM     25  C   UNL     1       4.624   3.949  12.234  0.00  0.00    +0.000 A 
ATOM     26  C   UNL     1       4.035   3.235  11.194  0.00  0.00    +0.000 A 
ATOM     27  C   UNL     1       4.676   2.109  10.689  0.00  0.00    +0.000 A 
ATOM     28  C   UNL     1       5.895   1.746  11.236  0.00  0.00    +0.000 A 
ATOM     29  N   UNL     1       6.492   2.417  12.243  0.00  0.00    +0.000 NA
ENDBRANCH  21  24
ENDBRANCH  18  19
ENDBRANCH  17  18
ENDBRANCH   4  17
BRANCH   6  30
ATOM     30  C   UNL     1       1.815   3.987  19.485  0.00  0.00    +0.000 C 
BRANCH  30  31
ATOM     31  O   UNL     1       1.787   4.467  20.828  0.00  0.00    +0.000 OA
ATOM     32  H   UNL     1       2.588   5.020  20.925  0.00  0.00    +0.000 HD
ENDBRANCH  30  31
ENDBRANCH   6  30
TORSDOF 8
ENDMDL
