MODEL 1
REMARK VINA RESULT:      -7.1      0.000      0.000
REMARK  Name = 
REMARK  7 active torsions:
REMARK  status: ('A' for Active; 'I' for Inactive)
REMARK    1  A    between atoms: C_1  and  C_2
REMARK    2  A    between atoms: C_2  and  C_3
REMARK    3  A    between atoms: C_2  and  C_4
REMARK    4  A    between atoms: C_2  and  C_5
REMARK    5  A    between atoms: C_10  and  C_11
REMARK    6  A    between atoms: N_18  and  C_19
REMARK    7  A    between atoms: C_22  and  C_23
REMARK                            x       y       z     vdW  Elec       q    Type
REMARK                         _______ _______ _______ _____ _____    ______ ____
ROOT
ATOM      1  C   UNL     1       1.130   9.130  19.731  0.00  0.00    +0.000 A 
ATOM      2  N   UNL     1       1.773   8.220  20.501  0.00  0.00    +0.000 NA
ATOM      3  N   UNL     1       1.340   8.441  21.761  0.00  0.00    +0.000 N 
ATOM      4  C   UNL     1       0.471   9.458  21.802  0.00  0.00    +0.000 A 
ATOM      5  C   UNL     1       0.273   9.914  20.530  0.00  0.00    +0.000 A 
ATOM      6  C   UNL     1      -0.705  11.039  20.553  0.00  0.00    +0.000 C 
ATOM      7  N   UNL     1      -0.997  11.099  22.019  0.00  0.00    +0.000 N 
ATOM      8  C   UNL     1      -0.237  10.196  22.780  0.00  0.00    +0.000 C 
ATOM      9  O   UNL     1      -0.168  10.061  23.989  0.00  0.00    +0.000 OA
ATOM     10  H   UNL     1       1.695   7.865  22.520  0.00  0.00    +0.000 HD
ENDROOT
BRANCH   6  11
ATOM     11  C   UNL     1      -0.012  12.278  20.013  0.00  0.00    +0.000 A 
ATOM     12  C   UNL     1      -0.680  13.087  19.076  0.00  0.00    +0.000 A 
ATOM     13  C   UNL     1      -0.079  14.240  18.562  0.00  0.00    +0.000 A 
ATOM     14  C   UNL     1       1.185  14.617  19.003  0.00  0.00    +0.000 A 
ATOM     15 CL   UNL     1       1.918  16.044  18.384  0.00  0.00    +0.000 Cl
ATOM     16  C   UNL     1       1.860  13.845  19.945  0.00  0.00    +0.000 A 
ATOM     17  C   UNL     1       1.268  12.682  20.441  0.00  0.00    +0.000 A 
ENDBRANCH   6  11
BRANCH   7  18
ATOM     18  C   UNL     1      -1.672  12.194  22.581  0.00  0.00    +0.000 A 
ATOM     19  C   UNL     1      -3.068  12.223  22.586  0.00  0.00    +0.000 A 
ATOM     20  C   UNL     1      -3.749  13.289  23.178  0.00  0.00    +0.000 A 
ATOM     21  C   UNL     1      -3.047  14.374  23.717  0.00  0.00    +0.000 A 
ATOM     22  C   UNL     1      -1.642  14.343  23.685  0.00  0.00    +0.000 A 
ATOM     23  C   UNL     1      -0.956  13.248  23.146  0.00  0.00    +0.000 A 
BRANCH  21  24
ATOM     24  C   UNL     1      -3.763  15.522  24.284  0.00  0.00    +0.000 A 
ATOM     25  C   UNL     1      -3.233  16.610  25.035  0.00  0.00    +0.000 A 
ATOM     26  C   UNL     1      -4.318  17.387  25.339  0.00  0.00    +0.000 A 
ATOM     27  O   UNL     1      -5.431  16.829  24.813  0.00  0.00    +0.000 OA
ATOM     28  N   UNL     1      -5.094  15.666  24.152  0.00  0.00    +0.000 NA
ENDBRANCH  21  24
ENDBRANCH   7  18
BRANCH   1  30
ATOM     29  C   UNL     1       2.300  10.476  17.931  0.00  0.00    +0.000 C 
ATOM     30  C   UNL     1       1.467   9.213  18.248  0.00  0.00    +0.000 C 
ATOM     31  C   UNL     1       0.157   9.288  17.435  0.00  0.00    +0.000 C 
ATOM     32  C   UNL     1       2.292   8.008  17.771  0.00  0.00    +0.000 C 
ENDBRANCH   1  30
TORSDOF 4
ENDMDL
MODEL 2
REMARK VINA RESULT:      -7.1      0.619      1.345
REMARK  Name = 
REMARK  7 active torsions:
REMARK  status: ('A' for Active; 'I' for Inactive)
REMARK    1  A    between atoms: C_1  and  C_2
REMARK    2  A    between atoms: C_2  and  C_3
REMARK    3  A    between atoms: C_2  and  C_4
REMARK    4  A    between atoms: C_2  and  C_5
REMARK    5  A    between atoms: C_10  and  C_11
REMARK    6  A    between atoms: N_18  and  C_19
REMARK    7  A    between atoms: C_22  and  C_23
REMARK                            x       y       z     vdW  Elec       q    Type
REMARK                         _______ _______ _______ _____ _____    ______ ____
ROOT
ATOM      1  C   UNL     1       1.126   9.111  19.734  0.00  0.00    +0.000 A 
ATOM      2  N   UNL     1       1.762   8.192  20.500  0.00  0.00    +0.000 NA
ATOM      3  N   UNL     1       1.335   8.414  21.762  0.00  0.00    +0.000 N 
ATOM      4  C   UNL     1       0.477   9.441  21.808  0.00  0.00    +0.000 A 
ATOM      5  C   UNL     1       0.280   9.902  20.539  0.00  0.00    +0.000 A 
ATOM      6  C   UNL     1      -0.686  11.037  20.568  0.00  0.00    +0.000 C 
ATOM      7  N   UNL     1      -0.972  11.096  22.035  0.00  0.00    +0.000 N 
ATOM      8  C   UNL     1      -0.219  10.184  22.791  0.00  0.00    +0.000 C 
ATOM      9  O   UNL     1      -0.147  10.044  24.000  0.00  0.00    +0.000 OA
ATOM     10  H   UNL     1       1.687   7.833  22.518  0.00  0.00    +0.000 HD
ENDROOT
BRANCH   6  11
ATOM     11  C   UNL     1       0.018  12.270  20.029  0.00  0.00    +0.000 A 
ATOM     12  C   UNL     1      -0.652  13.098  19.109  0.00  0.00    +0.000 A 
ATOM     13  C   UNL     1      -0.041  14.246  18.596  0.00  0.00    +0.000 A 
ATOM     14  C   UNL     1       1.236  14.599  19.022  0.00  0.00    +0.000 A 
ATOM     15 CL   UNL     1       1.981  16.020  18.404  0.00  0.00    +0.000 Cl
ATOM     16  C   UNL     1       1.912  13.809  19.947  0.00  0.00    +0.000 A 
ATOM     17  C   UNL     1       1.309  12.650  20.442  0.00  0.00    +0.000 A 
ENDBRANCH   6  11
BRANCH   7  18
ATOM     18  C   UNL     1      -1.634  12.197  22.602  0.00  0.00    +0.000 A 
ATOM     19  C   UNL     1      -0.896  13.280  23.084  0.00  0.00    +0.000 A 
ATOM     20  C   UNL     1      -1.547  14.396  23.615  0.00  0.00    +0.000 A 
ATOM     21  C   UNL     1      -2.943  14.421  23.730  0.00  0.00    +0.000 A 
ATOM     22  C   UNL     1      -3.672  13.315  23.260  0.00  0.00    +0.000 A 
ATOM     23  C   UNL     1      -3.025  12.221  22.674  0.00  0.00    +0.000 A 
BRANCH  21  24
ATOM     24  C   UNL     1      -3.623  15.568  24.342  0.00  0.00    +0.000 A 
ATOM     25  C   UNL     1      -4.977  15.979  24.184  0.00  0.00    +0.000 A 
ATOM     26  C   UNL     1      -5.092  17.110  24.947  0.00  0.00    +0.000 A 
ATOM     27  O   UNL     1      -3.905  17.374  25.537  0.00  0.00    +0.000 OA
ATOM     28  N   UNL     1      -2.983  16.417  25.167  0.00  0.00    +0.000 NA
ENDBRANCH  21  24
ENDBRANCH   7  18
BRANCH   1  30
ATOM     29  C   UNL     1       0.174   9.269  17.391  0.00  0.00    +0.000 C 
ATOM     30  C   UNL     1       1.458   9.195  18.250  0.00  0.00    +0.000 C 
ATOM     31  C   UNL     1       2.240   7.931  17.834  0.00  0.00    +0.000 C 
ATOM     32  C   UNL     1       2.289  10.442  17.910  0.00  0.00    +0.000 C 
ENDBRANCH   1  30
TORSDOF 4
ENDMDL
MODEL 3
REMARK VINA RESULT:      -7.1      0.617      1.034
REMARK  Name = 
REMARK  7 active torsions:
REMARK  status: ('A' for Active; 'I' for Inactive)
REMARK    1  A    between atoms: C_1  and  C_2
REMARK    2  A    between atoms: C_2  and  C_3
REMARK    3  A    between atoms: C_2  and  C_4
REMARK    4  A    between atoms: C_2  and  C_5
REMARK    5  A    between atoms: C_10  and  C_11
REMARK    6  A    between atoms: N_18  and  C_19
REMARK    7  A    between atoms: C_22  and  C_23
REMARK                            x       y       z     vdW  Elec       q    Type
REMARK                         _______ _______ _______ _____ _____    ______ ____
ROOT
ATOM      1  C   UNL     1       1.109   9.101  19.713  0.00  0.00    +0.000 A 
ATOM      2  N   UNL     1       1.749   8.180  20.472  0.00  0.00    +0.000 NA
ATOM      3  N   UNL     1       1.336   8.403  21.738  0.00  0.00    +0.000 N 
ATOM      4  C   UNL     1       0.483   9.432  21.794  0.00  0.00    +0.000 A 
ATOM      5  C   UNL     1       0.274   9.895  20.526  0.00  0.00    +0.000 A 
ATOM      6  C   UNL     1      -0.687  11.033  20.566  0.00  0.00    +0.000 C 
ATOM      7  N   UNL     1      -0.958  11.093  22.035  0.00  0.00    +0.000 N 
ATOM      8  C   UNL     1      -0.201  10.177  22.783  0.00  0.00    +0.000 C 
ATOM      9  O   UNL     1      -0.118  10.037  23.991  0.00  0.00    +0.000 OA
ATOM     10  H   UNL     1       1.694   7.820  22.490  0.00  0.00    +0.000 HD
ENDROOT
BRANCH   6  11
ATOM     11  C   UNL     1       0.015  12.264  20.019  0.00  0.00    +0.000 A 
ATOM     12  C   UNL     1      -0.656  13.088  19.098  0.00  0.00    +0.000 A 
ATOM     13  C   UNL     1      -0.046  14.234  18.579  0.00  0.00    +0.000 A 
ATOM     14  C   UNL     1       1.232  14.589  19.000  0.00  0.00    +0.000 A 
ATOM     15 CL   UNL     1       1.976  16.007  18.375  0.00  0.00    +0.000 Cl
ATOM     16  C   UNL     1       1.910  13.802  19.927  0.00  0.00    +0.000 A 
ATOM     17  C   UNL     1       1.308  12.645  20.428  0.00  0.00    +0.000 A 
ENDBRANCH   6  11
BRANCH   7  18
ATOM     18  C   UNL     1      -1.611  12.196  22.609  0.00  0.00    +0.000 A 
ATOM     19  C   UNL     1      -3.004  12.221  22.679  0.00  0.00    +0.000 A 
ATOM     20  C   UNL     1      -3.661  13.296  23.283  0.00  0.00    +0.000 A 
ATOM     21  C   UNL     1      -2.938  14.391  23.771  0.00  0.00    +0.000 A 
ATOM     22  C   UNL     1      -1.536  14.363  23.676  0.00  0.00    +0.000 A 
ATOM     23  C   UNL     1      -0.872  13.260  23.124  0.00  0.00    +0.000 A 
BRANCH  21  24
ATOM     24  C   UNL     1      -3.630  15.547  24.352  0.00  0.00    +0.000 A 
ATOM     25  C   UNL     1      -5.003  15.905  24.233  0.00  0.00    +0.000 A 
ATOM     26  C   UNL     1      -5.124  17.070  24.942  0.00  0.00    +0.000 A 
ATOM     27  O   UNL     1      -3.923  17.404  25.465  0.00  0.00    +0.000 OA
ATOM     28  N   UNL     1      -2.986  16.458  25.103  0.00  0.00    +0.000 NA
ENDBRANCH  21  24
ENDBRANCH   7  18
BRANCH   1  30
ATOM     29  C   UNL     1       2.223   7.947  17.751  0.00  0.00    +0.000 C 
ATOM     30  C   UNL     1       1.426   9.184  18.225  0.00  0.00    +0.000 C 
ATOM     31  C   UNL     1       2.286  10.437  17.960  0.00  0.00    +0.000 C 
ATOM     32  C   UNL     1       0.155   9.248  17.363  0.00  0.00    +0.000 C 
ENDBRANCH   1  30
TORSDOF 4
ENDMDL
MODEL 4
REMARK VINA RESULT:      -7.1      0.615      1.345
REMARK  Name = 
REMARK  7 active torsions:
REMARK  status: ('A' for Active; 'I' for Inactive)
REMARK    1  A    between atoms: C_1  and  C_2
REMARK    2  A    between atoms: C_2  and  C_3
REMARK    3  A    between atoms: C_2  and  C_4
REMARK    4  A    between atoms: C_2  and  C_5
REMARK    5  A    between atoms: C_10  and  C_11
REMARK    6  A    between atoms: N_18  and  C_19
REMARK    7  A    between atoms: C_22  and  C_23
REMARK                            x       y       z     vdW  Elec       q    Type
REMARK                         _______ _______ _______ _____ _____    ______ ____
ROOT
ATOM      1  C   UNL     1       1.122   9.095  19.730  0.00  0.00    +0.000 A 
ATOM      2  N   UNL     1       1.764   8.180  20.494  0.00  0.00    +0.000 NA
ATOM      3  N   UNL     1       1.345   8.403  21.758  0.00  0.00    +0.000 N 
ATOM      4  C   UNL     1       0.484   9.427  21.807  0.00  0.00    +0.000 A 
ATOM      5  C   UNL     1       0.278   9.886  20.538  0.00  0.00    +0.000 A 
ATOM      6  C   UNL     1      -0.690  11.018  20.570  0.00  0.00    +0.000 C 
ATOM      7  N   UNL     1      -0.968  11.079  22.038  0.00  0.00    +0.000 N 
ATOM      8  C   UNL     1      -0.209  10.171  22.791  0.00  0.00    +0.000 C 
ATOM      9  O   UNL     1      -0.130  10.034  24.000  0.00  0.00    +0.000 OA
ATOM     10  H   UNL     1       1.702   7.824  22.513  0.00  0.00    +0.000 HD
ENDROOT
BRANCH   6  11
ATOM     11  C   UNL     1       0.007  12.252  20.024  0.00  0.00    +0.000 A 
ATOM     12  C   UNL     1       1.305  12.562  20.468  0.00  0.00    +0.000 A 
ATOM     13  C   UNL     1       1.983  13.685  19.982  0.00  0.00    +0.000 A 
ATOM     14  C   UNL     1       1.384  14.493  19.021  0.00  0.00    +0.000 A 
ATOM     15 CL   UNL     1       2.224  15.863  18.411  0.00  0.00    +0.000 Cl
ATOM     16  C   UNL     1       0.108  14.196  18.550  0.00  0.00    +0.000 A 
ATOM     17  C   UNL     1      -0.577  13.087  19.052  0.00  0.00    +0.000 A 
ENDBRANCH   6  11
BRANCH   7  18
ATOM     18  C   UNL     1      -1.630  12.180  22.607  0.00  0.00    +0.000 A 
ATOM     19  C   UNL     1      -3.024  12.198  22.666  0.00  0.00    +0.000 A 
ATOM     20  C   UNL     1      -3.691  13.270  23.265  0.00  0.00    +0.000 A 
ATOM     21  C   UNL     1      -2.976  14.370  23.757  0.00  0.00    +0.000 A 
ATOM     22  C   UNL     1      -1.573  14.348  23.671  0.00  0.00    +0.000 A 
ATOM     23  C   UNL     1      -0.901  13.248  23.125  0.00  0.00    +0.000 A 
BRANCH  21  24
ATOM     24  C   UNL     1      -3.679  15.523  24.332  0.00  0.00    +0.000 A 
ATOM     25  C   UNL     1      -5.032  15.919  24.136  0.00  0.00    +0.000 A 
ATOM     26  C   UNL     1      -5.172  17.063  24.876  0.00  0.00    +0.000 A 
ATOM     27  O   UNL     1      -4.001  17.348  25.488  0.00  0.00    +0.000 OA
ATOM     28  N   UNL     1      -3.064  16.392  25.155  0.00  0.00    +0.000 NA
ENDBRANCH  21  24
ENDBRANCH   7  18
BRANCH   1  30
ATOM     29  C   UNL     1       0.158   9.266  17.393  0.00  0.00    +0.000 C 
ATOM     30  C   UNL     1       1.445   9.176  18.244  0.00  0.00    +0.000 C 
ATOM     31  C   UNL     1       2.211   7.904  17.822  0.00  0.00    +0.000 C 
ATOM     32  C   UNL     1       2.289  10.414  17.899  0.00  0.00    +0.000 C 
ENDBRANCH   1  30
TORSDOF 4
ENDMDL
MODEL 5
REMARK VINA RESULT:      -7.0      3.046      8.057
REMARK  Name = 
REMARK  7 active torsions:
REMARK  status: ('A' for Active; 'I' for Inactive)
REMARK    1  A    between atoms: C_1  and  C_2
REMARK    2  A    between atoms: C_2  and  C_3
REMARK    3  A    between atoms: C_2  and  C_4
REMARK    4  A    between atoms: C_2  and  C_5
REMARK    5  A    between atoms: C_10  and  C_11
REMARK    6  A    between atoms: N_18  and  C_19
REMARK    7  A    between atoms: C_22  and  C_23
REMARK                            x       y       z     vdW  Elec       q    Type
REMARK                         _______ _______ _______ _____ _____    ______ ____
ROOT
ATOM      1  C   UNL     1      -1.824  13.948  20.791  0.00  0.00    +0.000 A 
ATOM      2  N   UNL     1      -3.069  13.983  20.260  0.00  0.00    +0.000 NA
ATOM      3  N   UNL     1      -3.222  12.806  19.616  0.00  0.00    +0.000 N 
ATOM      4  C   UNL     1      -2.118  12.055  19.713  0.00  0.00    +0.000 A 
ATOM      5  C   UNL     1      -1.205  12.719  20.482  0.00  0.00    +0.000 A 
ATOM      6  C   UNL     1       0.026  11.890  20.615  0.00  0.00    +0.000 C 
ATOM      7  N   UNL     1      -0.377  10.694  19.814  0.00  0.00    +0.000 N 
ATOM      8  C   UNL     1      -1.639  10.822  19.212  0.00  0.00    +0.000 C 
ATOM      9  O   UNL     1      -2.210  10.079  18.432  0.00  0.00    +0.000 OA
ATOM     10  H   UNL     1      -4.095  12.609  19.134  0.00  0.00    +0.000 HD
ENDROOT
BRANCH   6  11
ATOM     11  C   UNL     1       1.186  12.669  20.017  0.00  0.00    +0.000 A 
ATOM     12  C   UNL     1       1.182  12.960  18.641  0.00  0.00    +0.000 A 
ATOM     13  C   UNL     1       2.227  13.681  18.055  0.00  0.00    +0.000 A 
ATOM     14  C   UNL     1       3.273  14.149  18.844  0.00  0.00    +0.000 A 
ATOM     15 CL   UNL     1       4.550  15.050  18.127  0.00  0.00    +0.000 Cl
ATOM     16  C   UNL     1       3.290  13.892  20.212  0.00  0.00    +0.000 A 
ATOM     17  C   UNL     1       2.257  13.152  20.793  0.00  0.00    +0.000 A 
ENDBRANCH   6  11
BRANCH   7  18
ATOM     18  C   UNL     1       0.567   9.734  19.416  0.00  0.00    +0.000 A 
ATOM     19  C   UNL     1       1.071   8.826  20.348  0.00  0.00    +0.000 A 
ATOM     20  C   UNL     1       1.982   7.842  19.954  0.00  0.00    +0.000 A 
ATOM     21  C   UNL     1       2.450   7.790  18.634  0.00  0.00    +0.000 A 
ATOM     22  C   UNL     1       1.949   8.724  17.710  0.00  0.00    +0.000 A 
ATOM     23  C   UNL     1       0.992   9.673  18.090  0.00  0.00    +0.000 A 
BRANCH  21  24
ATOM     24  C   UNL     1       3.450   6.795  18.234  0.00  0.00    +0.000 A 
ATOM     25  C   UNL     1       4.316   6.819  17.104  0.00  0.00    +0.000 A 
ATOM     26  C   UNL     1       5.028   5.652  17.184  0.00  0.00    +0.000 A 
ATOM     27  O   UNL     1       4.640   4.964  18.280  0.00  0.00    +0.000 OA
ATOM     28  N   UNL     1       3.657   5.670  18.942  0.00  0.00    +0.000 NA
ENDBRANCH  21  24
ENDBRANCH   7  18
BRANCH   1  30
ATOM     29  C   UNL     1      -0.525  14.786  22.799  0.00  0.00    +0.000 C 
ATOM     30  C   UNL     1      -1.294  15.178  21.517  0.00  0.00    +0.000 C 
ATOM     31  C   UNL     1      -2.481  16.075  21.925  0.00  0.00    +0.000 C 
ATOM     32  C   UNL     1      -0.319  15.990  20.648  0.00  0.00    +0.000 C 
ENDBRANCH   1  30
TORSDOF 4
ENDMDL
MODEL 6
REMARK VINA RESULT:      -7.0      3.070      8.072
REMARK  Name = 
REMARK  7 active torsions:
REMARK  status: ('A' for Active; 'I' for Inactive)
REMARK    1  A    between atoms: C_1  and  C_2
REMARK    2  A    between atoms: C_2  and  C_3
REMARK    3  A    between atoms: C_2  and  C_4
REMARK    4  A    between atoms: C_2  and  C_5
REMARK    5  A    between atoms: C_10  and  C_11
REMARK    6  A    between atoms: N_18  and  C_19
REMARK    7  A    between atoms: C_22  and  C_23
REMARK                            x       y       z     vdW  Elec       q    Type
REMARK                         _______ _______ _______ _____ _____    ______ ____
ROOT
ATOM      1  C   UNL     1      -1.946  13.818  20.693  0.00  0.00    +0.000 A 
ATOM      2  N   UNL     1      -3.177  13.831  20.128  0.00  0.00    +0.000 NA
ATOM      3  N   UNL     1      -3.292  12.651  19.482  0.00  0.00    +0.000 N 
ATOM      4  C   UNL     1      -2.178  11.919  19.611  0.00  0.00    +0.000 A 
ATOM      5  C   UNL     1      -1.298  12.600  20.402  0.00  0.00    +0.000 A 
ATOM      6  C   UNL     1      -0.056  11.794  20.570  0.00  0.00    +0.000 C 
ATOM      7  N   UNL     1      -0.417  10.589  19.761  0.00  0.00    +0.000 N 
ATOM      8  C   UNL     1      -1.664  10.694  19.125  0.00  0.00    +0.000 C 
ATOM      9  O   UNL     1      -2.201   9.940  18.332  0.00  0.00    +0.000 OA
ATOM     10  H   UNL     1      -4.148  12.438  18.978  0.00  0.00    +0.000 HD
ENDROOT
BRANCH   6  11
ATOM     11  C   UNL     1       1.106  12.591  20.002  0.00  0.00    +0.000 A 
ATOM     12  C   UNL     1       1.120  12.904  18.631  0.00  0.00    +0.000 A 
ATOM     13  C   UNL     1       2.167  13.643  18.072  0.00  0.00    +0.000 A 
ATOM     14  C   UNL     1       3.197  14.107  18.884  0.00  0.00    +0.000 A 
ATOM     15 CL   UNL     1       4.476  15.030  18.201  0.00  0.00    +0.000 Cl
ATOM     16  C   UNL     1       3.196  13.829  20.248  0.00  0.00    +0.000 A 
ATOM     17  C   UNL     1       2.161  13.072  20.801  0.00  0.00    +0.000 A 
ENDBRANCH   6  11
BRANCH   7  18
ATOM     18  C   UNL     1       0.554   9.645  19.390  0.00  0.00    +0.000 A 
ATOM     19  C   UNL     1       1.026   9.611  18.077  0.00  0.00    +0.000 A 
ATOM     20  C   UNL     1       2.020   8.702  17.707  0.00  0.00    +0.000 A 
ATOM     21  C   UNL     1       2.512   7.769  18.630  0.00  0.00    +0.000 A 
ATOM     22  C   UNL     1       2.013   7.800  19.943  0.00  0.00    +0.000 A 
ATOM     23  C   UNL     1       1.060   8.750  20.331  0.00  0.00    +0.000 A 
BRANCH  21  24
ATOM     24  C   UNL     1       3.513   6.775  18.227  0.00  0.00    +0.000 A 
ATOM     25  C   UNL     1       4.368   6.794  17.089  0.00  0.00    +0.000 A 
ATOM     26  C   UNL     1       5.086   5.631  17.170  0.00  0.00    +0.000 A 
ATOM     27  O   UNL     1       4.710   4.948  18.275  0.00  0.00    +0.000 OA
ATOM     28  N   UNL     1       3.731   5.656  18.941  0.00  0.00    +0.000 NA
ENDBRANCH  21  24
ENDBRANCH   7  18
BRANCH   1  30
ATOM     29  C   UNL     1      -2.637  15.972  21.836  0.00  0.00    +0.000 C 
ATOM     30  C   UNL     1      -1.457  15.059  21.430  0.00  0.00    +0.000 C 
ATOM     31  C   UNL     1      -0.525  15.865  20.501  0.00  0.00    +0.000 C 
ATOM     32  C   UNL     1      -0.705  14.707  22.723  0.00  0.00    +0.000 C 
ENDBRANCH   1  30
TORSDOF 4
ENDMDL
MODEL 7
REMARK VINA RESULT:      -7.0      3.067      8.095
REMARK  Name = 
REMARK  7 active torsions:
REMARK  status: ('A' for Active; 'I' for Inactive)
REMARK    1  A    between atoms: C_1  and  C_2
REMARK    2  A    between atoms: C_2  and  C_3
REMARK    3  A    between atoms: C_2  and  C_4
REMARK    4  A    between atoms: C_2  and  C_5
REMARK    5  A    between atoms: C_10  and  C_11
REMARK    6  A    between atoms: N_18  and  C_19
REMARK    7  A    between atoms: C_22  and  C_23
REMARK                            x       y       z     vdW  Elec       q    Type
REMARK                         _______ _______ _______ _____ _____    ______ ____
ROOT
ATOM      1  C   UNL     1      -2.045  13.842  20.685  0.00  0.00    +0.000 A 
ATOM      2  N   UNL     1      -3.280  13.840  20.130  0.00  0.00    +0.000 NA
ATOM      3  N   UNL     1      -3.387  12.657  19.489  0.00  0.00    +0.000 N 
ATOM      4  C   UNL     1      -2.265  11.938  19.611  0.00  0.00    +0.000 A 
ATOM      5  C   UNL     1      -1.386  12.630  20.393  0.00  0.00    +0.000 A 
ATOM      6  C   UNL     1      -0.135  11.837  20.554  0.00  0.00    +0.000 C 
ATOM      7  N   UNL     1      -0.489  10.627  19.751  0.00  0.00    +0.000 N 
ATOM      8  C   UNL     1      -1.742  10.716  19.124  0.00  0.00    +0.000 C 
ATOM      9  O   UNL     1      -2.277   9.954  18.337  0.00  0.00    +0.000 OA
ATOM     10  H   UNL     1      -4.246  12.434  18.991  0.00  0.00    +0.000 HD
ENDROOT
BRANCH   6  11
ATOM     11  C   UNL     1       1.014  12.645  19.975  0.00  0.00    +0.000 A 
ATOM     12  C   UNL     1       2.046  13.082  20.825  0.00  0.00    +0.000 A 
ATOM     13  C   UNL     1       3.125  13.820  20.327  0.00  0.00    +0.000 A 
ATOM     14  C   UNL     1       3.201  14.103  18.967  0.00  0.00    +0.000 A 
ATOM     15 CL   UNL     1       4.535  14.997  18.353  0.00  0.00    +0.000 Cl
ATOM     16  C   UNL     1       2.203  13.665  18.101  0.00  0.00    +0.000 A 
ATOM     17  C   UNL     1       1.115  12.947  18.603  0.00  0.00    +0.000 A 
ENDBRANCH   6  11
BRANCH   7  18
ATOM     18  C   UNL     1       0.489   9.692  19.376  0.00  0.00    +0.000 A 
ATOM     19  C   UNL     1       1.018   8.818  20.327  0.00  0.00    +0.000 A 
ATOM     20  C   UNL     1       1.963   7.858  19.956  0.00  0.00    +0.000 A 
ATOM     21  C   UNL     1       2.441   7.799  18.640  0.00  0.00    +0.000 A 
ATOM     22  C   UNL     1       1.915   8.699  17.697  0.00  0.00    +0.000 A 
ATOM     23  C   UNL     1       0.925   9.622  18.054  0.00  0.00    +0.000 A 
BRANCH  21  24
ATOM     24  C   UNL     1       3.476   6.830  18.263  0.00  0.00    +0.000 A 
ATOM     25  C   UNL     1       4.322   6.843  17.118  0.00  0.00    +0.000 A 
ATOM     26  C   UNL     1       5.084   5.712  17.233  0.00  0.00    +0.000 A 
ATOM     27  O   UNL     1       4.744   5.054  18.364  0.00  0.00    +0.000 OA
ATOM     28  N   UNL     1       3.743   5.746  19.013  0.00  0.00    +0.000 NA
ENDBRANCH  21  24
ENDBRANCH   7  18
BRANCH   1  30
ATOM     29  C   UNL     1      -2.749  15.994  21.824  0.00  0.00    +0.000 C 
ATOM     30  C   UNL     1      -1.563  15.090  21.415  0.00  0.00    +0.000 C 
ATOM     31  C   UNL     1      -0.644  15.902  20.478  0.00  0.00    +0.000 C 
ATOM     32  C   UNL     1      -0.801  14.751  22.706  0.00  0.00    +0.000 C 
ENDBRANCH   1  30
TORSDOF 4
ENDMDL
MODEL 8
REMARK VINA RESULT:      -7.0      3.066      8.086
REMARK  Name = 
REMARK  7 active torsions:
REMARK  status: ('A' for Active; 'I' for Inactive)
REMARK    1  A    between atoms: C_1  and  C_2
REMARK    2  A    between atoms: C_2  and  C_3
REMARK    3  A    between atoms: C_2  and  C_4
REMARK    4  A    between atoms: C_2  and  C_5
REMARK    5  A    between atoms: C_10  and  C_11
REMARK    6  A    between atoms: N_18  and  C_19
REMARK    7  A    between atoms: C_22  and  C_23
REMARK                            x       y       z     vdW  Elec       q    Type
REMARK                         _______ _______ _______ _____ _____    ______ ____
ROOT
ATOM      1  C   UNL     1      -2.040  13.865  20.694  0.00  0.00    +0.000 A 
ATOM      2  N   UNL     1      -3.275  13.871  20.137  0.00  0.00    +0.000 NA
ATOM      3  N   UNL     1      -3.388  12.688  19.494  0.00  0.00    +0.000 N 
ATOM      4  C   UNL     1      -2.270  11.962  19.618  0.00  0.00    +0.000 A 
ATOM      5  C   UNL     1      -1.388  12.649  20.402  0.00  0.00    +0.000 A 
ATOM      6  C   UNL     1      -0.142  11.848  20.565  0.00  0.00    +0.000 C 
ATOM      7  N   UNL     1      -0.503  10.641  19.760  0.00  0.00    +0.000 N 
ATOM      8  C   UNL     1      -1.754  10.738  19.132  0.00  0.00    +0.000 C 
ATOM      9  O   UNL     1      -2.292   9.980  18.343  0.00  0.00    +0.000 OA
ATOM     10  H   UNL     1      -4.247  12.471  18.996  0.00  0.00    +0.000 HD
ENDROOT
BRANCH   6  11
ATOM     11  C   UNL     1       1.013  12.650  19.987  0.00  0.00    +0.000 A 
ATOM     12  C   UNL     1       2.042  13.087  20.841  0.00  0.00    +0.000 A 
ATOM     13  C   UNL     1       3.125  13.819  20.346  0.00  0.00    +0.000 A 
ATOM     14  C   UNL     1       3.209  14.095  18.985  0.00  0.00    +0.000 A 
ATOM     15 CL   UNL     1       4.550  14.981  18.373  0.00  0.00    +0.000 Cl
ATOM     16  C   UNL     1       2.215  13.656  18.116  0.00  0.00    +0.000 A 
ATOM     17  C   UNL     1       1.122  12.944  18.615  0.00  0.00    +0.000 A 
ENDBRANCH   6  11
BRANCH   7  18
ATOM     18  C   UNL     1       0.470   9.700  19.386  0.00  0.00    +0.000 A 
ATOM     19  C   UNL     1       0.911   9.643  18.063  0.00  0.00    +0.000 A 
ATOM     20  C   UNL     1       1.906   8.737  17.688  0.00  0.00    +0.000 A 
ATOM     21  C   UNL     1       2.432   7.831  18.617  0.00  0.00    +0.000 A 
ATOM     22  C   UNL     1       1.965   7.884  19.942  0.00  0.00    +0.000 A 
ATOM     23  C   UNL     1       1.010   8.831  20.333  0.00  0.00    +0.000 A 
BRANCH  21  24
ATOM     24  C   UNL     1       3.435   6.839  18.211  0.00  0.00    +0.000 A 
ATOM     25  C   UNL     1       4.354   6.907  17.127  0.00  0.00    +0.000 A 
ATOM     26  C   UNL     1       5.043   5.725  17.176  0.00  0.00    +0.000 A 
ATOM     27  O   UNL     1       4.591   4.986  18.214  0.00  0.00    +0.000 OA
ATOM     28  N   UNL     1       3.589   5.674  18.866  0.00  0.00    +0.000 NA
ENDBRANCH  21  24
ENDBRANCH   7  18
BRANCH   1  30
ATOM     29  C   UNL     1      -0.818  14.740  22.734  0.00  0.00    +0.000 C 
ATOM     30  C   UNL     1      -1.552  15.109  21.425  0.00  0.00    +0.000 C 
ATOM     31  C   UNL     1      -2.766  15.991  21.789  0.00  0.00    +0.000 C 
ATOM     32  C   UNL     1      -0.564  15.930  20.580  0.00  0.00    +0.000 C 
ENDBRANCH   1  30
TORSDOF 4
ENDMDL
MODEL 9
REMARK VINA RESULT:      -6.8      3.006      8.084
REMARK  Name = 
REMARK  7 active torsions:
REMARK  status: ('A' for Active; 'I' for Inactive)
REMARK    1  A    between atoms: C_1  and  C_2
REMARK    2  A    between atoms: C_2  and  C_3
REMARK    3  A    between atoms: C_2  and  C_4
REMARK    4  A    between atoms: C_2  and  C_5
REMARK    5  A    between atoms: C_10  and  C_11
REMARK    6  A    between atoms: N_18  and  C_19
REMARK    7  A    between atoms: C_22  and  C_23
REMARK                            x       y       z     vdW  Elec       q    Type
REMARK                         _______ _______ _______ _____ _____    ______ ____
ROOT
ATOM      1  C   UNL     1      -1.848  14.161  20.939  0.00  0.00    +0.000 A 
ATOM      2  N   UNL     1      -3.105  14.235  20.440  0.00  0.00    +0.000 NA
ATOM      3  N   UNL     1      -3.302  13.075  19.778  0.00  0.00    +0.000 N 
ATOM      4  C   UNL     1      -2.215  12.297  19.833  0.00  0.00    +0.000 A 
ATOM      5  C   UNL     1      -1.267  12.924  20.590  0.00  0.00    +0.000 A 
ATOM      6  C   UNL     1      -0.053  12.065  20.677  0.00  0.00    +0.000 C 
ATOM      7  N   UNL     1      -0.504  10.894  19.864  0.00  0.00    +0.000 N 
ATOM      8  C   UNL     1      -1.777  11.063  19.296  0.00  0.00    +0.000 C 
ATOM      9  O   UNL     1      -2.385  10.349  18.518  0.00  0.00    +0.000 OA
ATOM     10  H   UNL     1      -4.192  12.908  19.315  0.00  0.00    +0.000 HD
ENDROOT
BRANCH   6  11
ATOM     11  C   UNL     1       1.110  12.827  20.064  0.00  0.00    +0.000 A 
ATOM     12  C   UNL     1       2.198  13.194  20.877  0.00  0.00    +0.000 A 
ATOM     13  C   UNL     1       3.290  13.888  20.348  0.00  0.00    +0.000 A 
ATOM     14  C   UNL     1       3.323  14.197  18.992  0.00  0.00    +0.000 A 
ATOM     15 CL   UNL     1       4.673  15.036  18.337  0.00  0.00    +0.000 Cl
ATOM     16  C   UNL     1       2.268  13.827  18.161  0.00  0.00    +0.000 A 
ATOM     17  C   UNL     1       1.168  13.153  18.695  0.00  0.00    +0.000 A 
ENDBRANCH   6  11
BRANCH   7  18
ATOM     18  C   UNL     1       0.406   9.920  19.423  0.00  0.00    +0.000 A 
ATOM     19  C   UNL     1       0.989   9.046  20.343  0.00  0.00    +0.000 A 
ATOM     20  C   UNL     1       1.866   8.049  19.910  0.00  0.00    +0.000 A 
ATOM     21  C   UNL     1       2.224   7.949  18.559  0.00  0.00    +0.000 A 
ATOM     22  C   UNL     1       1.646   8.849  17.647  0.00  0.00    +0.000 A 
ATOM     23  C   UNL     1       0.721   9.812  18.070  0.00  0.00    +0.000 A 
BRANCH  21  24
ATOM     24  C   UNL     1       3.190   6.940  18.113  0.00  0.00    +0.000 A 
ATOM     25  C   UNL     1       3.182   5.538  18.362  0.00  0.00    +0.000 A 
ATOM     26  C   UNL     1       4.309   5.066  17.746  0.00  0.00    +0.000 A 
ATOM     27  O   UNL     1       4.961   6.093  17.155  0.00  0.00    +0.000 OA
ATOM     28  N   UNL     1       4.270   7.265  17.378  0.00  0.00    +0.000 NA
ENDBRANCH  21  24
ENDBRANCH   7  18
BRANCH   1  30
ATOM     29  C   UNL     1      -0.244  16.118  20.798  0.00  0.00    +0.000 C 
ATOM     30  C   UNL     1      -1.271  15.364  21.674  0.00  0.00    +0.000 C 
ATOM     31  C   UNL     1      -0.549  14.880  22.949  0.00  0.00    +0.000 C 
ATOM     32  C   UNL     1      -2.355  16.383  22.060  0.00  0.00    +0.000 C 
ENDBRANCH   1  30
TORSDOF 4
ENDMDL
