MODEL 1
REMARK VINA RESULT:      -7.4      0.000      0.000
REMARK  Name = 
REMARK  10 active torsions:
REMARK  status: ('A' for Active; 'I' for Inactive)
REMARK    1  A    between atoms: C_1  and  C_2
REMARK    2  A    between atoms: C_2  and  C_3
REMARK    3  A    between atoms: C_2  and  N_4
REMARK    4  A    between atoms: C_7  and  N_8
REMARK    5  A    between atoms: N_11  and  C_12
REMARK    6  A    between atoms: C_12  and  C_13
REMARK    7  A    between atoms: C_14  and  C_15
REMARK    8  A    between atoms: C_22  and  C_23
REMARK    9  A    between atoms: C_23  and  C_24
REMARK   10  A    between atoms: C_24  and  O_25
REMARK                            x       y       z     vdW  Elec       q    Type
REMARK                         _______ _______ _______ _____ _____    ______ ____
ROOT
ATOM      1  N   UNL     1       4.986   5.172  18.558  0.00  0.00    +0.000 NA
ATOM      2  C   UNL     1       6.071   5.821  19.323  0.00  0.00    +0.000 C 
ATOM      3  C   UNL     1       7.314   6.262  18.506  0.00  0.00    +0.000 C 
ATOM      4  N   UNL     1       7.086   6.824  17.161  0.00  0.00    +0.000 NA
ATOM      5  C   UNL     1       5.908   6.256  16.504  0.00  0.00    +0.000 C 
ATOM      6  C   UNL     1       4.652   5.983  17.369  0.00  0.00    +0.000 C 
ENDROOT
BRANCH   1  10
ATOM      7  N   UNL     1       2.743   1.967  19.269  0.00  0.00    +0.000 NA
ATOM      8  C   UNL     1       2.860   2.510  17.903  0.00  0.00    +0.000 C 
ATOM      9  C   UNL     1       4.260   2.885  17.419  0.00  0.00    +0.000 C 
ATOM     10  C   UNL     1       5.109   3.689  18.422  0.00  0.00    +0.000 C 
ATOM     11  C   UNL     1       5.113   2.846  19.709  0.00  0.00    +0.000 C 
ATOM     12  C   UNL     1       3.716   2.504  20.236  0.00  0.00    +0.000 C 
BRANCH   7  14
ATOM     13  C   UNL     1       1.241   2.867  21.094  0.00  0.00    +0.000 C 
ATOM     14  C   UNL     1       1.335   2.097  19.769  0.00  0.00    +0.000 C 
ATOM     15  C   UNL     1       0.376   2.739  18.760  0.00  0.00    +0.000 C 
ENDBRANCH   7  14
ENDBRANCH   1  10
BRANCH   4  16
ATOM     16  C   UNL     1       7.112   8.277  17.086  0.00  0.00    +0.000 C 
BRANCH  16  17
ATOM     17  C   UNL     1       8.212   8.842  17.925  0.00  0.00    +0.000 C 
ATOM     18  C   UNL     1       8.496  10.153  17.944  0.00  0.00    +0.000 C 
BRANCH  18  19
ATOM     19  C   UNL     1       9.546  10.759  18.764  0.00  0.00    +0.000 A 
ATOM     20  C   UNL     1      10.751  11.115  18.145  0.00  0.00    +0.000 A 
ATOM     21  C   UNL     1      11.767  11.723  18.881  0.00  0.00    +0.000 A 
ATOM     22  C   UNL     1      11.586  11.990  20.233  0.00  0.00    +0.000 A 
ATOM     23  C   UNL     1      10.386  11.657  20.856  0.00  0.00    +0.000 A 
ATOM     24  C   UNL     1       9.367  11.046  20.123  0.00  0.00    +0.000 A 
ENDBRANCH  18  19
ENDBRANCH  16  17
ENDBRANCH   4  16
BRANCH   6  25
ATOM     25  C   UNL     1       3.938   7.322  17.708  0.00  0.00    +0.000 C 
BRANCH  25  26
ATOM     26  C   UNL     1       2.510   7.175  18.226  0.00  0.00    +0.000 C 
BRANCH  26  27
ATOM     27  O   UNL     1       2.283   5.878  18.757  0.00  0.00    +0.000 OA
ATOM     28  H   UNL     1       1.801   6.013  19.600  0.00  0.00    +0.000 HD
ENDBRANCH  26  27
ENDBRANCH  25  26
ENDBRANCH   6  25
TORSDOF 8
ENDMDL
MODEL 2
REMARK VINA RESULT:      -7.2      3.025      7.253
REMARK  Name = 
REMARK  10 active torsions:
REMARK  status: ('A' for Active; 'I' for Inactive)
REMARK    1  A    between atoms: C_1  and  C_2
REMARK    2  A    between atoms: C_2  and  C_3
REMARK    3  A    between atoms: C_2  and  N_4
REMARK    4  A    between atoms: C_7  and  N_8
REMARK    5  A    between atoms: N_11  and  C_12
REMARK    6  A    between atoms: C_12  and  C_13
REMARK    7  A    between atoms: C_14  and  C_15
REMARK    8  A    between atoms: C_22  and  C_23
REMARK    9  A    between atoms: C_23  and  C_24
REMARK   10  A    between atoms: C_24  and  O_25
REMARK                            x       y       z     vdW  Elec       q    Type
REMARK                         _______ _______ _______ _____ _____    ______ ____
ROOT
ATOM      1  N   UNL     1       4.351   3.746  17.428  0.00  0.00    +0.000 NA
ATOM      2  C   UNL     1       4.988   4.157  18.696  0.00  0.00    +0.000 C 
ATOM      3  C   UNL     1       4.446   5.457  19.344  0.00  0.00    +0.000 C 
ATOM      4  N   UNL     1       2.993   5.703  19.278  0.00  0.00    +0.000 NA
ATOM      5  C   UNL     1       2.381   5.142  18.072  0.00  0.00    +0.000 C 
ATOM      6  C   UNL     1       2.880   3.763  17.574  0.00  0.00    +0.000 C 
ENDROOT
BRANCH   1  10
ATOM      7  N   UNL     1       7.205   6.365  16.529  0.00  0.00    +0.000 NA
ATOM      8  C   UNL     1       7.476   4.917  16.481  0.00  0.00    +0.000 C 
ATOM      9  C   UNL     1       6.432   4.031  15.802  0.00  0.00    +0.000 C 
ATOM     10  C   UNL     1       4.970   4.320  16.195  0.00  0.00    +0.000 C 
ATOM     11  C   UNL     1       4.771   5.821  15.922  0.00  0.00    +0.000 C 
ATOM     12  C   UNL     1       5.780   6.726  16.636  0.00  0.00    +0.000 C 
BRANCH   7  14
ATOM     13  C   UNL     1       7.711   8.515  17.760  0.00  0.00    +0.000 C 
ATOM     14  C   UNL     1       8.025   7.020  17.598  0.00  0.00    +0.000 C 
ATOM     15  C   UNL     1       7.910   6.344  18.970  0.00  0.00    +0.000 C 
ENDBRANCH   7  14
ENDBRANCH   1  10
BRANCH   4  16
ATOM     16  C   UNL     1       2.252   5.358  20.481  0.00  0.00    +0.000 C 
BRANCH  16  17
ATOM     17  C   UNL     1       1.323   6.460  20.879  0.00  0.00    +0.000 C 
ATOM     18  C   UNL     1       1.661   7.753  20.774  0.00  0.00    +0.000 C 
BRANCH  18  19
ATOM     19  C   UNL     1       0.781   8.868  21.127  0.00  0.00    +0.000 A 
ATOM     20  C   UNL     1       0.473   9.070  22.479  0.00  0.00    +0.000 A 
ATOM     21  C   UNL     1      -0.336  10.138  22.864  0.00  0.00    +0.000 A 
ATOM     22  C   UNL     1      -0.834  11.016  21.909  0.00  0.00    +0.000 A 
ATOM     23  C   UNL     1      -0.521  10.836  20.564  0.00  0.00    +0.000 A 
ATOM     24  C   UNL     1       0.287   9.767  20.174  0.00  0.00    +0.000 A 
ENDBRANCH  18  19
ENDBRANCH  16  17
ENDBRANCH   4  16
BRANCH   6  25
ATOM     25  C   UNL     1       2.332   2.635  18.494  0.00  0.00    +0.000 C 
BRANCH  25  26
ATOM     26  C   UNL     1       0.829   2.689  18.749  0.00  0.00    +0.000 C 
BRANCH  26  27
ATOM     27  O   UNL     1       0.178   1.529  18.251  0.00  0.00    +0.000 OA
ATOM     28  H   UNL     1      -0.771   1.637  18.472  0.00  0.00    +0.000 HD
ENDBRANCH  26  27
ENDBRANCH  25  26
ENDBRANCH   6  25
TORSDOF 8
ENDMDL
MODEL 3
REMARK VINA RESULT:      -7.2      3.298      7.274
REMARK  Name = 
REMARK  10 active torsions:
REMARK  status: ('A' for Active; 'I' for Inactive)
REMARK    1  A    between atoms: C_1  and  C_2
REMARK    2  A    between atoms: C_2  and  C_3
REMARK    3  A    between atoms: C_2  and  N_4
REMARK    4  A    between atoms: C_7  and  N_8
REMARK    5  A    between atoms: N_11  and  C_12
REMARK    6  A    between atoms: C_12  and  C_13
REMARK    7  A    between atoms: C_14  and  C_15
REMARK    8  A    between atoms: C_22  and  C_23
REMARK    9  A    between atoms: C_23  and  C_24
REMARK   10  A    between atoms: C_24  and  O_25
REMARK                            x       y       z     vdW  Elec       q    Type
REMARK                         _______ _______ _______ _____ _____    ______ ____
ROOT
ATOM      1  N   UNL     1       4.011   3.974  17.595  0.00  0.00    +0.000 NA
ATOM      2  C   UNL     1       4.689   4.309  18.865  0.00  0.00    +0.000 C 
ATOM      3  C   UNL     1       4.388   5.713  19.451  0.00  0.00    +0.000 C 
ATOM      4  N   UNL     1       3.008   6.222  19.337  0.00  0.00    +0.000 NA
ATOM      5  C   UNL     1       2.326   5.739  18.135  0.00  0.00    +0.000 C 
ATOM      6  C   UNL     1       2.568   4.271  17.700  0.00  0.00    +0.000 C 
ENDROOT
BRANCH   1  10
ATOM      7  N   UNL     1       7.187   6.179  16.665  0.00  0.00    +0.000 NA
ATOM      8  C   UNL     1       7.293   4.710  16.744  0.00  0.00    +0.000 C 
ATOM      9  C   UNL     1       6.188   3.893  16.075  0.00  0.00    +0.000 C 
ATOM     10  C   UNL     1       4.752   4.372  16.360  0.00  0.00    +0.000 C 
ATOM     11  C   UNL     1       4.740   5.859  15.961  0.00  0.00    +0.000 C 
ATOM     12  C   UNL     1       5.810   6.702  16.662  0.00  0.00    +0.000 C 
BRANCH   7  14
ATOM     13  C   UNL     1       7.781   8.338  17.840  0.00  0.00    +0.000 C 
ATOM     14  C   UNL     1       8.024   6.825  17.727  0.00  0.00    +0.000 C 
ATOM     15  C   UNL     1       7.857   6.198  19.116  0.00  0.00    +0.000 C 
ENDBRANCH   7  14
ENDBRANCH   1  10
BRANCH   4  16
ATOM     16  C   UNL     1       2.192   6.070  20.531  0.00  0.00    +0.000 C 
BRANCH  16  17
ATOM     17  C   UNL     1       1.241   7.213  20.685  0.00  0.00    +0.000 C 
ATOM     18  C   UNL     1       1.436   8.190  21.583  0.00  0.00    +0.000 C 
BRANCH  18  19
ATOM     19  C   UNL     1       0.549   9.341  21.758  0.00  0.00    +0.000 A 
ATOM     20  C   UNL     1       0.323  10.180  20.660  0.00  0.00    +0.000 A 
ATOM     21  C   UNL     1      -0.539  11.269  20.772  0.00  0.00    +0.000 A 
ATOM     22  C   UNL     1      -1.188  11.525  21.974  0.00  0.00    +0.000 A 
ATOM     23  C   UNL     1      -0.986  10.688  23.069  0.00  0.00    +0.000 A 
ATOM     24  C   UNL     1      -0.123   9.596  22.961  0.00  0.00    +0.000 A 
ENDBRANCH  18  19
ENDBRANCH  16  17
ENDBRANCH   4  16
BRANCH   6  25
ATOM     25  C   UNL     1       1.799   3.303  18.644  0.00  0.00    +0.000 C 
BRANCH  25  26
ATOM     26  C   UNL     1       1.836   1.836  18.227  0.00  0.00    +0.000 C 
BRANCH  26  27
ATOM     27  O   UNL     1       3.144   1.298  18.344  0.00  0.00    +0.000 OA
ATOM     28  H   UNL     1       3.165   0.510  17.761  0.00  0.00    +0.000 HD
ENDBRANCH  26  27
ENDBRANCH  25  26
ENDBRANCH   6  25
TORSDOF 8
ENDMDL
MODEL 4
REMARK VINA RESULT:      -7.1      3.428      7.313
REMARK  Name = 
REMARK  10 active torsions:
REMARK  status: ('A' for Active; 'I' for Inactive)
REMARK    1  A    between atoms: C_1  and  C_2
REMARK    2  A    between atoms: C_2  and  C_3
REMARK    3  A    between atoms: C_2  and  N_4
REMARK    4  A    between atoms: C_7  and  N_8
REMARK    5  A    between atoms: N_11  and  C_12
REMARK    6  A    between atoms: C_12  and  C_13
REMARK    7  A    between atoms: C_14  and  C_15
REMARK    8  A    between atoms: C_22  and  C_23
REMARK    9  A    between atoms: C_23  and  C_24
REMARK   10  A    between atoms: C_24  and  O_25
REMARK                            x       y       z     vdW  Elec       q    Type
REMARK                         _______ _______ _______ _____ _____    ______ ____
ROOT
ATOM      1  N   UNL     1       3.815   4.060  17.698  0.00  0.00    +0.000 NA
ATOM      2  C   UNL     1       4.491   4.473  18.946  0.00  0.00    +0.000 C 
ATOM      3  C   UNL     1       4.277   5.945  19.385  0.00  0.00    +0.000 C 
ATOM      4  N   UNL     1       2.938   6.532  19.188  0.00  0.00    +0.000 NA
ATOM      5  C   UNL     1       2.246   5.978  18.022  0.00  0.00    +0.000 C 
ATOM      6  C   UNL     1       2.394   4.462  17.738  0.00  0.00    +0.000 C 
ENDROOT
BRANCH   1  10
ATOM      7  N   UNL     1       7.094   6.033  16.617  0.00  0.00    +0.000 NA
ATOM      8  C   UNL     1       7.144   4.581  16.871  0.00  0.00    +0.000 C 
ATOM      9  C   UNL     1       6.029   3.727  16.269  0.00  0.00    +0.000 C 
ATOM     10  C   UNL     1       4.604   4.284  16.449  0.00  0.00    +0.000 C 
ATOM     11  C   UNL     1       4.658   5.712  15.878  0.00  0.00    +0.000 C 
ATOM     12  C   UNL     1       5.737   6.597  16.508  0.00  0.00    +0.000 C 
BRANCH   7  14
ATOM     13  C   UNL     1       7.573   8.266  17.701  0.00  0.00    +0.000 C 
ATOM     14  C   UNL     1       7.925   6.773  17.621  0.00  0.00    +0.000 C 
ATOM     15  C   UNL     1       7.865   6.179  19.033  0.00  0.00    +0.000 C 
ENDBRANCH   7  14
ENDBRANCH   1  10
BRANCH   4  16
ATOM     16  C   UNL     1       2.092   6.553  20.370  0.00  0.00    +0.000 C 
BRANCH  16  17
ATOM     17  C   UNL     1       1.665   7.946  20.704  0.00  0.00    +0.000 C 
ATOM     18  C   UNL     1       0.462   8.219  21.229  0.00  0.00    +0.000 C 
BRANCH  18  19
ATOM     19  C   UNL     1       0.004   9.561  21.595  0.00  0.00    +0.000 A 
ATOM     20  C   UNL     1      -0.706   9.719  22.792  0.00  0.00    +0.000 A 
ATOM     21  C   UNL     1      -1.134  10.983  23.194  0.00  0.00    +0.000 A 
ATOM     22  C   UNL     1      -0.849  12.097  22.414  0.00  0.00    +0.000 A 
ATOM     23  C   UNL     1      -0.128  11.956  21.231  0.00  0.00    +0.000 A 
ATOM     24  C   UNL     1       0.300  10.692  20.823  0.00  0.00    +0.000 A 
ENDBRANCH  18  19
ENDBRANCH  16  17
ENDBRANCH   4  16
BRANCH   6  25
ATOM     25  C   UNL     1       1.544   3.646  18.752  0.00  0.00    +0.000 C 
BRANCH  25  26
ATOM     26  C   UNL     1       1.673   2.131  18.625  0.00  0.00    +0.000 C 
BRANCH  26  27
ATOM     27  O   UNL     1       2.124   1.757  17.332  0.00  0.00    +0.000 OA
ATOM     28  H   UNL     1       2.900   2.325  17.143  0.00  0.00    +0.000 HD
ENDBRANCH  26  27
ENDBRANCH  25  26
ENDBRANCH   6  25
TORSDOF 8
ENDMDL
MODEL 5
REMARK VINA RESULT:      -7.0      2.142      3.168
REMARK  Name = 
REMARK  10 active torsions:
REMARK  status: ('A' for Active; 'I' for Inactive)
REMARK    1  A    between atoms: C_1  and  C_2
REMARK    2  A    between atoms: C_2  and  C_3
REMARK    3  A    between atoms: C_2  and  N_4
REMARK    4  A    between atoms: C_7  and  N_8
REMARK    5  A    between atoms: N_11  and  C_12
REMARK    6  A    between atoms: C_12  and  C_13
REMARK    7  A    between atoms: C_14  and  C_15
REMARK    8  A    between atoms: C_22  and  C_23
REMARK    9  A    between atoms: C_23  and  C_24
REMARK   10  A    between atoms: C_24  and  O_25
REMARK                            x       y       z     vdW  Elec       q    Type
REMARK                         _______ _______ _______ _____ _____    ______ ____
ROOT
ATOM      1  N   UNL     1       4.918   4.644  16.431  0.00  0.00    +0.000 NA
ATOM      2  C   UNL     1       4.630   6.093  16.431  0.00  0.00    +0.000 C 
ATOM      3  C   UNL     1       5.362   6.936  17.507  0.00  0.00    +0.000 C 
ATOM      4  N   UNL     1       6.761   6.587  17.817  0.00  0.00    +0.000 NA
ATOM      5  C   UNL     1       7.035   5.158  17.655  0.00  0.00    +0.000 C 
ATOM      6  C   UNL     1       6.378   4.421  16.461  0.00  0.00    +0.000 C 
ENDROOT
BRANCH   1  10
ATOM      7  N   UNL     1       2.538   5.239  19.561  0.00  0.00    +0.000 NA
ATOM      8  C   UNL     1       1.974   5.123  18.204  0.00  0.00    +0.000 C 
ATOM      9  C   UNL     1       2.502   3.991  17.322  0.00  0.00    +0.000 C 
ATOM     10  C   UNL     1       4.034   3.825  17.314  0.00  0.00    +0.000 C 
ATOM     11  C   UNL     1       4.428   3.682  18.795  0.00  0.00    +0.000 C 
ATOM     12  C   UNL     1       3.950   4.834  19.683  0.00  0.00    +0.000 C 
BRANCH   7  14
ATOM     13  C   UNL     1       2.187   7.684  19.017  0.00  0.00    +0.000 C 
ATOM     14  C   UNL     1       2.306   6.614  20.112  0.00  0.00    +0.000 C 
ATOM     15  C   UNL     1       1.082   6.714  21.031  0.00  0.00    +0.000 C 
ENDBRANCH   7  14
ENDBRANCH   1  10
BRANCH   4  16
ATOM     16  C   UNL     1       7.763   7.417  17.166  0.00  0.00    +0.000 C 
BRANCH  16  17
ATOM     17  C   UNL     1       8.265   8.482  18.087  0.00  0.00    +0.000 C 
ATOM     18  C   UNL     1       8.520   9.729  17.667  0.00  0.00    +0.000 C 
BRANCH  18  19
ATOM     19  C   UNL     1       8.989  10.813  18.532  0.00  0.00    +0.000 A 
ATOM     20  C   UNL     1       9.435  10.491  19.820  0.00  0.00    +0.000 A 
ATOM     21  C   UNL     1       9.920  11.487  20.666  0.00  0.00    +0.000 A 
ATOM     22  C   UNL     1       9.973  12.806  20.233  0.00  0.00    +0.000 A 
ATOM     23  C   UNL     1       9.550  13.137  18.948  0.00  0.00    +0.000 A 
ATOM     24  C   UNL     1       9.062  12.143  18.098  0.00  0.00    +0.000 A 
ENDBRANCH  18  19
ENDBRANCH  16  17
ENDBRANCH   4  16
BRANCH   6  25
ATOM     25  C   UNL     1       7.095   4.807  15.137  0.00  0.00    +0.000 C 
BRANCH  25  26
ATOM     26  C   UNL     1       6.671   3.996  13.916  0.00  0.00    +0.000 C 
BRANCH  26  27
ATOM     27  O   UNL     1       5.272   4.094  13.691  0.00  0.00    +0.000 OA
ATOM     28  H   UNL     1       4.892   3.237  13.978  0.00  0.00    +0.000 HD
ENDBRANCH  26  27
ENDBRANCH  25  26
ENDBRANCH   6  25
TORSDOF 8
ENDMDL
MODEL 6
REMARK VINA RESULT:      -7.0      2.102      3.168
REMARK  Name = 
REMARK  10 active torsions:
REMARK  status: ('A' for Active; 'I' for Inactive)
REMARK    1  A    between atoms: C_1  and  C_2
REMARK    2  A    between atoms: C_2  and  C_3
REMARK    3  A    between atoms: C_2  and  N_4
REMARK    4  A    between atoms: C_7  and  N_8
REMARK    5  A    between atoms: N_11  and  C_12
REMARK    6  A    between atoms: C_12  and  C_13
REMARK    7  A    between atoms: C_14  and  C_15
REMARK    8  A    between atoms: C_22  and  C_23
REMARK    9  A    between atoms: C_23  and  C_24
REMARK   10  A    between atoms: C_24  and  O_25
REMARK                            x       y       z     vdW  Elec       q    Type
REMARK                         _______ _______ _______ _____ _____    ______ ____
ROOT
ATOM      1  N   UNL     1       5.084   4.473  16.824  0.00  0.00    +0.000 NA
ATOM      2  C   UNL     1       4.751   5.812  16.297  0.00  0.00    +0.000 C 
ATOM      3  C   UNL     1       5.189   7.018  17.169  0.00  0.00    +0.000 C 
ATOM      4  N   UNL     1       6.493   6.933  17.853  0.00  0.00    +0.000 NA
ATOM      5  C   UNL     1       6.847   5.561  18.221  0.00  0.00    +0.000 C 
ATOM      6  C   UNL     1       6.506   4.427  17.223  0.00  0.00    +0.000 C 
ENDROOT
BRANCH   1  10
ATOM      7  N   UNL     1       2.476   5.743  19.544  0.00  0.00    +0.000 NA
ATOM      8  C   UNL     1       2.036   5.442  18.170  0.00  0.00    +0.000 C 
ATOM      9  C   UNL     1       2.547   4.146  17.540  0.00  0.00    +0.000 C 
ATOM     10  C   UNL     1       4.052   3.875  17.725  0.00  0.00    +0.000 C 
ATOM     11  C   UNL     1       4.290   3.953  19.244  0.00  0.00    +0.000 C 
ATOM     12  C   UNL     1       3.829   5.267  19.881  0.00  0.00    +0.000 C 
BRANCH   7  14
ATOM     13  C   UNL     1       2.068   8.046  18.582  0.00  0.00    +0.000 C 
ATOM     14  C   UNL     1       2.311   7.203  19.843  0.00  0.00    +0.000 C 
ATOM     15  C   UNL     1       1.202   7.507  20.857  0.00  0.00    +0.000 C 
ENDBRANCH   7  14
ENDBRANCH   1  10
BRANCH   4  16
ATOM     16  C   UNL     1       7.586   7.624  17.188  0.00  0.00    +0.000 C 
BRANCH  16  17
ATOM     17  C   UNL     1       8.405   8.406  18.165  0.00  0.00    +0.000 C 
ATOM     18  C   UNL     1       8.614   9.723  18.030  0.00  0.00    +0.000 C 
BRANCH  18  19
ATOM     19  C   UNL     1       9.387  10.538  18.969  0.00  0.00    +0.000 A 
ATOM     20  C   UNL     1      10.518  11.212  18.490  0.00  0.00    +0.000 A 
ATOM     21  C   UNL     1      11.266  12.023  19.342  0.00  0.00    +0.000 A 
ATOM     22  C   UNL     1      10.888  12.176  20.671  0.00  0.00    +0.000 A 
ATOM     23  C   UNL     1       9.756  11.526  21.154  0.00  0.00    +0.000 A 
ATOM     24  C   UNL     1       9.005  10.711  20.305  0.00  0.00    +0.000 A 
ENDBRANCH  18  19
ENDBRANCH  16  17
ENDBRANCH   4  16
BRANCH   6  25
ATOM     25  C   UNL     1       7.492   4.462  16.021  0.00  0.00    +0.000 C 
BRANCH  25  26
ATOM     26  C   UNL     1       6.831   4.617  14.653  0.00  0.00    +0.000 C 
BRANCH  26  27
ATOM     27  O   UNL     1       6.430   3.361  14.127  0.00  0.00    +0.000 OA
ATOM     28  H   UNL     1       6.323   3.495  13.162  0.00  0.00    +0.000 HD
ENDBRANCH  26  27
ENDBRANCH  25  26
ENDBRANCH   6  25
TORSDOF 8
ENDMDL
MODEL 7
REMARK VINA RESULT:      -7.0      0.586      1.097
REMARK  Name = 
REMARK  10 active torsions:
REMARK  status: ('A' for Active; 'I' for Inactive)
REMARK    1  A    between atoms: C_1  and  C_2
REMARK    2  A    between atoms: C_2  and  C_3
REMARK    3  A    between atoms: C_2  and  N_4
REMARK    4  A    between atoms: C_7  and  N_8
REMARK    5  A    between atoms: N_11  and  C_12
REMARK    6  A    between atoms: C_12  and  C_13
REMARK    7  A    between atoms: C_14  and  C_15
REMARK    8  A    between atoms: C_22  and  C_23
REMARK    9  A    between atoms: C_23  and  C_24
REMARK   10  A    between atoms: C_24  and  O_25
REMARK                            x       y       z     vdW  Elec       q    Type
REMARK                         _______ _______ _______ _____ _____    ______ ____
ROOT
ATOM      1  N   UNL     1       4.933   5.275  18.586  0.00  0.00    +0.000 NA
ATOM      2  C   UNL     1       6.039   5.896  19.343  0.00  0.00    +0.000 C 
ATOM      3  C   UNL     1       7.250   6.386  18.506  0.00  0.00    +0.000 C 
ATOM      4  N   UNL     1       6.972   7.010  17.198  0.00  0.00    +0.000 NA
ATOM      5  C   UNL     1       5.776   6.463  16.555  0.00  0.00    +0.000 C 
ATOM      6  C   UNL     1       4.552   6.138  17.449  0.00  0.00    +0.000 C 
ENDROOT
BRANCH   1  10
ATOM      7  N   UNL     1       2.737   2.019  19.214  0.00  0.00    +0.000 NA
ATOM      8  C   UNL     1       2.806   2.628  17.873  0.00  0.00    +0.000 C 
ATOM      9  C   UNL     1       4.187   3.038  17.362  0.00  0.00    +0.000 C 
ATOM     10  C   UNL     1       5.063   3.801  18.374  0.00  0.00    +0.000 C 
ATOM     11  C   UNL     1       5.115   2.897  19.619  0.00  0.00    +0.000 C 
ATOM     12  C   UNL     1       3.738   2.518  20.174  0.00  0.00    +0.000 C 
BRANCH   7  14
ATOM     13  C   UNL     1       1.290   2.818  21.128  0.00  0.00    +0.000 C 
ATOM     14  C   UNL     1       1.346   2.113  19.765  0.00  0.00    +0.000 C 
ATOM     15  C   UNL     1       0.350   2.795  18.820  0.00  0.00    +0.000 C 
ENDBRANCH   7  14
ENDBRANCH   1  10
BRANCH   4  16
ATOM     16  C   UNL     1       6.984   8.464  17.191  0.00  0.00    +0.000 C 
BRANCH  16  17
ATOM     17  C   UNL     1       8.202   8.998  17.875  0.00  0.00    +0.000 C 
ATOM     18  C   UNL     1       8.457  10.311  17.960  0.00  0.00    +0.000 C 
BRANCH  18  19
ATOM     19  C   UNL     1       9.621  10.885  18.636  0.00  0.00    +0.000 A 
ATOM     20  C   UNL     1       9.541  11.119  20.015  0.00  0.00    +0.000 A 
ATOM     21  C   UNL     1      10.636  11.635  20.706  0.00  0.00    +0.000 A 
ATOM     22  C   UNL     1      11.819  11.913  20.032  0.00  0.00    +0.000 A 
ATOM     23  C   UNL     1      11.917  11.668  18.664  0.00  0.00    +0.000 A 
ATOM     24  C   UNL     1      10.823  11.153  17.968  0.00  0.00    +0.000 A 
ENDBRANCH  18  19
ENDBRANCH  16  17
ENDBRANCH   4  16
BRANCH   6  25
ATOM     25  C   UNL     1       3.841   7.453  17.875  0.00  0.00    +0.000 C 
BRANCH  25  26
ATOM     26  C   UNL     1       2.339   7.322  18.112  0.00  0.00    +0.000 C 
BRANCH  26  27
ATOM     27  O   UNL     1       1.642   8.471  17.654  0.00  0.00    +0.000 OA
ATOM     28  H   UNL     1       2.322   9.068  17.277  0.00  0.00    +0.000 HD
ENDBRANCH  26  27
ENDBRANCH  25  26
ENDBRANCH   6  25
TORSDOF 8
ENDMDL
MODEL 8
REMARK VINA RESULT:      -6.8      2.834      7.029
REMARK  Name = 
REMARK  10 active torsions:
REMARK  status: ('A' for Active; 'I' for Inactive)
REMARK    1  A    between atoms: C_1  and  C_2
REMARK    2  A    between atoms: C_2  and  C_3
REMARK    3  A    between atoms: C_2  and  N_4
REMARK    4  A    between atoms: C_7  and  N_8
REMARK    5  A    between atoms: N_11  and  C_12
REMARK    6  A    between atoms: C_12  and  C_13
REMARK    7  A    between atoms: C_14  and  C_15
REMARK    8  A    between atoms: C_22  and  C_23
REMARK    9  A    between atoms: C_23  and  C_24
REMARK   10  A    between atoms: C_24  and  O_25
REMARK                            x       y       z     vdW  Elec       q    Type
REMARK                         _______ _______ _______ _____ _____    ______ ____
ROOT
ATOM      1  N   UNL     1       4.365   3.606  17.307  0.00  0.00    +0.000 NA
ATOM      2  C   UNL     1       4.953   3.762  18.654  0.00  0.00    +0.000 C 
ATOM      3  C   UNL     1       4.574   5.056  19.420  0.00  0.00    +0.000 C 
ATOM      4  N   UNL     1       3.189   5.547  19.292  0.00  0.00    +0.000 NA
ATOM      5  C   UNL     1       2.597   5.234  17.990  0.00  0.00    +0.000 C 
ATOM      6  C   UNL     1       2.910   3.854  17.360  0.00  0.00    +0.000 C 
ENDROOT
BRANCH   1  10
ATOM      7  N   UNL     1       6.942   6.597  16.826  0.00  0.00    +0.000 NA
ATOM      8  C   UNL     1       7.423   5.212  16.976  0.00  0.00    +0.000 C 
ATOM      9  C   UNL     1       6.707   4.130  16.168  0.00  0.00    +0.000 C 
ATOM     10  C   UNL     1       5.168   4.200  16.195  0.00  0.00    +0.000 C 
ATOM     11  C   UNL     1       4.825   5.631  15.744  0.00  0.00    +0.000 C 
ATOM     12  C   UNL     1       5.495   6.727  16.577  0.00  0.00    +0.000 C 
BRANCH   7  14
ATOM     13  C   UNL     1       8.223   6.654  19.005  0.00  0.00    +0.000 C 
ATOM     14  C   UNL     1       7.384   7.438  17.985  0.00  0.00    +0.000 C 
ATOM     15  C   UNL     1       8.158   8.697  17.577  0.00  0.00    +0.000 C 
ENDBRANCH   7  14
ENDBRANCH   1  10
BRANCH   4  16
ATOM     16  C   UNL     1       2.306   5.201  20.395  0.00  0.00    +0.000 C 
BRANCH  16  17
ATOM     17  C   UNL     1       1.628   6.415  20.946  0.00  0.00    +0.000 C 
ATOM     18  C   UNL     1       1.682   7.605  20.332  0.00  0.00    +0.000 C 
BRANCH  18  19
ATOM     19  C   UNL     1       1.018   8.816  20.817  0.00  0.00    +0.000 A 
ATOM     20  C   UNL     1       0.814   9.870  19.917  0.00  0.00    +0.000 A 
ATOM     21  C   UNL     1       0.159  11.029  20.327  0.00  0.00    +0.000 A 
ATOM     22  C   UNL     1      -0.308  11.143  21.631  0.00  0.00    +0.000 A 
ATOM     23  C   UNL     1      -0.128  10.095  22.531  0.00  0.00    +0.000 A 
ATOM     24  C   UNL     1       0.530   8.933  22.125  0.00  0.00    +0.000 A 
ENDBRANCH  18  19
ENDBRANCH  16  17
ENDBRANCH   4  16
BRANCH   6  25
ATOM     25  C   UNL     1       2.115   2.740  18.098  0.00  0.00    +0.000 C 
BRANCH  25  26
ATOM     26  C   UNL     1       0.690   3.121  18.492  0.00  0.00    +0.000 C 
BRANCH  26  27
ATOM     27  O   UNL     1       0.169   2.233  19.469  0.00  0.00    +0.000 OA
ATOM     28  H   UNL     1       0.218   2.713  20.323  0.00  0.00    +0.000 HD
ENDBRANCH  26  27
ENDBRANCH  25  26
ENDBRANCH   6  25
TORSDOF 8
ENDMDL
MODEL 9
REMARK VINA RESULT:      -6.8      2.099      2.947
REMARK  Name = 
REMARK  10 active torsions:
REMARK  status: ('A' for Active; 'I' for Inactive)
REMARK    1  A    between atoms: C_1  and  C_2
REMARK    2  A    between atoms: C_2  and  C_3
REMARK    3  A    between atoms: C_2  and  N_4
REMARK    4  A    between atoms: C_7  and  N_8
REMARK    5  A    between atoms: N_11  and  C_12
REMARK    6  A    between atoms: C_12  and  C_13
REMARK    7  A    between atoms: C_14  and  C_15
REMARK    8  A    between atoms: C_22  and  C_23
REMARK    9  A    between atoms: C_23  and  C_24
REMARK   10  A    between atoms: C_24  and  O_25
REMARK                            x       y       z     vdW  Elec       q    Type
REMARK                         _______ _______ _______ _____ _____    ______ ____
ROOT
ATOM      1  N   UNL     1       5.191   4.573  16.370  0.00  0.00    +0.000 NA
ATOM      2  C   UNL     1       4.729   5.973  16.473  0.00  0.00    +0.000 C 
ATOM      3  C   UNL     1       5.413   6.840  17.562  0.00  0.00    +0.000 C 
ATOM      4  N   UNL     1       6.860   6.651  17.780  0.00  0.00    +0.000 NA
ATOM      5  C   UNL     1       7.295   5.278  17.518  0.00  0.00    +0.000 C 
ATOM      6  C   UNL     1       6.667   4.531  16.315  0.00  0.00    +0.000 C 
ENDROOT
BRANCH   1  10
ATOM      7  N   UNL     1       2.362   4.692  19.163  0.00  0.00    +0.000 NA
ATOM      8  C   UNL     1       2.030   4.316  17.777  0.00  0.00    +0.000 C 
ATOM      9  C   UNL     1       2.957   3.322  17.080  0.00  0.00    +0.000 C 
ATOM     10  C   UNL     1       4.464   3.602  17.244  0.00  0.00    +0.000 C 
ATOM     11  C   UNL     1       4.691   3.691  18.763  0.00  0.00    +0.000 C 
ATOM     12  C   UNL     1       3.804   4.721  19.469  0.00  0.00    +0.000 C 
BRANCH   7  14
ATOM     13  C   UNL     1       1.614   6.194  21.055  0.00  0.00    +0.000 C 
ATOM     14  C   UNL     1       1.690   5.979  19.536  0.00  0.00    +0.000 C 
ATOM     15  C   UNL     1       2.327   7.219  18.897  0.00  0.00    +0.000 C 
ENDBRANCH   7  14
ENDBRANCH   1  10
BRANCH   4  16
ATOM     16  C   UNL     1       7.716   7.633  17.133  0.00  0.00    +0.000 C 
BRANCH  16  17
ATOM     17  C   UNL     1       8.260   8.612  18.123  0.00  0.00    +0.000 C 
ATOM     18  C   UNL     1       8.585   9.868  17.784  0.00  0.00    +0.000 C 
BRANCH  18  19
ATOM     19  C   UNL     1       9.100  10.870  18.718  0.00  0.00    +0.000 A 
ATOM     20  C   UNL     1       9.163  12.204  18.295  0.00  0.00    +0.000 A 
ATOM     21  C   UNL     1       9.617  13.195  19.163  0.00  0.00    +0.000 A 
ATOM     22  C   UNL     1      10.001  12.869  20.458  0.00  0.00    +0.000 A 
ATOM     23  C   UNL     1       9.927  11.549  20.896  0.00  0.00    +0.000 A 
ATOM     24  C   UNL     1       9.474  10.552  20.030  0.00  0.00    +0.000 A 
ENDBRANCH  18  19
ENDBRANCH  16  17
ENDBRANCH   4  16
BRANCH   6  25
ATOM     25  C   UNL     1       7.256   5.076  14.983  0.00  0.00    +0.000 C 
BRANCH  25  26
ATOM     26  C   UNL     1       6.833   4.310  13.733  0.00  0.00    +0.000 C 
BRANCH  26  27
ATOM     27  O   UNL     1       6.064   3.164  14.065  0.00  0.00    +0.000 OA
ATOM     28  H   UNL     1       6.571   2.690  14.757  0.00  0.00    +0.000 HD
ENDBRANCH  26  27
ENDBRANCH  25  26
ENDBRANCH   6  25
TORSDOF 8
ENDMDL
