MODEL 1
REMARK VINA RESULT:      -7.4      0.000      0.000
REMARK  Name = 
REMARK  0 active torsions:
REMARK  status: ('A' for Active; 'I' for Inactive)
REMARK                            x       y       z     vdW  Elec       q    Type
REMARK                         _______ _______ _______ _____ _____    ______ ____
ROOT
ATOM      1  C   UNL     1       2.119   7.425  19.743  0.00  0.00    +0.000 A 
ATOM      2  C   UNL     1       1.703   6.281  20.414  0.00  0.00    +0.000 A 
ATOM      3  C   UNL     1       2.100   4.971  20.035  0.00  0.00    +0.000 A 
ATOM      4  C   UNL     1       2.996   4.904  18.869  0.00  0.00    +0.000 A 
ATOM      5  C   UNL     1       3.424   6.073  18.203  0.00  0.00    +0.000 A 
ATOM      6  C   UNL     1       2.974   7.331  18.650  0.00  0.00    +0.000 A 
ATOM      7  C   UNL     1       4.288   5.697  17.131  0.00  0.00    +0.000 A 
ATOM      8  C   UNL     1       4.364   4.323  17.110  0.00  0.00    +0.000 A 
ATOM      9  N   UNL     1       3.615   3.836  18.144  0.00  0.00    +0.000 N 
ATOM     10  C   UNL     1       3.484   2.368  18.440  0.00  0.00    +0.000 C 
ATOM     11  C   UNL     1       2.577   2.401  19.615  0.00  0.00    +0.000 C 
ATOM     12  N   UNL     1       1.717   2.365  20.738  0.00  0.00    +0.000 NA
ATOM     13  C   UNL     1       1.464   3.843  20.985  0.00  0.00    +0.000 C 
ATOM     14  C   UNL     1       5.153   3.505  16.144  0.00  0.00    +0.000 C 
ATOM     15  C   UNL     1       5.546   4.369  14.935  0.00  0.00    +0.000 C 
ATOM     16  C   UNL     1       6.075   5.744  15.377  0.00  0.00    +0.000 C 
ATOM     17  C   UNL     1       4.996   6.551  16.128  0.00  0.00    +0.000 C 
ATOM     18  H   UNL     1       2.188   1.974  21.553  0.00  0.00    +0.000 HD
ENDROOT
TORSDOF 0
ENDMDL
MODEL 2
REMARK VINA RESULT:      -7.2      1.330      3.205
REMARK  Name = 
REMARK  0 active torsions:
REMARK  status: ('A' for Active; 'I' for Inactive)
REMARK                            x       y       z     vdW  Elec       q    Type
REMARK                         _______ _______ _______ _____ _____    ______ ____
ROOT
ATOM      1  C   UNL     1       2.551   1.786  19.037  0.00  0.00    +0.000 A 
ATOM      2  C   UNL     1       2.007   2.796  19.822  0.00  0.00    +0.000 A 
ATOM      3  C   UNL     1       2.267   4.175  19.602  0.00  0.00    +0.000 A 
ATOM      4  C   UNL     1       3.163   4.468  18.471  0.00  0.00    +0.000 A 
ATOM      5  C   UNL     1       3.699   3.436  17.672  0.00  0.00    +0.000 A 
ATOM      6  C   UNL     1       3.387   2.094  17.969  0.00  0.00    +0.000 A 
ATOM      7  C   UNL     1       4.512   4.021  16.655  0.00  0.00    +0.000 A 
ATOM      8  C   UNL     1       4.508   5.384  16.842  0.00  0.00    +0.000 A 
ATOM      9  N   UNL     1       3.701   5.668  17.908  0.00  0.00    +0.000 N 
ATOM     10  C   UNL     1       3.444   7.069  18.389  0.00  0.00    +0.000 C 
ATOM     11  C   UNL     1       2.543   6.808  19.540  0.00  0.00    +0.000 C 
ATOM     12  N   UNL     1       1.679   6.624  20.645  0.00  0.00    +0.000 NA
ATOM     13  C   UNL     1       1.510   5.114  20.662  0.00  0.00    +0.000 C 
ATOM     14  C   UNL     1       5.236   6.384  16.008  0.00  0.00    +0.000 C 
ATOM     15  C   UNL     1       6.305   5.672  15.164  0.00  0.00    +0.000 C 
ATOM     16  C   UNL     1       5.746   4.398  14.509  0.00  0.00    +0.000 C 
ATOM     17  C   UNL     1       5.300   3.367  15.565  0.00  0.00    +0.000 C 
ATOM     18  H   UNL     1       0.769   7.052  20.480  0.00  0.00    +0.000 HD
ENDROOT
TORSDOF 0
ENDMDL
MODEL 3
REMARK VINA RESULT:      -7.1      0.944      1.015
REMARK  Name = 
REMARK  0 active torsions:
REMARK  status: ('A' for Active; 'I' for Inactive)
REMARK                            x       y       z     vdW  Elec       q    Type
REMARK                         _______ _______ _______ _____ _____    ______ ____
ROOT
ATOM      1  C   UNL     1       1.929   6.574  20.267  0.00  0.00    +0.000 A 
ATOM      2  C   UNL     1       1.373   5.304  20.383  0.00  0.00    +0.000 A 
ATOM      3  C   UNL     1       1.821   4.189  19.628  0.00  0.00    +0.000 A 
ATOM      4  C   UNL     1       2.930   4.468  18.700  0.00  0.00    +0.000 A 
ATOM      5  C   UNL     1       3.496   5.757  18.599  0.00  0.00    +0.000 A 
ATOM      6  C   UNL     1       2.982   6.805  19.388  0.00  0.00    +0.000 A 
ATOM      7  C   UNL     1       4.551   5.718  17.638  0.00  0.00    +0.000 A 
ATOM      8  C   UNL     1       4.612   4.441  17.128  0.00  0.00    +0.000 A 
ATOM      9  N   UNL     1       3.666   3.682  17.758  0.00  0.00    +0.000 N 
ATOM     10  C   UNL     1       3.461   2.222  17.465  0.00  0.00    +0.000 C 
ATOM     11  C   UNL     1       2.339   1.908  18.386  0.00  0.00    +0.000 C 
ATOM     12  N   UNL     1       1.274   1.546  19.243  0.00  0.00    +0.000 NA
ATOM     13  C   UNL     1       0.995   2.853  19.966  0.00  0.00    +0.000 C 
ATOM     14  C   UNL     1       5.567   3.959  16.088  0.00  0.00    +0.000 C 
ATOM     15  C   UNL     1       6.203   5.162  15.373  0.00  0.00    +0.000 C 
ATOM     16  C   UNL     1       6.651   6.238  16.377  0.00  0.00    +0.000 C 
ATOM     17  C   UNL     1       5.455   6.811  17.164  0.00  0.00    +0.000 C 
ATOM     18  H   UNL     1       1.568   0.851  19.928  0.00  0.00    +0.000 HD
ENDROOT
TORSDOF 0
ENDMDL
MODEL 4
REMARK VINA RESULT:      -7.0      1.769      4.690
REMARK  Name = 
REMARK  0 active torsions:
REMARK  status: ('A' for Active; 'I' for Inactive)
REMARK                            x       y       z     vdW  Elec       q    Type
REMARK                         _______ _______ _______ _____ _____    ______ ____
ROOT
ATOM      1  C   UNL     1       2.542   8.120  17.830  0.00  0.00    +0.000 A 
ATOM      2  C   UNL     1       3.792   7.924  17.253  0.00  0.00    +0.000 A 
ATOM      3  C   UNL     1       4.577   6.764  17.477  0.00  0.00    +0.000 A 
ATOM      4  C   UNL     1       3.972   5.765  18.374  0.00  0.00    +0.000 A 
ATOM      5  C   UNL     1       2.697   5.966  18.944  0.00  0.00    +0.000 A 
ATOM      6  C   UNL     1       1.992   7.153  18.666  0.00  0.00    +0.000 A 
ATOM      7  C   UNL     1       2.373   4.833  19.749  0.00  0.00    +0.000 A 
ATOM      8  C   UNL     1       3.440   3.964  19.707  0.00  0.00    +0.000 A 
ATOM      9  N   UNL     1       4.393   4.495  18.884  0.00  0.00    +0.000 N 
ATOM     10  C   UNL     1       5.694   3.804  18.586  0.00  0.00    +0.000 C 
ATOM     11  C   UNL     1       6.334   4.793  17.683  0.00  0.00    +0.000 C 
ATOM     12  N   UNL     1       6.996   5.694  16.815  0.00  0.00    +0.000 NA
ATOM     13  C   UNL     1       5.974   6.811  16.687  0.00  0.00    +0.000 C 
ATOM     14  C   UNL     1       3.529   2.655  20.415  0.00  0.00    +0.000 C 
ATOM     15  C   UNL     1       2.453   2.584  21.510  0.00  0.00    +0.000 C 
ATOM     16  C   UNL     1       1.091   3.075  20.990  0.00  0.00    +0.000 C 
ATOM     17  C   UNL     1       1.150   4.556  20.564  0.00  0.00    +0.000 C 
ATOM     18  H   UNL     1       7.145   5.281  15.895  0.00  0.00    +0.000 HD
ENDROOT
TORSDOF 0
ENDMDL
MODEL 5
REMARK VINA RESULT:      -6.9      1.465      4.329
REMARK  Name = 
REMARK  0 active torsions:
REMARK  status: ('A' for Active; 'I' for Inactive)
REMARK                            x       y       z     vdW  Elec       q    Type
REMARK                         _______ _______ _______ _____ _____    ______ ____
ROOT
ATOM      1  C   UNL     1       5.113   5.349  16.487  0.00  0.00    +0.000 A 
ATOM      2  C   UNL     1       5.031   4.218  17.291  0.00  0.00    +0.000 A 
ATOM      3  C   UNL     1       4.216   4.148  18.452  0.00  0.00    +0.000 A 
ATOM      4  C   UNL     1       3.453   5.371  18.751  0.00  0.00    +0.000 A 
ATOM      5  C   UNL     1       3.533   6.510  17.922  0.00  0.00    +0.000 A 
ATOM      6  C   UNL     1       4.372   6.487  16.791  0.00  0.00    +0.000 A 
ATOM      7  C   UNL     1       2.679   7.523  18.453  0.00  0.00    +0.000 A 
ATOM      8  C   UNL     1       2.111   7.035  19.608  0.00  0.00    +0.000 A 
ATOM      9  N   UNL     1       2.548   5.754  19.792  0.00  0.00    +0.000 N 
ATOM     10  C   UNL     1       2.112   4.900  20.950  0.00  0.00    +0.000 C 
ATOM     11  C   UNL     1       2.873   3.654  20.679  0.00  0.00    +0.000 C 
ATOM     12  N   UNL     1       3.569   2.439  20.474  0.00  0.00    +0.000 NA
ATOM     13  C   UNL     1       4.321   2.724  19.185  0.00  0.00    +0.000 C 
ATOM     14  C   UNL     1       1.158   7.768  20.490  0.00  0.00    +0.000 C 
ATOM     15  C   UNL     1       1.203   9.270  20.166  0.00  0.00    +0.000 C 
ATOM     16  C   UNL     1       1.177   9.517  18.648  0.00  0.00    +0.000 C 
ATOM     17  C   UNL     1       2.412   8.907  17.954  0.00  0.00    +0.000 C 
ATOM     18  H   UNL     1       2.925   1.666  20.312  0.00  0.00    +0.000 HD
ENDROOT
TORSDOF 0
ENDMDL
MODEL 6
REMARK VINA RESULT:      -6.7      1.621      3.308
REMARK  Name = 
REMARK  0 active torsions:
REMARK  status: ('A' for Active; 'I' for Inactive)
REMARK                            x       y       z     vdW  Elec       q    Type
REMARK                         _______ _______ _______ _____ _____    ______ ____
ROOT
ATOM      1  C   UNL     1       2.704   3.262  20.626  0.00  0.00    +0.000 A 
ATOM      2  C   UNL     1       2.068   4.449  20.971  0.00  0.00    +0.000 A 
ATOM      3  C   UNL     1       2.193   5.645  20.215  0.00  0.00    +0.000 A 
ATOM      4  C   UNL     1       3.052   5.542  19.024  0.00  0.00    +0.000 A 
ATOM      5  C   UNL     1       3.682   4.329  18.674  0.00  0.00    +0.000 A 
ATOM      6  C   UNL     1       3.501   3.193  19.488  0.00  0.00    +0.000 A 
ATOM      7  C   UNL     1       4.430   4.531  17.476  0.00  0.00    +0.000 A 
ATOM      8  C   UNL     1       4.296   5.851  17.111  0.00  0.00    +0.000 A 
ATOM      9  N   UNL     1       3.470   6.463  18.011  0.00  0.00    +0.000 N 
ATOM     10  C   UNL     1       3.082   7.912  17.912  0.00  0.00    +0.000 C 
ATOM     11  C   UNL     1       2.214   8.051  19.109  0.00  0.00    +0.000 C 
ATOM     12  N   UNL     1       1.377   8.246  20.233  0.00  0.00    +0.000 NA
ATOM     13  C   UNL     1       1.354   6.858  20.850  0.00  0.00    +0.000 C 
ATOM     14  C   UNL     1       4.921   6.497  15.921  0.00  0.00    +0.000 C 
ATOM     15  C   UNL     1       6.050   5.605  15.381  0.00  0.00    +0.000 C 
ATOM     16  C   UNL     1       5.613   4.132  15.305  0.00  0.00    +0.000 C 
ATOM     17  C   UNL     1       5.274   3.570  16.700  0.00  0.00    +0.000 C 
ATOM     18  H   UNL     1       0.429   8.493  19.950  0.00  0.00    +0.000 HD
ENDROOT
TORSDOF 0
ENDMDL
MODEL 7
REMARK VINA RESULT:      -6.6      1.694      4.718
REMARK  Name = 
REMARK  0 active torsions:
REMARK  status: ('A' for Active; 'I' for Inactive)
REMARK                            x       y       z     vdW  Elec       q    Type
REMARK                         _______ _______ _______ _____ _____    ______ ____
ROOT
ATOM      1  C   UNL     1       2.348   3.115  21.233  0.00  0.00    +0.000 A 
ATOM      2  C   UNL     1       3.175   2.707  20.192  0.00  0.00    +0.000 A 
ATOM      3  C   UNL     1       3.580   3.568  19.139  0.00  0.00    +0.000 A 
ATOM      4  C   UNL     1       3.060   4.943  19.223  0.00  0.00    +0.000 A 
ATOM      5  C   UNL     1       2.233   5.352  20.291  0.00  0.00    +0.000 A 
ATOM      6  C   UNL     1       1.880   4.424  21.290  0.00  0.00    +0.000 A 
ATOM      7  C   UNL     1       1.901   6.728  20.110  0.00  0.00    +0.000 A 
ATOM      8  C   UNL     1       2.481   7.154  18.937  0.00  0.00    +0.000 A 
ATOM      9  N   UNL     1       3.185   6.110  18.404  0.00  0.00    +0.000 N 
ATOM     10  C   UNL     1       3.968   6.220  17.125  0.00  0.00    +0.000 C 
ATOM     11  C   UNL     1       4.504   4.840  17.008  0.00  0.00    +0.000 C 
ATOM     12  N   UNL     1       5.046   3.544  16.841  0.00  0.00    +0.000 NA
ATOM     13  C   UNL     1       4.529   2.827  18.076  0.00  0.00    +0.000 C 
ATOM     14  C   UNL     1       2.383   8.525  18.360  0.00  0.00    +0.000 C 
ATOM     15  C   UNL     1       1.229   9.287  19.031  0.00  0.00    +0.000 C 
ATOM     16  C   UNL     1       1.249   9.105  20.558  0.00  0.00    +0.000 C 
ATOM     17  C   UNL     1       1.053   7.627  20.953  0.00  0.00    +0.000 C 
ATOM     18  H   UNL     1       6.065   3.561  16.877  0.00  0.00    +0.000 HD
ENDROOT
TORSDOF 0
ENDMDL
MODEL 8
REMARK VINA RESULT:      -6.5      1.629      4.487
REMARK  Name = 
REMARK  0 active torsions:
REMARK  status: ('A' for Active; 'I' for Inactive)
REMARK                            x       y       z     vdW  Elec       q    Type
REMARK                         _______ _______ _______ _____ _____    ______ ____
ROOT
ATOM      1  C   UNL     1       2.704   8.042  18.094  0.00  0.00    +0.000 A 
ATOM      2  C   UNL     1       3.890   7.980  17.371  0.00  0.00    +0.000 A 
ATOM      3  C   UNL     1       4.520   6.759  17.016  0.00  0.00    +0.000 A 
ATOM      4  C   UNL     1       3.824   5.543  17.471  0.00  0.00    +0.000 A 
ATOM      5  C   UNL     1       2.614   5.616  18.192  0.00  0.00    +0.000 A 
ATOM      6  C   UNL     1       2.064   6.876  18.501  0.00  0.00    +0.000 A 
ATOM      7  C   UNL     1       2.174   4.289  18.481  0.00  0.00    +0.000 A 
ATOM      8  C   UNL     1       3.110   3.414  17.980  0.00  0.00    +0.000 A 
ATOM      9  N   UNL     1       4.090   4.141  17.364  0.00  0.00    +0.000 N 
ATOM     10  C   UNL     1       5.272   3.509  16.683  0.00  0.00    +0.000 C 
ATOM     11  C   UNL     1       6.001   4.715  16.215  0.00  0.00    +0.000 C 
ATOM     12  N   UNL     1       6.741   5.824  15.741  0.00  0.00    +0.000 NA
ATOM     13  C   UNL     1       5.876   6.990  16.187  0.00  0.00    +0.000 C 
ATOM     14  C   UNL     1       3.052   1.926  18.067  0.00  0.00    +0.000 C 
ATOM     15  C   UNL     1       2.024   1.510  19.131  0.00  0.00    +0.000 C 
ATOM     16  C   UNL     1       0.720   2.316  18.996  0.00  0.00    +0.000 C 
ATOM     17  C   UNL     1       0.961   3.822  19.220  0.00  0.00    +0.000 C 
ATOM     18  H   UNL     1       6.793   5.827  14.723  0.00  0.00    +0.000 HD
ENDROOT
TORSDOF 0
ENDMDL
MODEL 9
REMARK VINA RESULT:      -6.4      5.214      7.520
REMARK  Name = 
REMARK  0 active torsions:
REMARK  status: ('A' for Active; 'I' for Inactive)
REMARK                            x       y       z     vdW  Elec       q    Type
REMARK                         _______ _______ _______ _____ _____    ______ ____
ROOT
ATOM      1  C   UNL     1      -0.657  10.071  23.409  0.00  0.00    +0.000 A 
ATOM      2  C   UNL     1      -1.290  11.191  22.881  0.00  0.00    +0.000 A 
ATOM      3  C   UNL     1      -1.163  11.586  21.523  0.00  0.00    +0.000 A 
ATOM      4  C   UNL     1      -0.305  10.719  20.699  0.00  0.00    +0.000 A 
ATOM      5  C   UNL     1       0.323   9.577  21.241  0.00  0.00    +0.000 A 
ATOM      6  C   UNL     1       0.141   9.266  22.603  0.00  0.00    +0.000 A 
ATOM      7  C   UNL     1       1.072   8.935  20.210  0.00  0.00    +0.000 A 
ATOM      8  C   UNL     1       0.940   9.682  19.062  0.00  0.00    +0.000 A 
ATOM      9  N   UNL     1       0.115  10.738  19.331  0.00  0.00    +0.000 N 
ATOM     10  C   UNL     1      -0.271  11.759  18.297  0.00  0.00    +0.000 C 
ATOM     11  C   UNL     1      -1.138  12.656  19.101  0.00  0.00    +0.000 C 
ATOM     12  N   UNL     1      -1.975  13.547  19.813  0.00  0.00    +0.000 NA
ATOM     13  C   UNL     1      -2.001  12.916  21.195  0.00  0.00    +0.000 C 
ATOM     14  C   UNL     1       1.566   9.378  17.743  0.00  0.00    +0.000 C 
ATOM     15  C   UNL     1       2.694   8.350  17.931  0.00  0.00    +0.000 C 
ATOM     16  C   UNL     1       2.255   7.197  18.849  0.00  0.00    +0.000 C 
ATOM     17  C   UNL     1       1.914   7.700  20.266  0.00  0.00    +0.000 C 
ATOM     18  H   UNL     1      -2.923  13.546  19.437  0.00  0.00    +0.000 HD
ENDROOT
TORSDOF 0
ENDMDL
