MODEL 1
REMARK VINA RESULT:      -7.8      0.000      0.000
REMARK  Name = 
REMARK  4 active torsions:
REMARK  status: ('A' for Active; 'I' for Inactive)
REMARK    1  A    between atoms: C_1  and  C_2
REMARK    2  A    between atoms: C_2  and  C_3
REMARK    3  A    between atoms: C_9  and  C_10
REMARK    4  A    between atoms: C_10  and  C_11
REMARK                            x       y       z     vdW  Elec       q    Type
REMARK                         _______ _______ _______ _____ _____    ______ ____
ROOT
ATOM      1  C   UNL     1       3.455   1.894  20.242  0.00  0.00    +0.000 C 
ATOM      2  C   UNL     1       2.456   3.053  20.371  0.00  0.00    +0.000 C 
ATOM      3  C   UNL     1       1.892   3.045  21.799  0.00  0.00    +0.000 C 
ATOM      4  C   UNL     1       3.112   4.431  20.110  0.00  0.00    +0.000 C 
ATOM      5  N   UNL     1       3.418   4.629  18.692  0.00  0.00    +0.000 N 
ATOM      6  C   UNL     1       4.700   4.557  18.284  0.00  0.00    +0.000 A 
ATOM      7  N   UNL     1       5.781   4.224  18.961  0.00  0.00    +0.000 NA
ATOM      8  N   UNL     1       6.862   4.478  18.148  0.00  0.00    +0.000 NA
ATOM      9  C   UNL     1       6.370   4.971  17.032  0.00  0.00    +0.000 A 
ATOM     10  O   UNL     1       4.999   5.012  17.027  0.00  0.00    +0.000 OA
ATOM     11  C   UNL     1       2.302   4.371  17.785  0.00  0.00    +0.000 C 
ATOM     12  C   UNL     1       1.657   3.009  18.097  0.00  0.00    +0.000 C 
ATOM     13  O   UNL     1       1.326   2.855  19.489  0.00  0.00    +0.000 OA
ENDROOT
BRANCH   9  14
ATOM     14  C   UNL     1       7.083   5.621  15.905  0.00  0.00    +0.000 C 
BRANCH  14  15
ATOM     15  C   UNL     1       6.865   4.960  14.566  0.00  0.00    +0.000 A 
ATOM     16  C   UNL     1       7.725   5.234  13.493  0.00  0.00    +0.000 A 
ATOM     17  C   UNL     1       7.539   4.607  12.261  0.00  0.00    +0.000 A 
ATOM     18  C   UNL     1       6.494   3.702  12.087  0.00  0.00    +0.000 A 
ATOM     19  C   UNL     1       5.628   3.427  13.144  0.00  0.00    +0.000 A 
ATOM     20  C   UNL     1       5.809   4.056  14.377  0.00  0.00    +0.000 A 
ENDBRANCH  14  15
ENDBRANCH   9  14
TORSDOF 2
ENDMDL
MODEL 2
REMARK VINA RESULT:      -7.7      0.265      1.108
REMARK  Name = 
REMARK  4 active torsions:
REMARK  status: ('A' for Active; 'I' for Inactive)
REMARK    1  A    between atoms: C_1  and  C_2
REMARK    2  A    between atoms: C_2  and  C_3
REMARK    3  A    between atoms: C_9  and  C_10
REMARK    4  A    between atoms: C_10  and  C_11
REMARK                            x       y       z     vdW  Elec       q    Type
REMARK                         _______ _______ _______ _____ _____    ______ ____
ROOT
ATOM      1  C   UNL     1       3.122   1.878  19.978  0.00  0.00    +0.000 C 
ATOM      2  C   UNL     1       2.285   3.121  20.314  0.00  0.00    +0.000 C 
ATOM      3  C   UNL     1       1.815   3.004  21.772  0.00  0.00    +0.000 C 
ATOM      4  C   UNL     1       3.091   4.435  20.164  0.00  0.00    +0.000 C 
ATOM      5  N   UNL     1       3.330   4.769  18.758  0.00  0.00    +0.000 N 
ATOM      6  C   UNL     1       4.566   4.598  18.248  0.00  0.00    +0.000 A 
ATOM      7  N   UNL     1       5.637   4.062  18.798  0.00  0.00    +0.000 NA
ATOM      8  N   UNL     1       6.689   4.285  17.939  0.00  0.00    +0.000 NA
ATOM      9  C   UNL     1       6.194   4.965  16.928  0.00  0.00    +0.000 A 
ATOM     10  O   UNL     1       4.840   5.167  17.032  0.00  0.00    +0.000 OA
ATOM     11  C   UNL     1       2.137   4.755  17.916  0.00  0.00    +0.000 C 
ATOM     12  C   UNL     1       1.348   3.450  18.118  0.00  0.00    +0.000 C 
ATOM     13  O   UNL     1       1.087   3.166  19.505  0.00  0.00    +0.000 OA
ENDROOT
BRANCH   9  14
ATOM     14  C   UNL     1       6.911   5.661  15.831  0.00  0.00    +0.000 C 
BRANCH  14  15
ATOM     15  C   UNL     1       6.802   4.984  14.487  0.00  0.00    +0.000 A 
ATOM     16  C   UNL     1       5.704   4.163  14.195  0.00  0.00    +0.000 A 
ATOM     17  C   UNL     1       5.590   3.553  12.945  0.00  0.00    +0.000 A 
ATOM     18  C   UNL     1       6.570   3.757  11.976  0.00  0.00    +0.000 A 
ATOM     19  C   UNL     1       7.670   4.565  12.257  0.00  0.00    +0.000 A 
ATOM     20  C   UNL     1       7.789   5.174  13.508  0.00  0.00    +0.000 A 
ENDBRANCH  14  15
ENDBRANCH   9  14
TORSDOF 2
ENDMDL
MODEL 3
REMARK VINA RESULT:      -7.6      5.424      7.314
REMARK  Name = 
REMARK  4 active torsions:
REMARK  status: ('A' for Active; 'I' for Inactive)
REMARK    1  A    between atoms: C_1  and  C_2
REMARK    2  A    between atoms: C_2  and  C_3
REMARK    3  A    between atoms: C_9  and  C_10
REMARK    4  A    between atoms: C_10  and  C_11
REMARK                            x       y       z     vdW  Elec       q    Type
REMARK                         _______ _______ _______ _____ _____    ______ ____
ROOT
ATOM      1  C   UNL     1       4.635   6.456  17.050  0.00  0.00    +0.000 C 
ATOM      2  C   UNL     1       5.618   5.280  16.943  0.00  0.00    +0.000 C 
ATOM      3  C   UNL     1       5.197   4.409  15.751  0.00  0.00    +0.000 C 
ATOM      4  C   UNL     1       7.077   5.748  16.718  0.00  0.00    +0.000 C 
ATOM      5  N   UNL     1       7.652   6.339  17.928  0.00  0.00    +0.000 N 
ATOM      6  C   UNL     1       7.813   7.675  17.990  0.00  0.00    +0.000 A 
ATOM      7  N   UNL     1       7.435   8.609  17.139  0.00  0.00    +0.000 NA
ATOM      8  N   UNL     1       7.991   9.794  17.563  0.00  0.00    +0.000 NA
ATOM      9  C   UNL     1       8.694   9.501  18.636  0.00  0.00    +0.000 A 
ATOM     10  O   UNL     1       8.595   8.181  18.994  0.00  0.00    +0.000 OA
ATOM     11  C   UNL     1       7.515   5.521  19.131  0.00  0.00    +0.000 C 
ATOM     12  C   UNL     1       6.060   5.050  19.301  0.00  0.00    +0.000 C 
ATOM     13  O   UNL     1       5.532   4.434  18.113  0.00  0.00    +0.000 OA
ENDROOT
BRANCH   9  14
ATOM     14  C   UNL     1       9.673  10.342  19.368  0.00  0.00    +0.000 C 
BRANCH  14  15
ATOM     15  C   UNL     1      10.031  11.631  18.671  0.00  0.00    +0.000 A 
ATOM     16  C   UNL     1      11.155  11.696  17.836  0.00  0.00    +0.000 A 
ATOM     17  C   UNL     1      11.476  12.881  17.172  0.00  0.00    +0.000 A 
ATOM     18  C   UNL     1      10.679  14.012  17.337  0.00  0.00    +0.000 A 
ATOM     19  C   UNL     1       9.563  13.962  18.170  0.00  0.00    +0.000 A 
ATOM     20  C   UNL     1       9.242  12.779  18.838  0.00  0.00    +0.000 A 
ENDBRANCH  14  15
ENDBRANCH   9  14
TORSDOF 2
ENDMDL
MODEL 4
REMARK VINA RESULT:      -7.6      5.422      7.366
REMARK  Name = 
REMARK  4 active torsions:
REMARK  status: ('A' for Active; 'I' for Inactive)
REMARK    1  A    between atoms: C_1  and  C_2
REMARK    2  A    between atoms: C_2  and  C_3
REMARK    3  A    between atoms: C_9  and  C_10
REMARK    4  A    between atoms: C_10  and  C_11
REMARK                            x       y       z     vdW  Elec       q    Type
REMARK                         _______ _______ _______ _____ _____    ______ ____
ROOT
ATOM      1  C   UNL     1       4.653   6.429  16.966  0.00  0.00    +0.000 C 
ATOM      2  C   UNL     1       5.634   5.249  16.906  0.00  0.00    +0.000 C 
ATOM      3  C   UNL     1       5.242   4.358  15.717  0.00  0.00    +0.000 C 
ATOM      4  C   UNL     1       7.100   5.708  16.710  0.00  0.00    +0.000 C 
ATOM      5  N   UNL     1       7.645   6.318  17.925  0.00  0.00    +0.000 N 
ATOM      6  C   UNL     1       7.810   7.654  17.968  0.00  0.00    +0.000 A 
ATOM      7  N   UNL     1       7.457   8.574  17.092  0.00  0.00    +0.000 NA
ATOM      8  N   UNL     1       8.007   9.764  17.510  0.00  0.00    +0.000 NA
ATOM      9  C   UNL     1       8.680   9.488  18.606  0.00  0.00    +0.000 A 
ATOM     10  O   UNL     1       8.568   8.174  18.984  0.00  0.00    +0.000 OA
ATOM     11  C   UNL     1       7.474   5.521  19.138  0.00  0.00    +0.000 C 
ATOM     12  C   UNL     1       6.014   5.057  19.278  0.00  0.00    +0.000 C 
ATOM     13  O   UNL     1       5.514   4.423  18.087  0.00  0.00    +0.000 OA
ENDROOT
BRANCH   9  14
ATOM     14  C   UNL     1       9.643  10.338  19.349  0.00  0.00    +0.000 C 
BRANCH  14  15
ATOM     15  C   UNL     1       9.987  11.637  18.662  0.00  0.00    +0.000 A 
ATOM     16  C   UNL     1       9.276  12.807  18.963  0.00  0.00    +0.000 A 
ATOM     17  C   UNL     1       9.607  14.014  18.346  0.00  0.00    +0.000 A 
ATOM     18  C   UNL     1      10.649  14.064  17.423  0.00  0.00    +0.000 A 
ATOM     19  C   UNL     1      11.358  12.906  17.109  0.00  0.00    +0.000 A 
ATOM     20  C   UNL     1      11.027  11.696  17.723  0.00  0.00    +0.000 A 
ENDBRANCH  14  15
ENDBRANCH   9  14
TORSDOF 2
ENDMDL
MODEL 5
REMARK VINA RESULT:      -7.6      1.250      2.143
REMARK  Name = 
REMARK  4 active torsions:
REMARK  status: ('A' for Active; 'I' for Inactive)
REMARK    1  A    between atoms: C_1  and  C_2
REMARK    2  A    between atoms: C_2  and  C_3
REMARK    3  A    between atoms: C_9  and  C_10
REMARK    4  A    between atoms: C_10  and  C_11
REMARK                            x       y       z     vdW  Elec       q    Type
REMARK                         _______ _______ _______ _____ _____    ______ ____
ROOT
ATOM      1  C   UNL     1       2.247   4.906  20.573  0.00  0.00    +0.000 C 
ATOM      2  C   UNL     1       1.946   3.479  20.093  0.00  0.00    +0.000 C 
ATOM      3  C   UNL     1       0.445   3.215  20.284  0.00  0.00    +0.000 C 
ATOM      4  C   UNL     1       2.293   3.273  18.598  0.00  0.00    +0.000 C 
ATOM      5  N   UNL     1       3.740   3.222  18.377  0.00  0.00    +0.000 N 
ATOM      6  C   UNL     1       4.351   4.279  17.806  0.00  0.00    +0.000 A 
ATOM      7  N   UNL     1       3.861   5.458  17.479  0.00  0.00    +0.000 NA
ATOM      8  N   UNL     1       4.835   6.117  16.765  0.00  0.00    +0.000 NA
ATOM      9  C   UNL     1       5.851   5.286  16.683  0.00  0.00    +0.000 A 
ATOM     10  O   UNL     1       5.634   4.111  17.358  0.00  0.00    +0.000 OA
ATOM     11  C   UNL     1       4.457   2.289  19.243  0.00  0.00    +0.000 C 
ATOM     12  C   UNL     1       4.060   2.504  20.714  0.00  0.00    +0.000 C 
ATOM     13  O   UNL     1       2.635   2.507  20.912  0.00  0.00    +0.000 OA
ENDROOT
BRANCH   9  14
ATOM     14  C   UNL     1       7.071   5.383  15.845  0.00  0.00    +0.000 C 
BRANCH  14  15
ATOM     15  C   UNL     1       6.914   4.832  14.449  0.00  0.00    +0.000 A 
ATOM     16  C   UNL     1       5.910   3.895  14.166  0.00  0.00    +0.000 A 
ATOM     17  C   UNL     1       5.748   3.402  12.871  0.00  0.00    +0.000 A 
ATOM     18  C   UNL     1       6.587   3.837  11.847  0.00  0.00    +0.000 A 
ATOM     19  C   UNL     1       7.594   4.762  12.117  0.00  0.00    +0.000 A 
ATOM     20  C   UNL     1       7.760   5.255  13.413  0.00  0.00    +0.000 A 
ENDBRANCH  14  15
ENDBRANCH   9  14
TORSDOF 2
ENDMDL
MODEL 6
REMARK VINA RESULT:      -7.5      1.239      1.815
REMARK  Name = 
REMARK  4 active torsions:
REMARK  status: ('A' for Active; 'I' for Inactive)
REMARK    1  A    between atoms: C_1  and  C_2
REMARK    2  A    between atoms: C_2  and  C_3
REMARK    3  A    between atoms: C_9  and  C_10
REMARK    4  A    between atoms: C_10  and  C_11
REMARK                            x       y       z     vdW  Elec       q    Type
REMARK                         _______ _______ _______ _____ _____    ______ ____
ROOT
ATOM      1  C   UNL     1       2.471   4.889  20.699  0.00  0.00    +0.000 C 
ATOM      2  C   UNL     1       2.041   3.531  20.123  0.00  0.00    +0.000 C 
ATOM      3  C   UNL     1       0.542   3.346  20.400  0.00  0.00    +0.000 C 
ATOM      4  C   UNL     1       2.272   3.438  18.594  0.00  0.00    +0.000 C 
ATOM      5  N   UNL     1       3.694   3.317  18.266  0.00  0.00    +0.000 N 
ATOM      6  C   UNL     1       4.336   4.379  17.743  0.00  0.00    +0.000 A 
ATOM      7  N   UNL     1       3.908   5.612  17.554  0.00  0.00    +0.000 NA
ATOM      8  N   UNL     1       4.875   6.270  16.828  0.00  0.00    +0.000 NA
ATOM      9  C   UNL     1       5.824   5.387  16.603  0.00  0.00    +0.000 A 
ATOM     10  O   UNL     1       5.572   4.172  17.190  0.00  0.00    +0.000 OA
ATOM     11  C   UNL     1       4.402   2.267  18.995  0.00  0.00    +0.000 C 
ATOM     12  C   UNL     1       4.120   2.375  20.504  0.00  0.00    +0.000 C 
ATOM     13  O   UNL     1       2.715   2.449  20.805  0.00  0.00    +0.000 OA
ENDROOT
BRANCH   9  14
ATOM     14  C   UNL     1       6.989   5.481  15.689  0.00  0.00    +0.000 C 
BRANCH  14  15
ATOM     15  C   UNL     1       6.775   4.843  14.338  0.00  0.00    +0.000 A 
ATOM     16  C   UNL     1       7.702   5.044  13.306  0.00  0.00    +0.000 A 
ATOM     17  C   UNL     1       7.519   4.436  12.064  0.00  0.00    +0.000 A 
ATOM     18  C   UNL     1       6.409   3.623  11.840  0.00  0.00    +0.000 A 
ATOM     19  C   UNL     1       5.477   3.423  12.856  0.00  0.00    +0.000 A 
ATOM     20  C   UNL     1       5.656   4.032  14.099  0.00  0.00    +0.000 A 
ENDBRANCH  14  15
ENDBRANCH   9  14
TORSDOF 2
ENDMDL
MODEL 7
REMARK VINA RESULT:      -7.5      5.153      7.550
REMARK  Name = 
REMARK  4 active torsions:
REMARK  status: ('A' for Active; 'I' for Inactive)
REMARK    1  A    between atoms: C_1  and  C_2
REMARK    2  A    between atoms: C_2  and  C_3
REMARK    3  A    between atoms: C_9  and  C_10
REMARK    4  A    between atoms: C_10  and  C_11
REMARK                            x       y       z     vdW  Elec       q    Type
REMARK                         _______ _______ _______ _____ _____    ______ ____
ROOT
ATOM      1  C   UNL     1       2.435   4.120  17.666  0.00  0.00    +0.000 C 
ATOM      2  C   UNL     1       3.132   4.044  19.032  0.00  0.00    +0.000 C 
ATOM      3  C   UNL     1       4.286   3.036  18.928  0.00  0.00    +0.000 C 
ATOM      4  C   UNL     1       3.713   5.409  19.476  0.00  0.00    +0.000 C 
ATOM      5  N   UNL     1       2.659   6.344  19.877  0.00  0.00    +0.000 N 
ATOM      6  C   UNL     1       2.345   7.366  19.056  0.00  0.00    +0.000 A 
ATOM      7  N   UNL     1       2.780   7.632  17.840  0.00  0.00    +0.000 NA
ATOM      8  N   UNL     1       2.300   8.877  17.502  0.00  0.00    +0.000 NA
ATOM      9  C   UNL     1       1.620   9.300  18.545  0.00  0.00    +0.000 A 
ATOM     10  O   UNL     1       1.568   8.376  19.558  0.00  0.00    +0.000 OA
ATOM     11  C   UNL     1       1.704   5.810  20.846  0.00  0.00    +0.000 C 
ATOM     12  C   UNL     1       1.176   4.440  20.384  0.00  0.00    +0.000 C 
ATOM     13  O   UNL     1       2.231   3.525  20.038  0.00  0.00    +0.000 OA
ENDROOT
BRANCH   9  14
ATOM     14  C   UNL     1       1.080  10.654  18.820  0.00  0.00    +0.000 C 
BRANCH  14  15
ATOM     15  C   UNL     1      -0.404  10.792  18.586  0.00  0.00    +0.000 A 
ATOM     16  C   UNL     1      -1.146  11.750  19.292  0.00  0.00    +0.000 A 
ATOM     17  C   UNL     1      -2.514  11.895  19.061  0.00  0.00    +0.000 A 
ATOM     18  C   UNL     1      -3.155  11.084  18.126  0.00  0.00    +0.000 A 
ATOM     19  C   UNL     1      -2.430  10.123  17.424  0.00  0.00    +0.000 A 
ATOM     20  C   UNL     1      -1.062   9.974  17.655  0.00  0.00    +0.000 A 
ENDBRANCH  14  15
ENDBRANCH   9  14
TORSDOF 2
ENDMDL
MODEL 8
REMARK VINA RESULT:      -7.5      5.393      7.655
REMARK  Name = 
REMARK  4 active torsions:
REMARK  status: ('A' for Active; 'I' for Inactive)
REMARK    1  A    between atoms: C_1  and  C_2
REMARK    2  A    between atoms: C_2  and  C_3
REMARK    3  A    between atoms: C_9  and  C_10
REMARK    4  A    between atoms: C_10  and  C_11
REMARK                            x       y       z     vdW  Elec       q    Type
REMARK                         _______ _______ _______ _____ _____    ______ ____
ROOT
ATOM      1  C   UNL     1       1.483  12.532  18.625  0.00  0.00    +0.000 C 
ATOM      2  C   UNL     1       0.092  12.058  19.070  0.00  0.00    +0.000 C 
ATOM      3  C   UNL     1      -0.953  13.020  18.486  0.00  0.00    +0.000 C 
ATOM      4  C   UNL     1      -0.230  10.626  18.575  0.00  0.00    +0.000 C 
ATOM      5  N   UNL     1       0.534   9.613  19.306  0.00  0.00    +0.000 N 
ATOM      6  C   UNL     1       1.565   9.002  18.689  0.00  0.00    +0.000 A 
ATOM      7  N   UNL     1       2.097   9.238  17.506  0.00  0.00    +0.000 NA
ATOM      8  N   UNL     1       3.002   8.231  17.261  0.00  0.00    +0.000 NA
ATOM      9  C   UNL     1       2.947   7.431  18.304  0.00  0.00    +0.000 A 
ATOM     10  O   UNL     1       2.086   7.878  19.274  0.00  0.00    +0.000 OA
ATOM     11  C   UNL     1       0.459   9.723  20.760  0.00  0.00    +0.000 C 
ATOM     12  C   UNL     1       0.754  11.165  21.209  0.00  0.00    +0.000 C 
ATOM     13  O   UNL     1      -0.041  12.139  20.508  0.00  0.00    +0.000 OA
ENDROOT
BRANCH   9  14
ATOM     14  C   UNL     1       3.538   6.081  18.477  0.00  0.00    +0.000 C 
BRANCH  14  15
ATOM     15  C   UNL     1       2.562   5.029  18.944  0.00  0.00    +0.000 A 
ATOM     16  C   UNL     1       1.944   4.176  18.019  0.00  0.00    +0.000 A 
ATOM     17  C   UNL     1       1.059   3.188  18.451  0.00  0.00    +0.000 A 
ATOM     18  C   UNL     1       0.782   3.042  19.808  0.00  0.00    +0.000 A 
ATOM     19  C   UNL     1       1.384   3.890  20.737  0.00  0.00    +0.000 A 
ATOM     20  C   UNL     1       2.267   4.882  20.308  0.00  0.00    +0.000 A 
ENDBRANCH  14  15
ENDBRANCH   9  14
TORSDOF 2
ENDMDL
MODEL 9
REMARK VINA RESULT:      -7.4      1.832      2.578
REMARK  Name = 
REMARK  4 active torsions:
REMARK  status: ('A' for Active; 'I' for Inactive)
REMARK    1  A    between atoms: C_1  and  C_2
REMARK    2  A    between atoms: C_2  and  C_3
REMARK    3  A    between atoms: C_9  and  C_10
REMARK    4  A    between atoms: C_10  and  C_11
REMARK                            x       y       z     vdW  Elec       q    Type
REMARK                         _______ _______ _______ _____ _____    ______ ____
ROOT
ATOM      1  C   UNL     1       3.916   5.603  19.786  0.00  0.00    +0.000 C 
ATOM      2  C   UNL     1       2.834   4.578  19.416  0.00  0.00    +0.000 C 
ATOM      3  C   UNL     1       1.511   5.022  20.058  0.00  0.00    +0.000 C 
ATOM      4  C   UNL     1       2.623   4.467  17.886  0.00  0.00    +0.000 C 
ATOM      5  N   UNL     1       3.738   3.778  17.232  0.00  0.00    +0.000 N 
ATOM      6  C   UNL     1       4.614   4.498  16.505  0.00  0.00    +0.000 A 
ATOM      7  N   UNL     1       4.704   5.804  16.348  0.00  0.00    +0.000 NA
ATOM      8  N   UNL     1       5.647   6.031  15.371  0.00  0.00    +0.000 NA
ATOM      9  C   UNL     1       6.056   4.844  14.978  0.00  0.00    +0.000 A 
ATOM     10  O   UNL     1       5.475   3.820  15.683  0.00  0.00    +0.000 OA
ATOM     11  C   UNL     1       4.101   2.496  17.832  0.00  0.00    +0.000 C 
ATOM     12  C   UNL     1       4.269   2.642  19.355  0.00  0.00    +0.000 C 
ATOM     13  O   UNL     1       3.142   3.282  19.981  0.00  0.00    +0.000 OA
ENDROOT
BRANCH   9  14
ATOM     14  C   UNL     1       6.892   4.485  13.807  0.00  0.00    +0.000 C 
BRANCH  14  15
ATOM     15  C   UNL     1       6.181   3.662  12.762  0.00  0.00    +0.000 A 
ATOM     16  C   UNL     1       6.840   2.599  12.128  0.00  0.00    +0.000 A 
ATOM     17  C   UNL     1       6.177   1.822  11.177  0.00  0.00    +0.000 A 
ATOM     18  C   UNL     1       4.851   2.098  10.851  0.00  0.00    +0.000 A 
ATOM     19  C   UNL     1       4.187   3.156  11.468  0.00  0.00    +0.000 A 
ATOM     20  C   UNL     1       4.849   3.938  12.417  0.00  0.00    +0.000 A 
ENDBRANCH  14  15
ENDBRANCH   9  14
TORSDOF 2
ENDMDL
