MODEL 1
REMARK VINA RESULT:      -7.7      0.000      0.000
REMARK  Name = 
REMARK  9 active torsions:
REMARK  status: ('A' for Active; 'I' for Inactive)
REMARK    1  A    between atoms: C_1  and  C_2
REMARK    2  A    between atoms: C_2  and  C_3
REMARK    3  A    between atoms: C_2  and  C_4
REMARK    4  A    between atoms: C_4  and  N_5
REMARK    5  A    between atoms: C_6  and  C_8
REMARK    6  A    between atoms: C_8  and  N_9
REMARK    7  A    between atoms: C_10  and  C_12
REMARK    8  A    between atoms: C_16  and  O_17
REMARK    9  A    between atoms: C_18  and  O_19
REMARK                            x       y       z     vdW  Elec       q    Type
REMARK                         _______ _______ _______ _____ _____    ______ ____
ROOT
ATOM      1  N   UNL     1       5.807   4.066  17.021  0.00  0.00    +0.000 N 
ATOM      2  C   UNL     1       5.500   4.266  18.336  0.00  0.00    +0.000 C 
ATOM      3  O   UNL     1       6.356   4.681  19.105  0.00  0.00    +0.000 OA
ATOM      4  H   UNL     1       5.084   3.718  16.372  0.00  0.00    +0.000 HD
ENDROOT
BRANCH   2   5
ATOM      5  C   UNL     1       4.124   3.994  18.849  0.00  0.00    +0.000 A 
ATOM      6  N   UNL     1       3.518   4.928  19.635  0.00  0.00    +0.000 NA
ATOM      7  C   UNL     1       2.273   4.754  20.148  0.00  0.00    +0.000 A 
ATOM      8  C   UNL     1       1.562   3.589  19.877  0.00  0.00    +0.000 A 
ATOM      9  C   UNL     1       2.142   2.600  19.074  0.00  0.00    +0.000 A 
ATOM     10  C   UNL     1       3.435   2.795  18.553  0.00  0.00    +0.000 A 
BRANCH   9  11
ATOM     11  O   UNL     1       1.467   1.464  18.801  0.00  0.00    +0.000 OA
ATOM     12  H   UNL     1       1.819   0.782  18.210  0.00  0.00    +0.000 HD
ENDBRANCH   9  11
BRANCH  10  13
ATOM     13  O   UNL     1       4.010   1.844  17.782  0.00  0.00    +0.000 OA
ATOM     14  H   UNL     1       3.877   0.897  17.924  0.00  0.00    +0.000 HD
ENDBRANCH  10  13
ENDBRANCH   2   5
BRANCH   1  15
ATOM     15  C   UNL     1       7.119   4.353  16.465  0.00  0.00    +0.000 C 
BRANCH  15  17
ATOM     16  N   UNL     1       6.344   3.664  14.202  0.00  0.00    +0.000 N 
ATOM     17  C   UNL     1       7.036   4.546  14.976  0.00  0.00    +0.000 C 
ATOM     18  O   UNL     1       7.611   5.502  14.473  0.00  0.00    +0.000 OA
ATOM     19  H   UNL     1       5.856   2.876  14.655  0.00  0.00    +0.000 HD
BRANCH  16  20
ATOM     20  C   UNL     1       6.265   3.774  12.755  0.00  0.00    +0.000 C 
BRANCH  20  22
ATOM     21  C   UNL     1       4.224   3.290  11.335  0.00  0.00    +0.000 C 
ATOM     22  C   UNL     1       5.361   2.676  12.166  0.00  0.00    +0.000 C 
ATOM     23  C   UNL     1       6.200   1.728  11.298  0.00  0.00    +0.000 C 
ENDBRANCH  20  22
ENDBRANCH  16  20
ENDBRANCH  15  17
ENDBRANCH   1  15
TORSDOF 7
ENDMDL
MODEL 2
REMARK VINA RESULT:      -7.4      1.449      1.804
REMARK  Name = 
REMARK  9 active torsions:
REMARK  status: ('A' for Active; 'I' for Inactive)
REMARK    1  A    between atoms: C_1  and  C_2
REMARK    2  A    between atoms: C_2  and  C_3
REMARK    3  A    between atoms: C_2  and  C_4
REMARK    4  A    between atoms: C_4  and  N_5
REMARK    5  A    between atoms: C_6  and  C_8
REMARK    6  A    between atoms: C_8  and  N_9
REMARK    7  A    between atoms: C_10  and  C_12
REMARK    8  A    between atoms: C_16  and  O_17
REMARK    9  A    between atoms: C_18  and  O_19
REMARK                            x       y       z     vdW  Elec       q    Type
REMARK                         _______ _______ _______ _____ _____    ______ ____
ROOT
ATOM      1  N   UNL     1       5.556   4.577  16.643  0.00  0.00    +0.000 N 
ATOM      2  C   UNL     1       5.273   4.235  17.934  0.00  0.00    +0.000 C 
ATOM      3  O   UNL     1       6.159   4.259  18.778  0.00  0.00    +0.000 OA
ATOM      4  H   UNL     1       4.808   4.557  15.932  0.00  0.00    +0.000 HD
ENDROOT
BRANCH   2   5
ATOM      5  C   UNL     1       3.890   3.841  18.335  0.00  0.00    +0.000 A 
ATOM      6  N   UNL     1       3.300   2.783  17.708  0.00  0.00    +0.000 NA
ATOM      7  C   UNL     1       2.043   2.366  18.008  0.00  0.00    +0.000 A 
ATOM      8  C   UNL     1       1.304   3.022  18.987  0.00  0.00    +0.000 A 
ATOM      9  C   UNL     1       1.866   4.114  19.658  0.00  0.00    +0.000 A 
ATOM     10  C   UNL     1       3.169   4.535  19.333  0.00  0.00    +0.000 A 
BRANCH   9  11
ATOM     11  O   UNL     1       1.163   4.762  20.610  0.00  0.00    +0.000 OA
ATOM     12  H   UNL     1       0.736   4.296  21.344  0.00  0.00    +0.000 HD
ENDBRANCH   9  11
BRANCH  10  13
ATOM     13  O   UNL     1       3.722   5.594  19.969  0.00  0.00    +0.000 OA
ATOM     14  H   UNL     1       3.606   6.507  19.672  0.00  0.00    +0.000 HD
ENDBRANCH  10  13
ENDBRANCH   2   5
BRANCH   1  15
ATOM     15  C   UNL     1       6.876   5.005  16.210  0.00  0.00    +0.000 C 
BRANCH  15  17
ATOM     16  N   UNL     1       6.277   3.929  14.048  0.00  0.00    +0.000 N 
ATOM     17  C   UNL     1       7.029   4.841  14.724  0.00  0.00    +0.000 C 
ATOM     18  O   UNL     1       7.848   5.535  14.136  0.00  0.00    +0.000 OA
ATOM     19  H   UNL     1       5.583   3.369  14.567  0.00  0.00    +0.000 HD
BRANCH  16  20
ATOM     20  C   UNL     1       6.410   3.695  12.620  0.00  0.00    +0.000 C 
BRANCH  20  22
ATOM     21  C   UNL     1       4.262   3.308  11.334  0.00  0.00    +0.000 C 
ATOM     22  C   UNL     1       5.395   2.646  12.133  0.00  0.00    +0.000 C 
ATOM     23  C   UNL     1       6.110   1.598  11.269  0.00  0.00    +0.000 C 
ENDBRANCH  20  22
ENDBRANCH  16  20
ENDBRANCH  15  17
ENDBRANCH   1  15
TORSDOF 7
ENDMDL
MODEL 3
REMARK VINA RESULT:      -7.4      1.132      1.136
REMARK  Name = 
REMARK  9 active torsions:
REMARK  status: ('A' for Active; 'I' for Inactive)
REMARK    1  A    between atoms: C_1  and  C_2
REMARK    2  A    between atoms: C_2  and  C_3
REMARK    3  A    between atoms: C_2  and  C_4
REMARK    4  A    between atoms: C_4  and  N_5
REMARK    5  A    between atoms: C_6  and  C_8
REMARK    6  A    between atoms: C_8  and  N_9
REMARK    7  A    between atoms: C_10  and  C_12
REMARK    8  A    between atoms: C_16  and  O_17
REMARK    9  A    between atoms: C_18  and  O_19
REMARK                            x       y       z     vdW  Elec       q    Type
REMARK                         _______ _______ _______ _____ _____    ______ ____
ROOT
ATOM      1  N   UNL     1       5.822   4.624  16.446  0.00  0.00    +0.000 N 
ATOM      2  C   UNL     1       5.589   4.415  17.775  0.00  0.00    +0.000 C 
ATOM      3  O   UNL     1       6.523   4.419  18.565  0.00  0.00    +0.000 OA
ATOM      4  H   UNL     1       5.034   4.621  15.781  0.00  0.00    +0.000 HD
ENDROOT
BRANCH   2   5
ATOM      5  C   UNL     1       4.203   4.189  18.281  0.00  0.00    +0.000 A 
ATOM      6  N   UNL     1       3.181   4.921  17.751  0.00  0.00    +0.000 NA
ATOM      7  C   UNL     1       1.895   4.783  18.161  0.00  0.00    +0.000 A 
ATOM      8  C   UNL     1       1.574   3.866  19.158  0.00  0.00    +0.000 A 
ATOM      9  C   UNL     1       2.588   3.092  19.733  0.00  0.00    +0.000 A 
ATOM     10  C   UNL     1       3.916   3.250  19.299  0.00  0.00    +0.000 A 
BRANCH   9  11
ATOM     11  O   UNL     1       2.294   2.198  20.701  0.00  0.00    +0.000 OA
ATOM     12  H   UNL     1       1.609   2.362  21.365  0.00  0.00    +0.000 HD
ENDBRANCH   9  11
BRANCH  10  13
ATOM     13  O   UNL     1       4.907   2.513  19.852  0.00  0.00    +0.000 OA
ATOM     14  H   UNL     1       5.822   2.541  19.540  0.00  0.00    +0.000 HD
ENDBRANCH  10  13
ENDBRANCH   2   5
BRANCH   1  15
ATOM     15  C   UNL     1       7.147   4.887  15.909  0.00  0.00    +0.000 C 
BRANCH  15  17
ATOM     16  N   UNL     1       6.420   3.792  13.796  0.00  0.00    +0.000 N 
ATOM     17  C   UNL     1       7.148   4.764  14.411  0.00  0.00    +0.000 C 
ATOM     18  O   UNL     1       7.824   5.547  13.757  0.00  0.00    +0.000 OA
ATOM     19  H   UNL     1       5.847   3.155  14.372  0.00  0.00    +0.000 HD
BRANCH  16  20
ATOM     20  C   UNL     1       6.415   3.596  12.356  0.00  0.00    +0.000 C 
BRANCH  20  22
ATOM     21  C   UNL     1       4.235   3.116  11.159  0.00  0.00    +0.000 C 
ATOM     22  C   UNL     1       5.406   2.509  11.948  0.00  0.00    +0.000 C 
ATOM     23  C   UNL     1       6.113   1.438  11.106  0.00  0.00    +0.000 C 
ENDBRANCH  20  22
ENDBRANCH  16  20
ENDBRANCH  15  17
ENDBRANCH   1  15
TORSDOF 7
ENDMDL
MODEL 4
REMARK VINA RESULT:      -7.2      3.300      6.577
REMARK  Name = 
REMARK  9 active torsions:
REMARK  status: ('A' for Active; 'I' for Inactive)
REMARK    1  A    between atoms: C_1  and  C_2
REMARK    2  A    between atoms: C_2  and  C_3
REMARK    3  A    between atoms: C_2  and  C_4
REMARK    4  A    between atoms: C_4  and  N_5
REMARK    5  A    between atoms: C_6  and  C_8
REMARK    6  A    between atoms: C_8  and  N_9
REMARK    7  A    between atoms: C_10  and  C_12
REMARK    8  A    between atoms: C_16  and  O_17
REMARK    9  A    between atoms: C_18  and  O_19
REMARK                            x       y       z     vdW  Elec       q    Type
REMARK                         _______ _______ _______ _____ _____    ______ ____
ROOT
ATOM      1  N   UNL     1       4.270   4.010  17.006  0.00  0.00    +0.000 N 
ATOM      2  C   UNL     1       4.364   5.286  17.481  0.00  0.00    +0.000 C 
ATOM      3  O   UNL     1       3.359   5.979  17.566  0.00  0.00    +0.000 OA
ATOM      4  H   UNL     1       5.118   3.425  16.935  0.00  0.00    +0.000 HD
ENDROOT
BRANCH   2   5
ATOM      5  C   UNL     1       5.680   5.847  17.908  0.00  0.00    +0.000 A 
ATOM      6  N   UNL     1       6.203   6.899  17.216  0.00  0.00    +0.000 NA
ATOM      7  C   UNL     1       7.397   7.462  17.535  0.00  0.00    +0.000 A 
ATOM      8  C   UNL     1       8.138   6.968  18.605  0.00  0.00    +0.000 A 
ATOM      9  C   UNL     1       7.643   5.889  19.345  0.00  0.00    +0.000 A 
ATOM     10  C   UNL     1       6.405   5.317  19.000  0.00  0.00    +0.000 A 
BRANCH   9  11
ATOM     11  O   UNL     1       8.349   5.399  20.386  0.00  0.00    +0.000 OA
ATOM     12  H   UNL     1       8.464   5.893  21.211  0.00  0.00    +0.000 HD
ENDBRANCH   9  11
BRANCH  10  13
ATOM     13  O   UNL     1       5.918   4.268  19.703  0.00  0.00    +0.000 OA
ATOM     14  H   UNL     1       5.067   3.854  19.511  0.00  0.00    +0.000 HD
ENDBRANCH  10  13
ENDBRANCH   2   5
BRANCH   1  15
ATOM     15  C   UNL     1       3.008   3.404  16.614  0.00  0.00    +0.000 C 
BRANCH  15  17
ATOM     16  N   UNL     1       1.379   3.467  18.493  0.00  0.00    +0.000 N 
ATOM     17  C   UNL     1       2.327   2.778  17.798  0.00  0.00    +0.000 C 
ATOM     18  O   UNL     1       2.646   1.645  18.131  0.00  0.00    +0.000 OA
ATOM     19  H   UNL     1       1.118   4.415  18.181  0.00  0.00    +0.000 HD
BRANCH  16  20
ATOM     20  C   UNL     1       0.717   2.932  19.671  0.00  0.00    +0.000 C 
BRANCH  20  22
ATOM     21  C   UNL     1       2.366   2.779  21.588  0.00  0.00    +0.000 C 
ATOM     22  C   UNL     1       1.238   3.606  20.953  0.00  0.00    +0.000 C 
ATOM     23  C   UNL     1       1.738   5.020  20.625  0.00  0.00    +0.000 C 
ENDBRANCH  20  22
ENDBRANCH  16  20
ENDBRANCH  15  17
ENDBRANCH   1  15
TORSDOF 7
ENDMDL
MODEL 5
REMARK VINA RESULT:      -7.0      1.280      1.329
REMARK  Name = 
REMARK  9 active torsions:
REMARK  status: ('A' for Active; 'I' for Inactive)
REMARK    1  A    between atoms: C_1  and  C_2
REMARK    2  A    between atoms: C_2  and  C_3
REMARK    3  A    between atoms: C_2  and  C_4
REMARK    4  A    between atoms: C_4  and  N_5
REMARK    5  A    between atoms: C_6  and  C_8
REMARK    6  A    between atoms: C_8  and  N_9
REMARK    7  A    between atoms: C_10  and  C_12
REMARK    8  A    between atoms: C_16  and  O_17
REMARK    9  A    between atoms: C_18  and  O_19
REMARK                            x       y       z     vdW  Elec       q    Type
REMARK                         _______ _______ _______ _____ _____    ______ ____
ROOT
ATOM      1  N   UNL     1       6.109   4.166  17.030  0.00  0.00    +0.000 N 
ATOM      2  C   UNL     1       5.728   5.163  17.882  0.00  0.00    +0.000 C 
ATOM      3  O   UNL     1       6.368   6.205  17.924  0.00  0.00    +0.000 OA
ATOM      4  H   UNL     1       5.568   3.288  16.994  0.00  0.00    +0.000 HD
ENDROOT
BRANCH   2   5
ATOM      5  C   UNL     1       4.531   5.001  18.760  0.00  0.00    +0.000 A 
ATOM      6  N   UNL     1       3.644   6.032  18.859  0.00  0.00    +0.000 NA
ATOM      7  C   UNL     1       2.536   5.968  19.641  0.00  0.00    +0.000 A 
ATOM      8  C   UNL     1       2.268   4.820  20.381  0.00  0.00    +0.000 A 
ATOM      9  C   UNL     1       3.150   3.736  20.313  0.00  0.00    +0.000 A 
ATOM     10  C   UNL     1       4.295   3.819  19.500  0.00  0.00    +0.000 A 
BRANCH   9  11
ATOM     11  O   UNL     1       2.905   2.615  21.024  0.00  0.00    +0.000 OA
ATOM     12  H   UNL     1       3.425   1.807  20.910  0.00  0.00    +0.000 HD
ENDBRANCH   9  11
BRANCH  10  13
ATOM     13  O   UNL     1       5.160   2.781  19.430  0.00  0.00    +0.000 OA
ATOM     14  H   UNL     1       4.898   1.864  19.591  0.00  0.00    +0.000 HD
ENDBRANCH  10  13
ENDBRANCH   2   5
BRANCH   1  15
ATOM     15  C   UNL     1       7.242   4.289  16.127  0.00  0.00    +0.000 C 
BRANCH  15  17
ATOM     16  N   UNL     1       6.582   3.539  13.848  0.00  0.00    +0.000 N 
ATOM     17  C   UNL     1       6.778   4.564  14.724  0.00  0.00    +0.000 C 
ATOM     18  O   UNL     1       6.591   5.723  14.382  0.00  0.00    +0.000 OA
ATOM     19  H   UNL     1       6.733   2.570  14.169  0.00  0.00    +0.000 HD
BRANCH  16  20
ATOM     20  C   UNL     1       6.177   3.745  12.467  0.00  0.00    +0.000 C 
BRANCH  20  22
ATOM     21  C   UNL     1       4.109   3.202  11.111  0.00  0.00    +0.000 C 
ATOM     22  C   UNL     1       5.224   2.631  11.998  0.00  0.00    +0.000 C 
ATOM     23  C   UNL     1       6.017   1.564  11.232  0.00  0.00    +0.000 C 
ENDBRANCH  20  22
ENDBRANCH  16  20
ENDBRANCH  15  17
ENDBRANCH   1  15
TORSDOF 7
ENDMDL
MODEL 6
REMARK VINA RESULT:      -6.9      4.037      5.884
REMARK  Name = 
REMARK  9 active torsions:
REMARK  status: ('A' for Active; 'I' for Inactive)
REMARK    1  A    between atoms: C_1  and  C_2
REMARK    2  A    between atoms: C_2  and  C_3
REMARK    3  A    between atoms: C_2  and  C_4
REMARK    4  A    between atoms: C_4  and  N_5
REMARK    5  A    between atoms: C_6  and  C_8
REMARK    6  A    between atoms: C_8  and  N_9
REMARK    7  A    between atoms: C_10  and  C_12
REMARK    8  A    between atoms: C_16  and  O_17
REMARK    9  A    between atoms: C_18  and  O_19
REMARK                            x       y       z     vdW  Elec       q    Type
REMARK                         _______ _______ _______ _____ _____    ______ ____
ROOT
ATOM      1  N   UNL     1       6.470   5.638  17.950  0.00  0.00    +0.000 N 
ATOM      2  C   UNL     1       5.748   4.981  18.906  0.00  0.00    +0.000 C 
ATOM      3  O   UNL     1       6.231   4.802  20.016  0.00  0.00    +0.000 OA
ATOM      4  H   UNL     1       6.062   5.790  17.015  0.00  0.00    +0.000 HD
ENDROOT
BRANCH   2   5
ATOM      5  C   UNL     1       4.370   4.486  18.617  0.00  0.00    +0.000 A 
ATOM      6  N   UNL     1       3.432   5.371  18.173  0.00  0.00    +0.000 NA
ATOM      7  C   UNL     1       2.155   5.003  17.895  0.00  0.00    +0.000 A 
ATOM      8  C   UNL     1       1.758   3.680  18.059  0.00  0.00    +0.000 A 
ATOM      9  C   UNL     1       2.685   2.734  18.512  0.00  0.00    +0.000 A 
ATOM     10  C   UNL     1       4.003   3.132  18.798  0.00  0.00    +0.000 A 
BRANCH   9  11
ATOM     11  O   UNL     1       2.316   1.446  18.676  0.00  0.00    +0.000 OA
ATOM     12  H   UNL     1       1.388   1.177  18.734  0.00  0.00    +0.000 HD
ENDBRANCH   9  11
BRANCH  10  13
ATOM     13  O   UNL     1       4.907   2.230  19.245  0.00  0.00    +0.000 OA
ATOM     14  H   UNL     1       5.591   2.445  19.894  0.00  0.00    +0.000 HD
ENDBRANCH  10  13
ENDBRANCH   2   5
BRANCH   1  15
ATOM     15  C   UNL     1       7.799   6.173  18.193  0.00  0.00    +0.000 C 
BRANCH  15  17
ATOM     16  N   UNL     1       8.608   8.480  18.660  0.00  0.00    +0.000 N 
ATOM     17  C   UNL     1       7.841   7.647  17.902  0.00  0.00    +0.000 C 
ATOM     18  O   UNL     1       7.166   8.085  16.980  0.00  0.00    +0.000 OA
ATOM     19  H   UNL     1       9.179   8.081  19.421  0.00  0.00    +0.000 HD
BRANCH  16  20
ATOM     20  C   UNL     1       8.656   9.918  18.454  0.00  0.00    +0.000 C 
BRANCH  20  22
ATOM     21  C   UNL     1      10.570  11.570  18.305  0.00  0.00    +0.000 C 
ATOM     22  C   UNL     1       9.852  10.543  19.193  0.00  0.00    +0.000 C 
ATOM     23  C   UNL     1       9.367  11.209  20.488  0.00  0.00    +0.000 C 
ENDBRANCH  20  22
ENDBRANCH  16  20
ENDBRANCH  15  17
ENDBRANCH   1  15
TORSDOF 7
ENDMDL
MODEL 7
REMARK VINA RESULT:      -6.9      2.048      2.715
REMARK  Name = 
REMARK  9 active torsions:
REMARK  status: ('A' for Active; 'I' for Inactive)
REMARK    1  A    between atoms: C_1  and  C_2
REMARK    2  A    between atoms: C_2  and  C_3
REMARK    3  A    between atoms: C_2  and  C_4
REMARK    4  A    between atoms: C_4  and  N_5
REMARK    5  A    between atoms: C_6  and  C_8
REMARK    6  A    between atoms: C_8  and  N_9
REMARK    7  A    between atoms: C_10  and  C_12
REMARK    8  A    between atoms: C_16  and  O_17
REMARK    9  A    between atoms: C_18  and  O_19
REMARK                            x       y       z     vdW  Elec       q    Type
REMARK                         _______ _______ _______ _____ _____    ______ ____
ROOT
ATOM      1  N   UNL     1       6.163   4.539  18.914  0.00  0.00    +0.000 N 
ATOM      2  C   UNL     1       4.842   4.881  18.858  0.00  0.00    +0.000 C 
ATOM      3  O   UNL     1       4.523   6.036  18.613  0.00  0.00    +0.000 OA
ATOM      4  H   UNL     1       6.432   3.564  19.120  0.00  0.00    +0.000 HD
ENDROOT
BRANCH   2   5
ATOM      5  C   UNL     1       3.778   3.858  19.083  0.00  0.00    +0.000 A 
ATOM      6  N   UNL     1       3.790   2.720  18.331  0.00  0.00    +0.000 NA
ATOM      7  C   UNL     1       2.855   1.745  18.467  0.00  0.00    +0.000 A 
ATOM      8  C   UNL     1       1.834   1.883  19.402  0.00  0.00    +0.000 A 
ATOM      9  C   UNL     1       1.779   3.033  20.198  0.00  0.00    +0.000 A 
ATOM     10  C   UNL     1       2.755   4.035  20.042  0.00  0.00    +0.000 A 
BRANCH   9  11
ATOM     11  O   UNL     1       0.796   3.182  21.110  0.00  0.00    +0.000 OA
ATOM     12  H   UNL     1       0.130   3.882  21.043  0.00  0.00    +0.000 HD
ENDBRANCH   9  11
BRANCH  10  13
ATOM     13  O   UNL     1       2.710   5.155  20.799  0.00  0.00    +0.000 OA
ATOM     14  H   UNL     1       3.450   5.454  21.344  0.00  0.00    +0.000 HD
ENDBRANCH  10  13
ENDBRANCH   2   5
BRANCH   1  15
ATOM     15  C   UNL     1       7.236   5.488  18.665  0.00  0.00    +0.000 C 
BRANCH  15  17
ATOM     16  N   UNL     1       7.251   4.719  16.298  0.00  0.00    +0.000 N 
ATOM     17  C   UNL     1       7.395   5.738  17.192  0.00  0.00    +0.000 C 
ATOM     18  O   UNL     1       7.666   6.869  16.811  0.00  0.00    +0.000 OA
ATOM     19  H   UNL     1       7.007   3.779  16.646  0.00  0.00    +0.000 HD
BRANCH  16  20
ATOM     20  C   UNL     1       7.436   4.890  14.867  0.00  0.00    +0.000 C 
BRANCH  20  22
ATOM     21  C   UNL     1       6.265   3.645  12.997  0.00  0.00    +0.000 C 
ATOM     22  C   UNL     1       6.110   4.691  14.111  0.00  0.00    +0.000 C 
ATOM     23  C   UNL     1       5.015   4.259  15.095  0.00  0.00    +0.000 C 
ENDBRANCH  20  22
ENDBRANCH  16  20
ENDBRANCH  15  17
ENDBRANCH   1  15
TORSDOF 7
ENDMDL
MODEL 8
REMARK VINA RESULT:      -6.9      1.945      2.326
REMARK  Name = 
REMARK  9 active torsions:
REMARK  status: ('A' for Active; 'I' for Inactive)
REMARK    1  A    between atoms: C_1  and  C_2
REMARK    2  A    between atoms: C_2  and  C_3
REMARK    3  A    between atoms: C_2  and  C_4
REMARK    4  A    between atoms: C_4  and  N_5
REMARK    5  A    between atoms: C_6  and  C_8
REMARK    6  A    between atoms: C_8  and  N_9
REMARK    7  A    between atoms: C_10  and  C_12
REMARK    8  A    between atoms: C_16  and  O_17
REMARK    9  A    between atoms: C_18  and  O_19
REMARK                            x       y       z     vdW  Elec       q    Type
REMARK                         _______ _______ _______ _____ _____    ______ ____
ROOT
ATOM      1  N   UNL     1       6.068   4.142  18.320  0.00  0.00    +0.000 N 
ATOM      2  C   UNL     1       4.872   4.648  18.744  0.00  0.00    +0.000 C 
ATOM      3  O   UNL     1       4.775   5.838  19.008  0.00  0.00    +0.000 OA
ATOM      4  H   UNL     1       6.149   3.138  18.096  0.00  0.00    +0.000 HD
ENDROOT
BRANCH   2   5
ATOM      5  C   UNL     1       3.675   3.766  18.879  0.00  0.00    +0.000 A 
ATOM      6  N   UNL     1       3.503   2.749  17.988  0.00  0.00    +0.000 NA
ATOM      7  C   UNL     1       2.438   1.908  18.036  0.00  0.00    +0.000 A 
ATOM      8  C   UNL     1       1.469   2.064  19.023  0.00  0.00    +0.000 A 
ATOM      9  C   UNL     1       1.602   3.095  19.961  0.00  0.00    +0.000 A 
ATOM     10  C   UNL     1       2.710   3.959  19.894  0.00  0.00    +0.000 A 
BRANCH   9  11
ATOM     11  O   UNL     1       0.672   3.260  20.925  0.00  0.00    +0.000 OA
ATOM     12  H   UNL     1      -0.168   2.777  20.922  0.00  0.00    +0.000 HD
ENDBRANCH   9  11
BRANCH  10  13
ATOM     13  O   UNL     1       2.847   4.963  20.790  0.00  0.00    +0.000 OA
ATOM     14  H   UNL     1       3.208   4.834  21.678  0.00  0.00    +0.000 HD
ENDBRANCH  10  13
ENDBRANCH   2   5
BRANCH   1  15
ATOM     15  C   UNL     1       7.252   4.964  18.135  0.00  0.00    +0.000 C 
BRANCH  15  17
ATOM     16  N   UNL     1       7.171   4.608  15.673  0.00  0.00    +0.000 N 
ATOM     17  C   UNL     1       7.338   5.464  16.720  0.00  0.00    +0.000 C 
ATOM     18  O   UNL     1       7.571   6.649  16.527  0.00  0.00    +0.000 OA
ATOM     19  H   UNL     1       6.960   3.616  15.866  0.00  0.00    +0.000 HD
BRANCH  16  20
ATOM     20  C   UNL     1       7.285   5.023  14.285  0.00  0.00    +0.000 C 
BRANCH  20  22
ATOM     21  C   UNL     1       5.189   3.878  13.442  0.00  0.00    +0.000 C 
ATOM     22  C   UNL     1       6.720   3.950  13.338  0.00  0.00    +0.000 C 
ATOM     23  C   UNL     1       7.139   4.263  11.896  0.00  0.00    +0.000 C 
ENDBRANCH  20  22
ENDBRANCH  16  20
ENDBRANCH  15  17
ENDBRANCH   1  15
TORSDOF 7
ENDMDL
MODEL 9
REMARK VINA RESULT:      -6.8      1.706      1.974
REMARK  Name = 
REMARK  9 active torsions:
REMARK  status: ('A' for Active; 'I' for Inactive)
REMARK    1  A    between atoms: C_1  and  C_2
REMARK    2  A    between atoms: C_2  and  C_3
REMARK    3  A    between atoms: C_2  and  C_4
REMARK    4  A    between atoms: C_4  and  N_5
REMARK    5  A    between atoms: C_6  and  C_8
REMARK    6  A    between atoms: C_8  and  N_9
REMARK    7  A    between atoms: C_10  and  C_12
REMARK    8  A    between atoms: C_16  and  O_17
REMARK    9  A    between atoms: C_18  and  O_19
REMARK                            x       y       z     vdW  Elec       q    Type
REMARK                         _______ _______ _______ _____ _____    ______ ____
ROOT
ATOM      1  N   UNL     1       6.274   4.531  16.347  0.00  0.00    +0.000 N 
ATOM      2  C   UNL     1       5.059   4.848  16.884  0.00  0.00    +0.000 C 
ATOM      3  O   UNL     1       4.610   5.978  16.749  0.00  0.00    +0.000 OA
ATOM      4  H   UNL     1       6.651   3.577  16.460  0.00  0.00    +0.000 HD
ENDROOT
BRANCH   2   5
ATOM      5  C   UNL     1       4.263   3.827  17.628  0.00  0.00    +0.000 A 
ATOM      6  N   UNL     1       3.165   3.284  17.030  0.00  0.00    +0.000 NA
ATOM      7  C   UNL     1       2.383   2.357  17.641  0.00  0.00    +0.000 A 
ATOM      8  C   UNL     1       2.691   1.923  18.927  0.00  0.00    +0.000 A 
ATOM      9  C   UNL     1       3.809   2.451  19.583  0.00  0.00    +0.000 A 
ATOM     10  C   UNL     1       4.606   3.413  18.936  0.00  0.00    +0.000 A 
BRANCH   9  11
ATOM     11  O   UNL     1       4.121   2.040  20.830  0.00  0.00    +0.000 OA
ATOM     12  H   UNL     1       3.445   1.840  21.493  0.00  0.00    +0.000 HD
ENDBRANCH   9  11
BRANCH  10  13
ATOM     13  O   UNL     1       5.685   3.937  19.561  0.00  0.00    +0.000 OA
ATOM     14  H   UNL     1       6.459   4.272  19.088  0.00  0.00    +0.000 HD
ENDBRANCH  10  13
ENDBRANCH   2   5
BRANCH   1  15
ATOM     15  C   UNL     1       7.069   5.476  15.581  0.00  0.00    +0.000 C 
BRANCH  15  17
ATOM     16  N   UNL     1       6.399   4.039  13.664  0.00  0.00    +0.000 N 
ATOM     17  C   UNL     1       7.193   5.032  14.151  0.00  0.00    +0.000 C 
ATOM     18  O   UNL     1       8.028   5.572  13.437  0.00  0.00    +0.000 OA
ATOM     19  H   UNL     1       5.693   3.612  14.284  0.00  0.00    +0.000 HD
BRANCH  16  20
ATOM     20  C   UNL     1       6.502   3.537  12.304  0.00  0.00    +0.000 C 
BRANCH  20  22
ATOM     21  C   UNL     1       4.215   3.215  11.265  0.00  0.00    +0.000 C 
ATOM     22  C   UNL     1       5.379   2.531  11.998  0.00  0.00    +0.000 C 
ATOM     23  C   UNL     1       5.935   1.379  11.150  0.00  0.00    +0.000 C 
ENDBRANCH  20  22
ENDBRANCH  16  20
ENDBRANCH  15  17
ENDBRANCH   1  15
TORSDOF 7
ENDMDL
