MODEL 1
REMARK VINA RESULT:      -8.2      0.000      0.000
REMARK  Name = 
REMARK  7 active torsions:
REMARK  status: ('A' for Active; 'I' for Inactive)
REMARK    1  A    between atoms: C_1  and  C_2
REMARK    2  A    between atoms: C_5  and  N_6
REMARK    3  A    between atoms: C_8  and  C_9
REMARK    4  A    between atoms: N_11  and  C_12
REMARK    5  A    between atoms: C_12  and  C_13
REMARK    6  A    between atoms: C_21  and  N_22
REMARK    7  A    between atoms: C_23  and  C_25
REMARK                            x       y       z     vdW  Elec       q    Type
REMARK                         _______ _______ _______ _____ _____    ______ ____
ROOT
ATOM      1  N   UNL     1       0.316  11.310  19.785  0.00  0.00    +0.000 N 
ATOM      2  N   UNL     1       0.474   9.961  19.810  0.00  0.00    +0.000 NA
ATOM      3  C   UNL     1       1.278   9.692  18.781  0.00  0.00    +0.000 A 
ATOM      4  C   UNL     1       1.741  10.859  18.152  0.00  0.00    +0.000 A 
ATOM      5  C   UNL     1       1.130  11.901  18.812  0.00  0.00    +0.000 A 
ENDROOT
BRANCH   1  10
ATOM      6  C   UNL     1      -3.404  13.792  23.380  0.00  0.00    +0.000 C 
ATOM      7  C   UNL     1      -2.428  13.144  22.442  0.00  0.00    +0.000 A 
ATOM      8  C   UNL     1      -1.280  12.506  22.925  0.00  0.00    +0.000 A 
ATOM      9  C   UNL     1      -0.389  11.888  22.043  0.00  0.00    +0.000 A 
ATOM     10  C   UNL     1      -0.618  11.930  20.661  0.00  0.00    +0.000 A 
ATOM     11  C   UNL     1      -1.780  12.543  20.176  0.00  0.00    +0.000 A 
ATOM     12  C   UNL     1      -2.676  13.145  21.064  0.00  0.00    +0.000 A 
ENDBRANCH   1  10
BRANCH   3  13
ATOM     13  C   UNL     1       1.635   8.265  18.385  0.00  0.00    +0.000 C 
ATOM     14  C   UNL     1       3.011   8.057  17.699  0.00  0.00    +0.000 C 
ATOM     15  N   UNL     1       3.303   6.926  18.606  0.00  0.00    +0.000 NA
ATOM     16  C   UNL     1       2.254   7.422  19.530  0.00  0.00    +0.000 C 
BRANCH  15  17
ATOM     17  C   UNL     1       2.898   5.650  17.976  0.00  0.00    +0.000 C 
BRANCH  17  18
ATOM     18  C   UNL     1       3.341   4.431  18.750  0.00  0.00    +0.000 A 
ATOM     19  C   UNL     1       4.692   4.170  18.954  0.00  0.00    +0.000 A 
ATOM     20  N   UNL     1       5.142   3.074  19.612  0.00  0.00    +0.000 NA
ATOM     21  C   UNL     1       4.178   2.238  20.063  0.00  0.00    +0.000 A 
ATOM     22  C   UNL     1       2.831   2.491  19.867  0.00  0.00    +0.000 A 
ATOM     23  N   UNL     1       2.381   3.584  19.214  0.00  0.00    +0.000 NA
ENDBRANCH  17  18
ENDBRANCH  15  17
ENDBRANCH   3  13
BRANCH   5  24
ATOM     24  N   UNL     1       1.339  13.262  18.591  0.00  0.00    +0.000 N 
ATOM     25  C   UNL     1       2.219  14.075  19.375  0.00  0.00    +0.000 C 
ATOM     26  O   UNL     1       2.849  13.657  20.332  0.00  0.00    +0.000 OA
ATOM     27  H   UNL     1       0.851  13.711  17.814  0.00  0.00    +0.000 HD
BRANCH  25  28
ATOM     28  C   UNL     1       2.335  15.392  18.813  0.00  0.00    +0.000 A 
ATOM     29  C   UNL     1       3.512  16.041  18.395  0.00  0.00    +0.000 A 
ATOM     30  N   UNL     1       3.275  17.207  17.795  0.00  0.00    +0.000 NA
ATOM     31  N   UNL     1       1.928  17.312  17.774  0.00  0.00    +0.000 N 
ATOM     32  C   UNL     1       1.144  18.228  17.084  0.00  0.00    +0.000 A 
ATOM     33  C   UNL     1      -0.191  18.169  17.165  0.00  0.00    +0.000 A 
ATOM     34  C   UNL     1      -0.728  17.130  18.090  0.00  0.00    +0.000 A 
ATOM     35  N   UNL     1      -0.030  16.219  18.708  0.00  0.00    +0.000 NA
ATOM     36  C   UNL     1       1.326  16.280  18.503  0.00  0.00    +0.000 A 
ENDBRANCH  25  28
ENDBRANCH   5  24
TORSDOF 6
ENDMDL
MODEL 2
REMARK VINA RESULT:      -8.1      0.794      1.238
REMARK  Name = 
REMARK  7 active torsions:
REMARK  status: ('A' for Active; 'I' for Inactive)
REMARK    1  A    between atoms: C_1  and  C_2
REMARK    2  A    between atoms: C_5  and  N_6
REMARK    3  A    between atoms: C_8  and  C_9
REMARK    4  A    between atoms: N_11  and  C_12
REMARK    5  A    between atoms: C_12  and  C_13
REMARK    6  A    between atoms: C_21  and  N_22
REMARK    7  A    between atoms: C_23  and  C_25
REMARK                            x       y       z     vdW  Elec       q    Type
REMARK                         _______ _______ _______ _____ _____    ______ ____
ROOT
ATOM      1  N   UNL     1       0.568  10.883  19.706  0.00  0.00    +0.000 N 
ATOM      2  N   UNL     1       0.775   9.544  19.608  0.00  0.00    +0.000 NA
ATOM      3  C   UNL     1       1.590   9.398  18.563  0.00  0.00    +0.000 A 
ATOM      4  C   UNL     1       2.010  10.633  18.044  0.00  0.00    +0.000 A 
ATOM      5  C   UNL     1       1.362  11.589  18.794  0.00  0.00    +0.000 A 
ENDROOT
BRANCH   1  10
ATOM      6  C   UNL     1      -3.336  12.939  23.373  0.00  0.00    +0.000 C 
ATOM      7  C   UNL     1      -2.317  12.400  22.410  0.00  0.00    +0.000 A 
ATOM      8  C   UNL     1      -2.459  12.589  21.032  0.00  0.00    +0.000 A 
ATOM      9  C   UNL     1      -1.494  12.101  20.147  0.00  0.00    +0.000 A 
ATOM     10  C   UNL     1      -0.389  11.386  20.630  0.00  0.00    +0.000 A 
ATOM     11  C   UNL     1      -0.229  11.220  22.011  0.00  0.00    +0.000 A 
ATOM     12  C   UNL     1      -1.189  11.725  22.892  0.00  0.00    +0.000 A 
ENDBRANCH   1  10
BRANCH   3  13
ATOM     13  C   UNL     1       1.999   8.026  18.041  0.00  0.00    +0.000 C 
ATOM     14  C   UNL     1       3.501   7.830  17.705  0.00  0.00    +0.000 C 
ATOM     15  N   UNL     1       3.512   6.557  18.456  0.00  0.00    +0.000 NA
ATOM     16  C   UNL     1       2.271   6.977  19.150  0.00  0.00    +0.000 C 
BRANCH  15  17
ATOM     17  C   UNL     1       3.252   5.423  17.541  0.00  0.00    +0.000 C 
BRANCH  17  18
ATOM     18  C   UNL     1       3.542   4.075  18.157  0.00  0.00    +0.000 A 
ATOM     19  C   UNL     1       3.085   2.906  17.560  0.00  0.00    +0.000 A 
ATOM     20  N   UNL     1       3.289   1.675  18.089  0.00  0.00    +0.000 NA
ATOM     21  C   UNL     1       3.978   1.658  19.254  0.00  0.00    +0.000 A 
ATOM     22  C   UNL     1       4.441   2.816  19.855  0.00  0.00    +0.000 A 
ATOM     23  N   UNL     1       4.240   4.043  19.328  0.00  0.00    +0.000 NA
ENDBRANCH  17  18
ENDBRANCH  15  17
ENDBRANCH   3  13
BRANCH   5  24
ATOM     24  N   UNL     1       1.521  12.970  18.698  0.00  0.00    +0.000 N 
ATOM     25  C   UNL     1       2.268  13.757  19.632  0.00  0.00    +0.000 C 
ATOM     26  O   UNL     1       2.812  13.294  20.620  0.00  0.00    +0.000 OA
ATOM     27  H   UNL     1       1.096  13.457  17.907  0.00  0.00    +0.000 HD
BRANCH  25  28
ATOM     28  C   UNL     1       2.374  15.118  19.186  0.00  0.00    +0.000 A 
ATOM     29  C   UNL     1       3.553  15.849  18.946  0.00  0.00    +0.000 A 
ATOM     30  N   UNL     1       3.321  17.047  18.412  0.00  0.00    +0.000 NA
ATOM     31  N   UNL     1       1.980  17.095  18.253  0.00  0.00    +0.000 N 
ATOM     32  C   UNL     1       1.226  18.028  17.552  0.00  0.00    +0.000 A 
ATOM     33  C   UNL     1      -0.106  17.905  17.484  0.00  0.00    +0.000 A 
ATOM     34  C   UNL     1      -0.682  16.774  18.265  0.00  0.00    +0.000 A 
ATOM     35  N   UNL     1      -0.007  15.848  18.887  0.00  0.00    +0.000 NA
ATOM     36  C   UNL     1       1.358  15.984  18.834  0.00  0.00    +0.000 A 
ENDBRANCH  25  28
ENDBRANCH   5  24
TORSDOF 6
ENDMDL
MODEL 3
REMARK VINA RESULT:      -8.0      0.827      1.188
REMARK  Name = 
REMARK  7 active torsions:
REMARK  status: ('A' for Active; 'I' for Inactive)
REMARK    1  A    between atoms: C_1  and  C_2
REMARK    2  A    between atoms: C_5  and  N_6
REMARK    3  A    between atoms: C_8  and  C_9
REMARK    4  A    between atoms: N_11  and  C_12
REMARK    5  A    between atoms: C_12  and  C_13
REMARK    6  A    between atoms: C_21  and  N_22
REMARK    7  A    between atoms: C_23  and  C_25
REMARK                            x       y       z     vdW  Elec       q    Type
REMARK                         _______ _______ _______ _____ _____    ______ ____
ROOT
ATOM      1  N   UNL     1       0.505  10.832  19.827  0.00  0.00    +0.000 N 
ATOM      2  N   UNL     1       0.709   9.494  19.709  0.00  0.00    +0.000 NA
ATOM      3  C   UNL     1       1.555   9.365  18.687  0.00  0.00    +0.000 A 
ATOM      4  C   UNL     1       1.997  10.609  18.206  0.00  0.00    +0.000 A 
ATOM      5  C   UNL     1       1.329  11.552  18.954  0.00  0.00    +0.000 A 
ENDROOT
BRANCH   1  10
ATOM      6  C   UNL     1      -3.420  12.773  23.534  0.00  0.00    +0.000 C 
ATOM      7  C   UNL     1      -2.390  12.265  22.567  0.00  0.00    +0.000 A 
ATOM      8  C   UNL     1      -1.319  11.480  23.003  0.00  0.00    +0.000 A 
ATOM      9  C   UNL     1      -0.377  10.995  22.090  0.00  0.00    +0.000 A 
ATOM     10  C   UNL     1      -0.479  11.321  20.731  0.00  0.00    +0.000 A 
ATOM     11  C   UNL     1      -1.565  12.084  20.286  0.00  0.00    +0.000 A 
ATOM     12  C   UNL     1      -2.513  12.551  21.201  0.00  0.00    +0.000 A 
ENDBRANCH   1  10
BRANCH   3  13
ATOM     13  C   UNL     1       1.975   8.002  18.150  0.00  0.00    +0.000 C 
ATOM     14  C   UNL     1       3.462   7.847  17.733  0.00  0.00    +0.000 C 
ATOM     15  N   UNL     1       3.551   6.580  18.490  0.00  0.00    +0.000 NA
ATOM     16  C   UNL     1       2.338   6.969  19.249  0.00  0.00    +0.000 C 
BRANCH  15  17
ATOM     17  C   UNL     1       3.275   5.433  17.597  0.00  0.00    +0.000 C 
BRANCH  17  18
ATOM     18  C   UNL     1       2.805   4.200  18.330  0.00  0.00    +0.000 A 
ATOM     19  C   UNL     1       1.558   3.645  18.064  0.00  0.00    +0.000 A 
ATOM     20  N   UNL     1       1.076   2.559  18.717  0.00  0.00    +0.000 NA
ATOM     21  C   UNL     1       1.899   2.044  19.660  0.00  0.00    +0.000 A 
ATOM     22  C   UNL     1       3.143   2.587  19.930  0.00  0.00    +0.000 A 
ATOM     23  N   UNL     1       3.626   3.667  19.278  0.00  0.00    +0.000 NA
ENDBRANCH  17  18
ENDBRANCH  15  17
ENDBRANCH   3  13
BRANCH   5  24
ATOM     24  N   UNL     1       1.497  12.934  18.892  0.00  0.00    +0.000 N 
ATOM     25  C   UNL     1       2.155  13.708  19.900  0.00  0.00    +0.000 C 
ATOM     26  O   UNL     1       2.607  13.231  20.927  0.00  0.00    +0.000 OA
ATOM     27  H   UNL     1       1.145  13.432  18.071  0.00  0.00    +0.000 HD
BRANCH  25  28
ATOM     28  C   UNL     1       2.302  15.075  19.482  0.00  0.00    +0.000 A 
ATOM     29  C   UNL     1       3.497  15.810  19.372  0.00  0.00    +0.000 A 
ATOM     30  N   UNL     1       3.317  17.015  18.831  0.00  0.00    +0.000 NA
ATOM     31  N   UNL     1       1.999  17.061  18.537  0.00  0.00    +0.000 N 
ATOM     32  C   UNL     1       1.317  18.001  17.774  0.00  0.00    +0.000 A 
ATOM     33  C   UNL     1      -0.001  17.876  17.569  0.00  0.00    +0.000 A 
ATOM     34  C   UNL     1      -0.649  16.735  18.274  0.00  0.00    +0.000 A 
ATOM     35  N   UNL     1      -0.038  15.803  18.950  0.00  0.00    +0.000 NA
ATOM     36  C   UNL     1       1.324  15.942  19.039  0.00  0.00    +0.000 A 
ENDBRANCH  25  28
ENDBRANCH   5  24
TORSDOF 6
ENDMDL
MODEL 4
REMARK VINA RESULT:      -8.0      1.701      2.010
REMARK  Name = 
REMARK  7 active torsions:
REMARK  status: ('A' for Active; 'I' for Inactive)
REMARK    1  A    between atoms: C_1  and  C_2
REMARK    2  A    between atoms: C_5  and  N_6
REMARK    3  A    between atoms: C_8  and  C_9
REMARK    4  A    between atoms: N_11  and  C_12
REMARK    5  A    between atoms: C_12  and  C_13
REMARK    6  A    between atoms: C_21  and  N_22
REMARK    7  A    between atoms: C_23  and  C_25
REMARK                            x       y       z     vdW  Elec       q    Type
REMARK                         _______ _______ _______ _____ _____    ______ ____
ROOT
ATOM      1  N   UNL     1       0.658  10.528  19.683  0.00  0.00    +0.000 N 
ATOM      2  N   UNL     1       0.977   9.208  19.650  0.00  0.00    +0.000 NA
ATOM      3  C   UNL     1       1.741   9.067  18.567  0.00  0.00    +0.000 A 
ATOM      4  C   UNL     1       2.019  10.299  17.953  0.00  0.00    +0.000 A 
ATOM      5  C   UNL     1       1.332  11.241  18.685  0.00  0.00    +0.000 A 
ENDROOT
BRANCH   1  10
ATOM      6  C   UNL     1      -3.109  12.413  23.579  0.00  0.00    +0.000 C 
ATOM      7  C   UNL     1      -2.121  11.919  22.562  0.00  0.00    +0.000 A 
ATOM      8  C   UNL     1      -1.097  11.038  22.923  0.00  0.00    +0.000 A 
ATOM      9  C   UNL     1      -0.195  10.569  21.964  0.00  0.00    +0.000 A 
ATOM     10  C   UNL     1      -0.286  11.005  20.635  0.00  0.00    +0.000 A 
ATOM     11  C   UNL     1      -1.326  11.866  20.265  0.00  0.00    +0.000 A 
ATOM     12  C   UNL     1      -2.236  12.318  21.225  0.00  0.00    +0.000 A 
ENDBRANCH   1  10
BRANCH   3  13
ATOM     13  C   UNL     1       2.240   7.705  18.100  0.00  0.00    +0.000 C 
ATOM     14  C   UNL     1       3.745   7.604  17.736  0.00  0.00    +0.000 C 
ATOM     15  N   UNL     1       3.867   6.373  18.547  0.00  0.00    +0.000 NA
ATOM     16  C   UNL     1       2.612   6.735  19.251  0.00  0.00    +0.000 C 
BRANCH  15  17
ATOM     17  C   UNL     1       3.673   5.180  17.693  0.00  0.00    +0.000 C 
BRANCH  17  18
ATOM     18  C   UNL     1       4.897   4.809  16.892  0.00  0.00    +0.000 A 
ATOM     19  C   UNL     1       6.165   4.865  17.461  0.00  0.00    +0.000 A 
ATOM     20  N   UNL     1       7.297   4.574  16.776  0.00  0.00    +0.000 NA
ATOM     21  C   UNL     1       7.112   4.221  15.482  0.00  0.00    +0.000 A 
ATOM     22  C   UNL     1       5.854   4.158  14.908  0.00  0.00    +0.000 A 
ATOM     23  N   UNL     1       4.724   4.446  15.590  0.00  0.00    +0.000 NA
ENDBRANCH  17  18
ENDBRANCH  15  17
ENDBRANCH   3  13
BRANCH   5  24
ATOM     24  N   UNL     1       1.363  12.622  18.500  0.00  0.00    +0.000 N 
ATOM     25  C   UNL     1       1.986  13.538  19.407  0.00  0.00    +0.000 C 
ATOM     26  O   UNL     1       2.525  13.196  20.446  0.00  0.00    +0.000 OA
ATOM     27  H   UNL     1       0.930  13.012  17.660  0.00  0.00    +0.000 HD
BRANCH  25  28
ATOM     28  C   UNL     1       1.981  14.871  18.871  0.00  0.00    +0.000 A 
ATOM     29  C   UNL     1       2.991  15.488  18.110  0.00  0.00    +0.000 A 
ATOM     30  N   UNL     1       2.634  16.686  17.649  0.00  0.00    +0.000 NA
ATOM     31  N   UNL     1       1.360  16.846  18.069  0.00  0.00    +0.000 N 
ATOM     32  C   UNL     1       0.443  17.820  17.694  0.00  0.00    +0.000 A 
ATOM     33  C   UNL     1      -0.796  17.812  18.203  0.00  0.00    +0.000 A 
ATOM     34  C   UNL     1      -1.058  16.759  19.224  0.00  0.00    +0.000 A 
ATOM     35  N   UNL     1      -0.245  15.796  19.560  0.00  0.00    +0.000 NA
ATOM     36  C   UNL     1       0.973  15.811  18.928  0.00  0.00    +0.000 A 
ENDBRANCH  25  28
ENDBRANCH   5  24
TORSDOF 6
ENDMDL
MODEL 5
REMARK VINA RESULT:      -7.8      1.534      2.081
REMARK  Name = 
REMARK  7 active torsions:
REMARK  status: ('A' for Active; 'I' for Inactive)
REMARK    1  A    between atoms: C_1  and  C_2
REMARK    2  A    between atoms: C_5  and  N_6
REMARK    3  A    between atoms: C_8  and  C_9
REMARK    4  A    between atoms: N_11  and  C_12
REMARK    5  A    between atoms: C_12  and  C_13
REMARK    6  A    between atoms: C_21  and  N_22
REMARK    7  A    between atoms: C_23  and  C_25
REMARK                            x       y       z     vdW  Elec       q    Type
REMARK                         _______ _______ _______ _____ _____    ______ ____
ROOT
ATOM      1  N   UNL     1       0.596  10.793  19.662  0.00  0.00    +0.000 N 
ATOM      2  N   UNL     1       0.878   9.465  19.607  0.00  0.00    +0.000 NA
ATOM      3  C   UNL     1       1.677   9.327  18.549  0.00  0.00    +0.000 A 
ATOM      4  C   UNL     1       2.014  10.564  17.977  0.00  0.00    +0.000 A 
ATOM      5  C   UNL     1       1.328  11.508  18.707  0.00  0.00    +0.000 A 
ENDROOT
BRANCH   1  10
ATOM      6  C   UNL     1      -3.338  12.762  23.344  0.00  0.00    +0.000 C 
ATOM      7  C   UNL     1      -2.311  12.246  22.378  0.00  0.00    +0.000 A 
ATOM      8  C   UNL     1      -2.465  12.427  20.999  0.00  0.00    +0.000 A 
ATOM      9  C   UNL     1      -1.493  11.960  20.110  0.00  0.00    +0.000 A 
ATOM     10  C   UNL     1      -0.368  11.275  20.590  0.00  0.00    +0.000 A 
ATOM     11  C   UNL     1      -0.197  11.116  21.970  0.00  0.00    +0.000 A 
ATOM     12  C   UNL     1      -1.165  11.601  22.855  0.00  0.00    +0.000 A 
ENDBRANCH   1  10
BRANCH   3  13
ATOM     13  C   UNL     1       2.153   7.962  18.066  0.00  0.00    +0.000 C 
ATOM     14  C   UNL     1       3.673   7.812  17.795  0.00  0.00    +0.000 C 
ATOM     15  N   UNL     1       3.696   6.552  18.567  0.00  0.00    +0.000 NA
ATOM     16  C   UNL     1       2.413   6.940  19.203  0.00  0.00    +0.000 C 
BRANCH  15  17
ATOM     17  C   UNL     1       3.512   5.396  17.661  0.00  0.00    +0.000 C 
BRANCH  17  18
ATOM     18  C   UNL     1       4.786   4.957  16.980  0.00  0.00    +0.000 A 
ATOM     19  C   UNL     1       4.769   4.491  15.670  0.00  0.00    +0.000 A 
ATOM     20  N   UNL     1       5.878   4.054  15.026  0.00  0.00    +0.000 NA
ATOM     21  C   UNL     1       7.020   4.102  15.751  0.00  0.00    +0.000 A 
ATOM     22  C   UNL     1       7.048   4.568  17.054  0.00  0.00    +0.000 A 
ATOM     23  N   UNL     1       5.944   5.006  17.697  0.00  0.00    +0.000 NA
ENDBRANCH  17  18
ENDBRANCH  15  17
ENDBRANCH   3  13
BRANCH   5  24
ATOM     24  N   UNL     1       1.406  12.892  18.558  0.00  0.00    +0.000 N 
ATOM     25  C   UNL     1       2.169  13.748  19.416  0.00  0.00    +0.000 C 
ATOM     26  O   UNL     1       2.801  13.348  20.379  0.00  0.00    +0.000 OA
ATOM     27  H   UNL     1       0.904  13.329  17.783  0.00  0.00    +0.000 HD
BRANCH  25  28
ATOM     28  C   UNL     1       2.171  15.097  18.921  0.00  0.00    +0.000 A 
ATOM     29  C   UNL     1       3.258  15.802  18.371  0.00  0.00    +0.000 A 
ATOM     30  N   UNL     1       2.910  16.992  17.882  0.00  0.00    +0.000 NA
ATOM     31  N   UNL     1       1.573  17.058  18.068  0.00  0.00    +0.000 N 
ATOM     32  C   UNL     1       0.676  17.987  17.557  0.00  0.00    +0.000 A 
ATOM     33  C   UNL     1      -0.631  17.884  17.833  0.00  0.00    +0.000 A 
ATOM     34  C   UNL     1      -1.001  16.781  18.764  0.00  0.00    +0.000 A 
ATOM     35  N   UNL     1      -0.199  15.858  19.217  0.00  0.00    +0.000 NA
ATOM     36  C   UNL     1       1.108  15.971  18.817  0.00  0.00    +0.000 A 
ENDBRANCH  25  28
ENDBRANCH   5  24
TORSDOF 6
ENDMDL
MODEL 6
REMARK VINA RESULT:      -7.7      7.195     11.688
REMARK  Name = 
REMARK  7 active torsions:
REMARK  status: ('A' for Active; 'I' for Inactive)
REMARK    1  A    between atoms: C_1  and  C_2
REMARK    2  A    between atoms: C_5  and  N_6
REMARK    3  A    between atoms: C_8  and  C_9
REMARK    4  A    between atoms: N_11  and  C_12
REMARK    5  A    between atoms: C_12  and  C_13
REMARK    6  A    between atoms: C_21  and  N_22
REMARK    7  A    between atoms: C_23  and  C_25
REMARK                            x       y       z     vdW  Elec       q    Type
REMARK                         _______ _______ _______ _____ _____    ______ ____
ROOT
ATOM      1  N   UNL     1       6.685   6.042  16.300  0.00  0.00    +0.000 N 
ATOM      2  N   UNL     1       7.776   6.851  16.301  0.00  0.00    +0.000 NA
ATOM      3  C   UNL     1       7.638   7.611  17.388  0.00  0.00    +0.000 A 
ATOM      4  C   UNL     1       6.528   7.232  18.160  0.00  0.00    +0.000 A 
ATOM      5  C   UNL     1       5.925   6.209  17.463  0.00  0.00    +0.000 A 
ENDROOT
BRANCH   1  10
ATOM      6  C   UNL     1       5.724   2.664  11.763  0.00  0.00    +0.000 C 
ATOM      7  C   UNL     1       5.980   3.547  12.950  0.00  0.00    +0.000 A 
ATOM      8  C   UNL     1       7.136   4.330  13.029  0.00  0.00    +0.000 A 
ATOM      9  C   UNL     1       7.353   5.164  14.129  0.00  0.00    +0.000 A 
ATOM     10  C   UNL     1       6.429   5.199  15.182  0.00  0.00    +0.000 A 
ATOM     11  C   UNL     1       5.257   4.438  15.094  0.00  0.00    +0.000 A 
ATOM     12  C   UNL     1       5.038   3.619  13.983  0.00  0.00    +0.000 A 
ENDBRANCH   1  10
BRANCH   3  13
ATOM     13  C   UNL     1       8.609   8.738  17.717  0.00  0.00    +0.000 C 
ATOM     14  C   UNL     1       8.014  10.169  17.793  0.00  0.00    +0.000 C 
ATOM     15  N   UNL     1       8.711  10.399  19.077  0.00  0.00    +0.000 NA
ATOM     16  C   UNL     1       8.869   8.933  19.233  0.00  0.00    +0.000 C 
BRANCH  15  17
ATOM     17  C   UNL     1      10.017  11.053  18.838  0.00  0.00    +0.000 C 
BRANCH  17  18
ATOM     18  C   UNL     1      10.130  12.420  19.468  0.00  0.00    +0.000 A 
ATOM     19  C   UNL     1      10.124  12.569  20.851  0.00  0.00    +0.000 A 
ATOM     20  N   UNL     1      10.189  13.775  21.466  0.00  0.00    +0.000 NA
ATOM     21  C   UNL     1      10.261  14.840  20.634  0.00  0.00    +0.000 A 
ATOM     22  C   UNL     1      10.271  14.702  19.257  0.00  0.00    +0.000 A 
ATOM     23  N   UNL     1      10.208  13.501  18.643  0.00  0.00    +0.000 NA
ENDBRANCH  17  18
ENDBRANCH  15  17
ENDBRANCH   3  13
BRANCH   5  24
ATOM     24  N   UNL     1       4.824   5.459  17.874  0.00  0.00    +0.000 N 
ATOM     25  C   UNL     1       3.497   5.983  17.992  0.00  0.00    +0.000 C 
ATOM     26  O   UNL     1       3.210   7.147  17.771  0.00  0.00    +0.000 OA
ATOM     27  H   UNL     1       4.961   4.470  18.091  0.00  0.00    +0.000 HD
BRANCH  25  28
ATOM     28  C   UNL     1       2.559   4.937  18.292  0.00  0.00    +0.000 A 
ATOM     29  C   UNL     1       1.812   4.172  17.376  0.00  0.00    +0.000 A 
ATOM     30  N   UNL     1       1.127   3.189  17.958  0.00  0.00    +0.000 NA
ATOM     31  N   UNL     1       1.458   3.273  19.266  0.00  0.00    +0.000 N 
ATOM     32  C   UNL     1       1.192   2.365  20.283  0.00  0.00    +0.000 A 
ATOM     33  C   UNL     1       1.618   2.605  21.530  0.00  0.00    +0.000 A 
ATOM     34  C   UNL     1       2.297   3.917  21.729  0.00  0.00    +0.000 A 
ATOM     35  N   UNL     1       2.614   4.767  20.793  0.00  0.00    +0.000 NA
ATOM     36  C   UNL     1       2.231   4.410  19.524  0.00  0.00    +0.000 A 
ENDBRANCH  25  28
ENDBRANCH   5  24
TORSDOF 6
ENDMDL
MODEL 7
REMARK VINA RESULT:      -7.7      2.350      4.989
REMARK  Name = 
REMARK  7 active torsions:
REMARK  status: ('A' for Active; 'I' for Inactive)
REMARK    1  A    between atoms: C_1  and  C_2
REMARK    2  A    between atoms: C_5  and  N_6
REMARK    3  A    between atoms: C_8  and  C_9
REMARK    4  A    between atoms: N_11  and  C_12
REMARK    5  A    between atoms: C_12  and  C_13
REMARK    6  A    between atoms: C_21  and  N_22
REMARK    7  A    between atoms: C_23  and  C_25
REMARK                            x       y       z     vdW  Elec       q    Type
REMARK                         _______ _______ _______ _____ _____    ______ ____
ROOT
ATOM      1  N   UNL     1       0.816  11.735  19.539  0.00  0.00    +0.000 N 
ATOM      2  N   UNL     1       1.442  10.799  18.778  0.00  0.00    +0.000 NA
ATOM      3  C   UNL     1       0.907   9.638  19.155  0.00  0.00    +0.000 A 
ATOM      4  C   UNL     1      -0.142   9.812  20.073  0.00  0.00    +0.000 A 
ATOM      5  C   UNL     1      -0.208  11.167  20.306  0.00  0.00    +0.000 A 
ENDROOT
BRANCH   1  10
ATOM      6  C   UNL     1       2.670  17.164  19.446  0.00  0.00    +0.000 C 
ATOM      7  C   UNL     1       2.189  15.742  19.471  0.00  0.00    +0.000 A 
ATOM      8  C   UNL     1       2.913  14.748  20.137  0.00  0.00    +0.000 A 
ATOM      9  C   UNL     1       2.444  13.432  20.171  0.00  0.00    +0.000 A 
ATOM     10  C   UNL     1       1.260  13.087  19.506  0.00  0.00    +0.000 A 
ATOM     11  C   UNL     1       0.518  14.084  18.861  0.00  0.00    +0.000 A 
ATOM     12  C   UNL     1       0.983  15.402  18.846  0.00  0.00    +0.000 A 
ENDBRANCH   1  10
BRANCH   3  13
ATOM     13  C   UNL     1       1.403   8.304  18.611  0.00  0.00    +0.000 C 
ATOM     14  C   UNL     1       2.768   8.318  17.873  0.00  0.00    +0.000 C 
ATOM     15  N   UNL     1       3.214   7.146  18.656  0.00  0.00    +0.000 NA
ATOM     16  C   UNL     1       2.151   7.430  19.651  0.00  0.00    +0.000 C 
BRANCH  15  17
ATOM     17  C   UNL     1       2.927   5.898  17.914  0.00  0.00    +0.000 C 
BRANCH  17  18
ATOM     18  C   UNL     1       3.373   4.651  18.640  0.00  0.00    +0.000 A 
ATOM     19  C   UNL     1       4.720   4.419  18.895  0.00  0.00    +0.000 A 
ATOM     20  N   UNL     1       5.174   3.301  19.513  0.00  0.00    +0.000 NA
ATOM     21  C   UNL     1       4.217   2.413  19.869  0.00  0.00    +0.000 A 
ATOM     22  C   UNL     1       2.874   2.637  19.623  0.00  0.00    +0.000 A 
ATOM     23  N   UNL     1       2.419   3.751  19.010  0.00  0.00    +0.000 NA
ENDBRANCH  17  18
ENDBRANCH  15  17
ENDBRANCH   3  13
BRANCH   5  24
ATOM     24  N   UNL     1      -1.147  11.831  21.094  0.00  0.00    +0.000 N 
ATOM     25  C   UNL     1      -1.170  11.783  22.524  0.00  0.00    +0.000 C 
ATOM     26  O   UNL     1      -0.383  11.131  23.189  0.00  0.00    +0.000 OA
ATOM     27  H   UNL     1      -1.857  12.401  20.630  0.00  0.00    +0.000 HD
BRANCH  25  28
ATOM     28  C   UNL     1      -2.158  12.683  23.050  0.00  0.00    +0.000 A 
ATOM     29  C   UNL     1      -3.552  12.491  23.089  0.00  0.00    +0.000 A 
ATOM     30  N   UNL     1      -4.189  13.450  23.759  0.00  0.00    +0.000 NA
ATOM     31  N   UNL     1      -3.206  14.261  24.209  0.00  0.00    +0.000 N 
ATOM     32  C   UNL     1      -3.294  15.295  25.133  0.00  0.00    +0.000 A 
ATOM     33  C   UNL     1      -2.200  15.986  25.478  0.00  0.00    +0.000 A 
ATOM     34  C   UNL     1      -0.955  15.614  24.748  0.00  0.00    +0.000 A 
ATOM     35  N   UNL     1      -0.820  14.617  23.919  0.00  0.00    +0.000 NA
ATOM     36  C   UNL     1      -1.962  13.892  23.685  0.00  0.00    +0.000 A 
ENDBRANCH  25  28
ENDBRANCH   5  24
TORSDOF 6
ENDMDL
MODEL 8
REMARK VINA RESULT:      -7.7      1.416      2.080
REMARK  Name = 
REMARK  7 active torsions:
REMARK  status: ('A' for Active; 'I' for Inactive)
REMARK    1  A    between atoms: C_1  and  C_2
REMARK    2  A    between atoms: C_5  and  N_6
REMARK    3  A    between atoms: C_8  and  C_9
REMARK    4  A    between atoms: N_11  and  C_12
REMARK    5  A    between atoms: C_12  and  C_13
REMARK    6  A    between atoms: C_21  and  N_22
REMARK    7  A    between atoms: C_23  and  C_25
REMARK                            x       y       z     vdW  Elec       q    Type
REMARK                         _______ _______ _______ _____ _____    ______ ____
ROOT
ATOM      1  N   UNL     1       0.374  10.687  20.063  0.00  0.00    +0.000 N 
ATOM      2  N   UNL     1       0.588   9.355  19.905  0.00  0.00    +0.000 NA
ATOM      3  C   UNL     1       1.425   9.263  18.872  0.00  0.00    +0.000 A 
ATOM      4  C   UNL     1       1.851  10.523  18.422  0.00  0.00    +0.000 A 
ATOM      5  C   UNL     1       1.183  11.439  19.203  0.00  0.00    +0.000 A 
ENDROOT
BRANCH   1  10
ATOM      6  C   UNL     1      -3.533  12.486  23.860  0.00  0.00    +0.000 C 
ATOM      7  C   UNL     1      -2.508  12.015  22.869  0.00  0.00    +0.000 A 
ATOM      8  C   UNL     1      -1.454  11.185  23.264  0.00  0.00    +0.000 A 
ATOM      9  C   UNL     1      -0.517  10.736  22.328  0.00  0.00    +0.000 A 
ATOM     10  C   UNL     1      -0.605  11.142  20.990  0.00  0.00    +0.000 A 
ATOM     11  C   UNL     1      -1.674  11.951  20.586  0.00  0.00    +0.000 A 
ATOM     12  C   UNL     1      -2.617  12.383  21.523  0.00  0.00    +0.000 A 
ENDBRANCH   1  10
BRANCH   3  13
ATOM     13  C   UNL     1       1.852   7.919  18.293  0.00  0.00    +0.000 C 
ATOM     14  C   UNL     1       3.310   7.817  17.773  0.00  0.00    +0.000 C 
ATOM     15  N   UNL     1       3.492   6.547  18.508  0.00  0.00    +0.000 NA
ATOM     16  C   UNL     1       2.322   6.889  19.352  0.00  0.00    +0.000 C 
BRANCH  15  17
ATOM     17  C   UNL     1       3.193   5.400  17.624  0.00  0.00    +0.000 C 
BRANCH  17  18
ATOM     18  C   UNL     1       3.521   4.062  18.243  0.00  0.00    +0.000 A 
ATOM     19  C   UNL     1       4.522   3.947  19.201  0.00  0.00    +0.000 A 
ATOM     20  N   UNL     1       4.877   2.766  19.762  0.00  0.00    +0.000 NA
ATOM     21  C   UNL     1       4.184   1.689  19.323  0.00  0.00    +0.000 A 
ATOM     22  C   UNL     1       3.183   1.794  18.373  0.00  0.00    +0.000 A 
ATOM     23  N   UNL     1       2.826   2.971  17.814  0.00  0.00    +0.000 NA
ENDBRANCH  17  18
ENDBRANCH  15  17
ENDBRANCH   3  13
BRANCH   5  24
ATOM     24  N   UNL     1       1.339  12.824  19.178  0.00  0.00    +0.000 N 
ATOM     25  C   UNL     1       0.461  13.717  18.483  0.00  0.00    +0.000 C 
ATOM     26  O   UNL     1      -0.493  13.344  17.821  0.00  0.00    +0.000 OA
ATOM     27  H   UNL     1       2.115  13.237  19.698  0.00  0.00    +0.000 HD
BRANCH  25  28
ATOM     28  C   UNL     1       0.794  15.085  18.766  0.00  0.00    +0.000 A 
ATOM     29  C   UNL     1      -0.094  16.168  18.909  0.00  0.00    +0.000 A 
ATOM     30  N   UNL     1       0.513  17.288  19.300  0.00  0.00    +0.000 NA
ATOM     31  N   UNL     1       1.807  16.935  19.462  0.00  0.00    +0.000 N 
ATOM     32  C   UNL     1       2.832  17.661  20.055  0.00  0.00    +0.000 A 
ATOM     33  C   UNL     1       4.062  17.139  20.148  0.00  0.00    +0.000 A 
ATOM     34  C   UNL     1       4.237  15.804  19.509  0.00  0.00    +0.000 A 
ATOM     35  N   UNL     1       3.291  15.069  18.996  0.00  0.00    +0.000 NA
ATOM     36  C   UNL     1       2.038  15.627  19.021  0.00  0.00    +0.000 A 
ENDBRANCH  25  28
ENDBRANCH   5  24
TORSDOF 6
ENDMDL
MODEL 9
REMARK VINA RESULT:      -7.7      1.418      1.992
REMARK  Name = 
REMARK  7 active torsions:
REMARK  status: ('A' for Active; 'I' for Inactive)
REMARK    1  A    between atoms: C_1  and  C_2
REMARK    2  A    between atoms: C_5  and  N_6
REMARK    3  A    between atoms: C_8  and  C_9
REMARK    4  A    between atoms: N_11  and  C_12
REMARK    5  A    between atoms: C_12  and  C_13
REMARK    6  A    between atoms: C_21  and  N_22
REMARK    7  A    between atoms: C_23  and  C_25
REMARK                            x       y       z     vdW  Elec       q    Type
REMARK                         _______ _______ _______ _____ _____    ______ ____
ROOT
ATOM      1  N   UNL     1       0.106  11.087  19.022  0.00  0.00    +0.000 N 
ATOM      2  N   UNL     1       0.321   9.746  19.073  0.00  0.00    +0.000 NA
ATOM      3  C   UNL     1       1.425   9.549  18.353  0.00  0.00    +0.000 A 
ATOM      4  C   UNL     1       2.001  10.756  17.926  0.00  0.00    +0.000 A 
ATOM      5  C   UNL     1       1.156  11.747  18.373  0.00  0.00    +0.000 A 
ENDROOT
BRANCH   1  10
ATOM      6  C   UNL     1      -4.762  13.271  21.131  0.00  0.00    +0.000 C 
ATOM      7  C   UNL     1      -3.490  12.697  20.577  0.00  0.00    +0.000 A 
ATOM      8  C   UNL     1      -3.442  12.174  19.281  0.00  0.00    +0.000 A 
ATOM      9  C   UNL     1      -2.247  11.661  18.768  0.00  0.00    +0.000 A 
ATOM     10  C   UNL     1      -1.092  11.634  19.562  0.00  0.00    +0.000 A 
ATOM     11  C   UNL     1      -1.130  12.181  20.850  0.00  0.00    +0.000 A 
ATOM     12  C   UNL     1      -2.323  12.709  21.350  0.00  0.00    +0.000 A 
ENDBRANCH   1  10
BRANCH   3  13
ATOM     13  C   UNL     1       1.967   8.153  18.069  0.00  0.00    +0.000 C 
ATOM     14  C   UNL     1       3.492   8.040  17.805  0.00  0.00    +0.000 C 
ATOM     15  N   UNL     1       3.581   6.908  18.752  0.00  0.00    +0.000 NA
ATOM     16  C   UNL     1       2.283   7.321  19.339  0.00  0.00    +0.000 C 
BRANCH  15  17
ATOM     17  C   UNL     1       3.451   5.625  18.026  0.00  0.00    +0.000 C 
BRANCH  17  18
ATOM     18  C   UNL     1       4.762   5.104  17.489  0.00  0.00    +0.000 A 
ATOM     19  C   UNL     1       5.847   4.898  18.334  0.00  0.00    +0.000 A 
ATOM     20  N   UNL     1       7.054   4.463  17.897  0.00  0.00    +0.000 NA
ATOM     21  C   UNL     1       7.136   4.240  16.564  0.00  0.00    +0.000 A 
ATOM     22  C   UNL     1       6.061   4.439  15.715  0.00  0.00    +0.000 A 
ATOM     23  N   UNL     1       4.857   4.870  16.150  0.00  0.00    +0.000 NA
ENDBRANCH  17  18
ENDBRANCH  15  17
ENDBRANCH   3  13
BRANCH   5  24
ATOM     24  N   UNL     1       1.351  13.122  18.254  0.00  0.00    +0.000 N 
ATOM     25  C   UNL     1       2.123  13.904  19.171  0.00  0.00    +0.000 C 
ATOM     26  O   UNL     1       2.661  13.442  20.164  0.00  0.00    +0.000 OA
ATOM     27  H   UNL     1       0.933  13.607  17.457  0.00  0.00    +0.000 HD
BRANCH  25  28
ATOM     28  C   UNL     1       2.261  15.254  18.702  0.00  0.00    +0.000 A 
ATOM     29  C   UNL     1       3.446  15.904  18.307  0.00  0.00    +0.000 A 
ATOM     30  N   UNL     1       3.228  17.115  17.796  0.00  0.00    +0.000 NA
ATOM     31  N   UNL     1       1.884  17.253  17.810  0.00  0.00    +0.000 N 
ATOM     32  C   UNL     1       1.111  18.234  17.202  0.00  0.00    +0.000 A 
ATOM     33  C   UNL     1      -0.224  18.201  17.306  0.00  0.00    +0.000 A 
ATOM     34  C   UNL     1      -0.769  17.112  18.165  0.00  0.00    +0.000 A 
ATOM     35  N   UNL     1      -0.084  16.143  18.703  0.00  0.00    +0.000 NA
ATOM     36  C   UNL     1       1.269  16.186  18.476  0.00  0.00    +0.000 A 
ENDBRANCH  25  28
ENDBRANCH   5  24
TORSDOF 6
ENDMDL
