MODEL 1
REMARK VINA RESULT:      -9.1      0.000      0.000
REMARK  Name = 
REMARK  9 active torsions:
REMARK  status: ('A' for Active; 'I' for Inactive)
REMARK    1  A    between atoms: C_1  and  C_2
REMARK    2  A    between atoms: C_2  and  C_3
REMARK    3  A    between atoms: C_2  and  N_4
REMARK    4  A    between atoms: C_5  and  O_7
REMARK    5  A    between atoms: O_7  and  C_8
REMARK    6  A    between atoms: C_11  and  N_12
REMARK    7  A    between atoms: C_14  and  C_15
REMARK    8  A    between atoms: N_19  and  C_20
REMARK    9  A    between atoms: C_28  and  C_29
REMARK                            x       y       z     vdW  Elec       q    Type
REMARK                         _______ _______ _______ _____ _____    ______ ____
ROOT
ATOM      1  N   UNL     1       2.306   7.057  19.849  0.00  0.00    +0.000 N 
ATOM      2  C   UNL     1       1.530   6.197  20.554  0.00  0.00    +0.000 A 
ATOM      3  C   UNL     1       2.190   4.980  20.544  0.00  0.00    +0.000 A 
ATOM      4  C   UNL     1       3.356   5.214  19.749  0.00  0.00    +0.000 A 
ATOM      5  N   UNL     1       4.234   4.241  19.380  0.00  0.00    +0.000 N 
ATOM      6  N   UNL     1       3.415   6.494  19.372  0.00  0.00    +0.000 NA
ATOM      7  H   UNL     1       4.027   3.297  19.687  0.00  0.00    +0.000 HD
ENDROOT
BRANCH   5   8
ATOM      8  C   UNL     1       5.115   4.238  18.266  0.00  0.00    +0.000 A 
ATOM      9  C   UNL     1       6.464   4.622  18.345  0.00  0.00    +0.000 A 
ATOM     10  C   UNL     1       7.259   4.727  17.201  0.00  0.00    +0.000 A 
ATOM     11  C   UNL     1       6.715   4.423  15.964  0.00  0.00    +0.000 A 
ATOM     12  F   UNL     1       7.467   4.546  14.862  0.00  0.00    +0.000 F 
ATOM     13  C   UNL     1       5.400   3.995  15.854  0.00  0.00    +0.000 A 
ATOM     14  C   UNL     1       4.605   3.895  17.001  0.00  0.00    +0.000 A 
ENDBRANCH   5   8
BRANCH   1  18
ATOM     15  C   UNL     1       0.376  10.743  18.626  0.00  0.00    +0.000 C 
ATOM     16  C   UNL     1       1.505  10.153  17.778  0.00  0.00    +0.000 C 
ATOM     17  C   UNL     1       1.738   8.681  18.095  0.00  0.00    +0.000 C 
ATOM     18  C   UNL     1       2.059   8.472  19.585  0.00  0.00    +0.000 C 
ATOM     19  C   UNL     1       0.937   9.044  20.477  0.00  0.00    +0.000 C 
ATOM     20  C   UNL     1       0.641  10.513  20.118  0.00  0.00    +0.000 C 
BRANCH  19  21
ATOM     21  C   UNL     1       1.324   8.973  21.902  0.00  0.00    +0.000 C 
ATOM     22  N   UNL     1       1.661   8.938  23.010  0.00  0.00    +0.000 NA
ENDBRANCH  19  21
BRANCH  15  23
ATOM     23  O   UNL     1      -0.887  10.137  18.275  0.00  0.00    +0.000 OA
BRANCH  23  25
ATOM     24  N   UNL     1      -2.408  10.288  16.639  0.00  0.00    +0.000 N 
ATOM     25  C   UNL     1      -1.748  10.965  17.622  0.00  0.00    +0.000 C 
ATOM     26  O   UNL     1      -1.910  12.149  17.881  0.00  0.00    +0.000 OA
ATOM     27  H   UNL     1      -2.100   9.343  16.460  0.00  0.00    +0.000 HD
BRANCH  24  29
ATOM     28  C   UNL     1      -3.537  10.135  14.460  0.00  0.00    +0.000 C 
ATOM     29  C   UNL     1      -3.334  10.951  15.734  0.00  0.00    +0.000 C 
ATOM     30  C   UNL     1      -4.669  11.217  16.424  0.00  0.00    +0.000 C 
ENDBRANCH  24  29
ENDBRANCH  23  25
ENDBRANCH  15  23
ENDBRANCH   1  18
BRANCH   3  31
ATOM     31  C   UNL     1       1.674   3.779  21.168  0.00  0.00    +0.000 C 
ATOM     32  N   UNL     1       0.630   3.167  20.531  0.00  0.00    +0.000 N 
ATOM     33  O   UNL     1       2.160   3.275  22.173  0.00  0.00    +0.000 OA
ATOM     34  H   UNL     1       0.540   3.276  19.530  0.00  0.00    +0.000 HD
ATOM     35  H   UNL     1       0.428   2.244  20.899  0.00  0.00    +0.000 HD
ENDBRANCH   3  31
TORSDOF 7
ENDMDL
MODEL 2
REMARK VINA RESULT:      -8.7      0.991      1.227
REMARK  Name = 
REMARK  9 active torsions:
REMARK  status: ('A' for Active; 'I' for Inactive)
REMARK    1  A    between atoms: C_1  and  C_2
REMARK    2  A    between atoms: C_2  and  C_3
REMARK    3  A    between atoms: C_2  and  N_4
REMARK    4  A    between atoms: C_5  and  O_7
REMARK    5  A    between atoms: O_7  and  C_8
REMARK    6  A    between atoms: C_11  and  N_12
REMARK    7  A    between atoms: C_14  and  C_15
REMARK    8  A    between atoms: N_19  and  C_20
REMARK    9  A    between atoms: C_28  and  C_29
REMARK                            x       y       z     vdW  Elec       q    Type
REMARK                         _______ _______ _______ _____ _____    ______ ____
ROOT
ATOM      1  N   UNL     1       2.236   7.071  19.812  0.00  0.00    +0.000 N 
ATOM      2  C   UNL     1       1.497   6.199  20.542  0.00  0.00    +0.000 A 
ATOM      3  C   UNL     1       2.204   5.008  20.554  0.00  0.00    +0.000 A 
ATOM      4  C   UNL     1       3.353   5.268  19.744  0.00  0.00    +0.000 A 
ATOM      5  N   UNL     1       4.265   4.320  19.389  0.00  0.00    +0.000 N 
ATOM      6  N   UNL     1       3.362   6.540  19.338  0.00  0.00    +0.000 NA
ATOM      7  H   UNL     1       4.095   3.376  19.720  0.00  0.00    +0.000 HD
ENDROOT
BRANCH   5   8
ATOM      8  C   UNL     1       5.137   4.324  18.269  0.00  0.00    +0.000 A 
ATOM      9  C   UNL     1       6.485   4.715  18.338  0.00  0.00    +0.000 A 
ATOM     10  C   UNL     1       7.270   4.827  17.189  0.00  0.00    +0.000 A 
ATOM     11  C   UNL     1       6.718   4.524  15.955  0.00  0.00    +0.000 A 
ATOM     12  F   UNL     1       7.461   4.654  14.848  0.00  0.00    +0.000 F 
ATOM     13  C   UNL     1       5.404   4.090  15.854  0.00  0.00    +0.000 A 
ATOM     14  C   UNL     1       4.620   3.982  17.007  0.00  0.00    +0.000 A 
ENDBRANCH   5   8
BRANCH   1  18
ATOM     15  C   UNL     1       0.147  10.658  18.553  0.00  0.00    +0.000 C 
ATOM     16  C   UNL     1       1.269  10.082  17.685  0.00  0.00    +0.000 C 
ATOM     17  C   UNL     1       1.560   8.627  18.034  0.00  0.00    +0.000 C 
ATOM     18  C   UNL     1       1.934   8.470  19.517  0.00  0.00    +0.000 C 
ATOM     19  C   UNL     1       0.822   9.030  20.430  0.00  0.00    +0.000 C 
ATOM     20  C   UNL     1       0.467  10.478  20.041  0.00  0.00    +0.000 C 
BRANCH  19  21
ATOM     21  C   UNL     1       1.256   9.012  21.843  0.00  0.00    +0.000 C 
ATOM     22  N   UNL     1       1.558   8.989  22.961  0.00  0.00    +0.000 NA
ENDBRANCH  19  21
BRANCH  15  23
ATOM     23  O   UNL     1      -1.105  10.002  18.259  0.00  0.00    +0.000 OA
BRANCH  23  25
ATOM     24  N   UNL     1      -2.975  11.126  18.763  0.00  0.00    +0.000 N 
ATOM     25  C   UNL     1      -2.077  10.828  17.781  0.00  0.00    +0.000 C 
ATOM     26  O   UNL     1      -2.134  11.247  16.634  0.00  0.00    +0.000 OA
ATOM     27  H   UNL     1      -2.870  10.627  19.634  0.00  0.00    +0.000 HD
BRANCH  24  29
ATOM     28  C   UNL     1      -5.266  11.091  17.872  0.00  0.00    +0.000 C 
ATOM     29  C   UNL     1      -4.160  11.931  18.505  0.00  0.00    +0.000 C 
ATOM     30  C   UNL     1      -4.652  12.595  19.787  0.00  0.00    +0.000 C 
ENDBRANCH  24  29
ENDBRANCH  23  25
ENDBRANCH  15  23
ENDBRANCH   1  18
BRANCH   3  31
ATOM     31  C   UNL     1       1.737   3.804  21.209  0.00  0.00    +0.000 C 
ATOM     32  N   UNL     1       0.701   3.146  20.603  0.00  0.00    +0.000 N 
ATOM     33  O   UNL     1       2.257   3.333  22.214  0.00  0.00    +0.000 OA
ATOM     34  H   UNL     1       0.590   3.234  19.602  0.00  0.00    +0.000 HD
ATOM     35  H   UNL     1       0.535   2.225  20.991  0.00  0.00    +0.000 HD
ENDBRANCH   3  31
TORSDOF 7
ENDMDL
MODEL 3
REMARK VINA RESULT:      -8.5      0.407      1.144
REMARK  Name = 
REMARK  9 active torsions:
REMARK  status: ('A' for Active; 'I' for Inactive)
REMARK    1  A    between atoms: C_1  and  C_2
REMARK    2  A    between atoms: C_2  and  C_3
REMARK    3  A    between atoms: C_2  and  N_4
REMARK    4  A    between atoms: C_5  and  O_7
REMARK    5  A    between atoms: O_7  and  C_8
REMARK    6  A    between atoms: C_11  and  N_12
REMARK    7  A    between atoms: C_14  and  C_15
REMARK    8  A    between atoms: N_19  and  C_20
REMARK    9  A    between atoms: C_28  and  C_29
REMARK                            x       y       z     vdW  Elec       q    Type
REMARK                         _______ _______ _______ _____ _____    ______ ____
ROOT
ATOM      1  N   UNL     1       2.151   7.195  19.906  0.00  0.00    +0.000 N 
ATOM      2  C   UNL     1       1.448   6.291  20.632  0.00  0.00    +0.000 A 
ATOM      3  C   UNL     1       2.153   5.100  20.557  0.00  0.00    +0.000 A 
ATOM      4  C   UNL     1       3.263   5.397  19.706  0.00  0.00    +0.000 A 
ATOM      5  N   UNL     1       4.155   4.467  19.266  0.00  0.00    +0.000 N 
ATOM      6  N   UNL     1       3.253   6.686  19.356  0.00  0.00    +0.000 NA
ATOM      7  H   UNL     1       4.001   3.509  19.563  0.00  0.00    +0.000 HD
ENDROOT
BRANCH   5   8
ATOM      8  C   UNL     1       4.973   4.521  18.106  0.00  0.00    +0.000 A 
ATOM      9  C   UNL     1       4.496   4.263  16.810  0.00  0.00    +0.000 A 
ATOM     10  C   UNL     1       5.362   4.200  15.716  0.00  0.00    +0.000 A 
ATOM     11  C   UNL     1       6.716   4.421  15.905  0.00  0.00    +0.000 A 
ATOM     12  F   UNL     1       7.552   4.338  14.862  0.00  0.00    +0.000 F 
ATOM     13  C   UNL     1       7.215   4.725  17.164  0.00  0.00    +0.000 A 
ATOM     14  C   UNL     1       6.346   4.783  18.259  0.00  0.00    +0.000 A 
ENDBRANCH   5   8
BRANCH   1  18
ATOM     15  C   UNL     1      -0.004  10.834  18.949  0.00  0.00    +0.000 C 
ATOM     16  C   UNL     1       1.043  10.287  17.975  0.00  0.00    +0.000 C 
ATOM     17  C   UNL     1       1.350   8.819  18.245  0.00  0.00    +0.000 C 
ATOM     18  C   UNL     1       1.837   8.604  19.689  0.00  0.00    +0.000 C 
ATOM     19  C   UNL     1       0.803   9.134  20.705  0.00  0.00    +0.000 C 
ATOM     20  C   UNL     1       0.429  10.598  20.399  0.00  0.00    +0.000 C 
BRANCH  19  21
ATOM     21  C   UNL     1       1.346   9.061  22.079  0.00  0.00    +0.000 C 
ATOM     22  N   UNL     1       1.805   9.019  23.141  0.00  0.00    +0.000 NA
ENDBRANCH  19  21
BRANCH  15  23
ATOM     23  O   UNL     1      -1.280  10.195  18.729  0.00  0.00    +0.000 OA
BRANCH  23  25
ATOM     24  N   UNL     1      -2.982   9.951  17.294  0.00  0.00    +0.000 N 
ATOM     25  C   UNL     1      -2.079  10.826  17.824  0.00  0.00    +0.000 C 
ATOM     26  O   UNL     1      -2.002  12.010  17.532  0.00  0.00    +0.000 OA
ATOM     27  H   UNL     1      -2.865   8.979  17.542  0.00  0.00    +0.000 HD
BRANCH  24  29
ATOM     28  C   UNL     1      -4.713  11.576  16.653  0.00  0.00    +0.000 C 
ATOM     29  C   UNL     1      -3.910  10.344  16.244  0.00  0.00    +0.000 C 
ATOM     30  C   UNL     1      -3.169  10.593  14.934  0.00  0.00    +0.000 C 
ENDBRANCH  24  29
ENDBRANCH  23  25
ENDBRANCH  15  23
ENDBRANCH   1  18
BRANCH   3  31
ATOM     31  C   UNL     1       1.718   3.868  21.181  0.00  0.00    +0.000 C 
ATOM     32  N   UNL     1       0.692   3.206  20.563  0.00  0.00    +0.000 N 
ATOM     33  O   UNL     1       2.255   3.380  22.168  0.00  0.00    +0.000 OA
ATOM     34  H   UNL     1       0.572   3.320  19.565  0.00  0.00    +0.000 HD
ATOM     35  H   UNL     1       0.549   2.270  20.925  0.00  0.00    +0.000 HD
ENDBRANCH   3  31
TORSDOF 7
ENDMDL
MODEL 4
REMARK VINA RESULT:      -8.0      4.297      7.991
REMARK  Name = 
REMARK  9 active torsions:
REMARK  status: ('A' for Active; 'I' for Inactive)
REMARK    1  A    between atoms: C_1  and  C_2
REMARK    2  A    between atoms: C_2  and  C_3
REMARK    3  A    between atoms: C_2  and  N_4
REMARK    4  A    between atoms: C_5  and  O_7
REMARK    5  A    between atoms: O_7  and  C_8
REMARK    6  A    between atoms: C_11  and  N_12
REMARK    7  A    between atoms: C_14  and  C_15
REMARK    8  A    between atoms: N_19  and  C_20
REMARK    9  A    between atoms: C_28  and  C_29
REMARK                            x       y       z     vdW  Elec       q    Type
REMARK                         _______ _______ _______ _____ _____    ______ ____
ROOT
ATOM      1  N   UNL     1       4.061   5.374  19.192  0.00  0.00    +0.000 N 
ATOM      2  C   UNL     1       3.750   4.210  19.813  0.00  0.00    +0.000 A 
ATOM      3  C   UNL     1       2.555   4.431  20.478  0.00  0.00    +0.000 A 
ATOM      4  C   UNL     1       2.254   5.804  20.219  0.00  0.00    +0.000 A 
ATOM      5  N   UNL     1       1.214   6.476  20.787  0.00  0.00    +0.000 N 
ATOM      6  N   UNL     1       3.169   6.340  19.406  0.00  0.00    +0.000 NA
ATOM      7  H   UNL     1       0.635   5.956  21.439  0.00  0.00    +0.000 HD
ENDROOT
BRANCH   5   8
ATOM      8  C   UNL     1       1.083   7.876  20.986  0.00  0.00    +0.000 A 
ATOM      9  C   UNL     1       0.826   8.460  22.237  0.00  0.00    +0.000 A 
ATOM     10  C   UNL     1       0.577   9.828  22.365  0.00  0.00    +0.000 A 
ATOM     11  C   UNL     1       0.606  10.633  21.238  0.00  0.00    +0.000 A 
ATOM     12  F   UNL     1       0.343  11.941  21.353  0.00  0.00    +0.000 F 
ATOM     13  C   UNL     1       0.902  10.098  19.992  0.00  0.00    +0.000 A 
ATOM     14  C   UNL     1       1.147   8.727  19.868  0.00  0.00    +0.000 A 
ENDBRANCH   5   8
BRANCH   1  18
ATOM     15  C   UNL     1       6.985   5.123  15.999  0.00  0.00    +0.000 C 
ATOM     16  C   UNL     1       7.361   4.683  17.416  0.00  0.00    +0.000 C 
ATOM     17  C   UNL     1       6.126   4.415  18.268  0.00  0.00    +0.000 C 
ATOM     18  C   UNL     1       5.218   5.654  18.345  0.00  0.00    +0.000 C 
ATOM     19  C   UNL     1       4.806   6.125  16.933  0.00  0.00    +0.000 C 
ATOM     20  C   UNL     1       6.043   6.331  16.038  0.00  0.00    +0.000 C 
BRANCH  19  21
ATOM     21  C   UNL     1       4.060   7.399  17.012  0.00  0.00    +0.000 C 
ATOM     22  N   UNL     1       3.510   8.416  17.083  0.00  0.00    +0.000 NA
ENDBRANCH  19  21
BRANCH  15  23
ATOM     23  O   UNL     1       6.337   4.044  15.291  0.00  0.00    +0.000 OA
BRANCH  23  25
ATOM     24  N   UNL     1       5.573   3.265  13.336  0.00  0.00    +0.000 N 
ATOM     25  C   UNL     1       6.474   4.094  13.937  0.00  0.00    +0.000 C 
ATOM     26  O   UNL     1       7.287   4.788  13.343  0.00  0.00    +0.000 OA
ATOM     27  H   UNL     1       5.034   2.669  13.947  0.00  0.00    +0.000 HD
BRANCH  24  29
ATOM     28  C   UNL     1       6.057   1.676  11.523  0.00  0.00    +0.000 C 
ATOM     29  C   UNL     1       5.550   3.067  11.895  0.00  0.00    +0.000 C 
ATOM     30  C   UNL     1       4.148   3.298  11.339  0.00  0.00    +0.000 C 
ENDBRANCH  24  29
ENDBRANCH  23  25
ENDBRANCH  15  23
ENDBRANCH   1  18
BRANCH   3  31
ATOM     31  C   UNL     1       1.892   3.435  21.293  0.00  0.00    +0.000 C 
ATOM     32  N   UNL     1       0.716   2.935  20.802  0.00  0.00    +0.000 N 
ATOM     33  O   UNL     1       2.358   2.991  22.335  0.00  0.00    +0.000 OA
ATOM     34  H   UNL     1       0.574   2.923  19.801  0.00  0.00    +0.000 HD
ATOM     35  H   UNL     1       0.390   2.120  21.309  0.00  0.00    +0.000 HD
ENDBRANCH   3  31
TORSDOF 7
ENDMDL
MODEL 5
REMARK VINA RESULT:      -7.9      1.603      2.227
REMARK  Name = 
REMARK  9 active torsions:
REMARK  status: ('A' for Active; 'I' for Inactive)
REMARK    1  A    between atoms: C_1  and  C_2
REMARK    2  A    between atoms: C_2  and  C_3
REMARK    3  A    between atoms: C_2  and  N_4
REMARK    4  A    between atoms: C_5  and  O_7
REMARK    5  A    between atoms: O_7  and  C_8
REMARK    6  A    between atoms: C_11  and  N_12
REMARK    7  A    between atoms: C_14  and  C_15
REMARK    8  A    between atoms: N_19  and  C_20
REMARK    9  A    between atoms: C_28  and  C_29
REMARK                            x       y       z     vdW  Elec       q    Type
REMARK                         _______ _______ _______ _____ _____    ______ ____
ROOT
ATOM      1  N   UNL     1       2.118   7.294  19.903  0.00  0.00    +0.000 N 
ATOM      2  C   UNL     1       1.376   6.392  20.592  0.00  0.00    +0.000 A 
ATOM      3  C   UNL     1       2.048   5.184  20.498  0.00  0.00    +0.000 A 
ATOM      4  C   UNL     1       3.181   5.470  19.674  0.00  0.00    +0.000 A 
ATOM      5  N   UNL     1       4.055   4.526  19.226  0.00  0.00    +0.000 N 
ATOM      6  N   UNL     1       3.215   6.768  19.358  0.00  0.00    +0.000 NA
ATOM      7  H   UNL     1       3.868   3.566  19.495  0.00  0.00    +0.000 HD
ENDROOT
BRANCH   5   8
ATOM      8  C   UNL     1       4.895   4.587  18.083  0.00  0.00    +0.000 A 
ATOM      9  C   UNL     1       4.450   4.315  16.779  0.00  0.00    +0.000 A 
ATOM     10  C   UNL     1       5.338   4.260  15.703  0.00  0.00    +0.000 A 
ATOM     11  C   UNL     1       6.685   4.502  15.919  0.00  0.00    +0.000 A 
ATOM     12  F   UNL     1       7.543   4.426  14.893  0.00  0.00    +0.000 F 
ATOM     13  C   UNL     1       7.153   4.820  17.185  0.00  0.00    +0.000 A 
ATOM     14  C   UNL     1       6.261   4.871  18.262  0.00  0.00    +0.000 A 
ENDBRANCH   5   8
BRANCH   1  18
ATOM     15  C   UNL     1       0.068  11.022  19.062  0.00  0.00    +0.000 C 
ATOM     16  C   UNL     1       1.070  10.456  18.052  0.00  0.00    +0.000 C 
ATOM     17  C   UNL     1       1.332   8.973  18.290  0.00  0.00    +0.000 C 
ATOM     18  C   UNL     1       1.848   8.717  19.717  0.00  0.00    +0.000 C 
ATOM     19  C   UNL     1       0.860   9.264  20.769  0.00  0.00    +0.000 C 
ATOM     20  C   UNL     1       0.529  10.745  20.497  0.00  0.00    +0.000 C 
BRANCH  19  21
ATOM     21  C   UNL     1       1.434   9.148  22.126  0.00  0.00    +0.000 C 
ATOM     22  N   UNL     1       1.849   9.069  23.205  0.00  0.00    +0.000 NA
ENDBRANCH  19  21
BRANCH  15  23
ATOM     23  O   UNL     1      -1.234  10.431  18.865  0.00  0.00    +0.000 OA
BRANCH  23  25
ATOM     24  N   UNL     1      -2.308  12.043  19.989  0.00  0.00    +0.000 N 
ATOM     25  C   UNL     1      -2.261  11.326  18.830  0.00  0.00    +0.000 C 
ATOM     26  O   UNL     1      -3.029  11.469  17.890  0.00  0.00    +0.000 OA
ATOM     27  H   UNL     1      -1.683  11.748  20.726  0.00  0.00    +0.000 HD
BRANCH  24  29
ATOM     28  C   UNL     1      -4.353  12.490  21.280  0.00  0.00    +0.000 C 
ATOM     29  C   UNL     1      -3.357  13.017  20.250  0.00  0.00    +0.000 C 
ATOM     30  C   UNL     1      -2.761  14.345  20.706  0.00  0.00    +0.000 C 
ENDBRANCH  24  29
ENDBRANCH  23  25
ENDBRANCH  15  23
ENDBRANCH   1  18
BRANCH   3  31
ATOM     31  C   UNL     1       1.567   3.949  21.081  0.00  0.00    +0.000 C 
ATOM     32  N   UNL     1       0.530   3.336  20.431  0.00  0.00    +0.000 N 
ATOM     33  O   UNL     1       2.075   3.418  22.061  0.00  0.00    +0.000 OA
ATOM     34  H   UNL     1       0.428   3.481  19.435  0.00  0.00    +0.000 HD
ATOM     35  H   UNL     1       0.353   2.396  20.765  0.00  0.00    +0.000 HD
ENDBRANCH   3  31
TORSDOF 7
ENDMDL
MODEL 6
REMARK VINA RESULT:      -7.6      1.608      2.108
REMARK  Name = 
REMARK  9 active torsions:
REMARK  status: ('A' for Active; 'I' for Inactive)
REMARK    1  A    between atoms: C_1  and  C_2
REMARK    2  A    between atoms: C_2  and  C_3
REMARK    3  A    between atoms: C_2  and  N_4
REMARK    4  A    between atoms: C_5  and  O_7
REMARK    5  A    between atoms: O_7  and  C_8
REMARK    6  A    between atoms: C_11  and  N_12
REMARK    7  A    between atoms: C_14  and  C_15
REMARK    8  A    between atoms: N_19  and  C_20
REMARK    9  A    between atoms: C_28  and  C_29
REMARK                            x       y       z     vdW  Elec       q    Type
REMARK                         _______ _______ _______ _____ _____    ______ ____
ROOT
ATOM      1  N   UNL     1       2.212   7.118  19.796  0.00  0.00    +0.000 N 
ATOM      2  C   UNL     1       1.425   6.235  20.459  0.00  0.00    +0.000 A 
ATOM      3  C   UNL     1       2.085   5.018  20.415  0.00  0.00    +0.000 A 
ATOM      4  C   UNL     1       3.262   5.279  19.646  0.00  0.00    +0.000 A 
ATOM      5  N   UNL     1       4.145   4.319  19.255  0.00  0.00    +0.000 N 
ATOM      6  N   UNL     1       3.328   6.572  19.314  0.00  0.00    +0.000 NA
ATOM      7  H   UNL     1       3.933   3.365  19.526  0.00  0.00    +0.000 HD
ENDROOT
BRANCH   5   8
ATOM      8  C   UNL     1       5.042   4.353  18.155  0.00  0.00    +0.000 A 
ATOM      9  C   UNL     1       6.402   4.687  18.274  0.00  0.00    +0.000 A 
ATOM     10  C   UNL     1       7.216   4.835  17.149  0.00  0.00    +0.000 A 
ATOM     11  C   UNL     1       6.681   4.625  15.889  0.00  0.00    +0.000 A 
ATOM     12  F   UNL     1       7.453   4.790  14.807  0.00  0.00    +0.000 F 
ATOM     13  C   UNL     1       5.354   4.248  15.736  0.00  0.00    +0.000 A 
ATOM     14  C   UNL     1       4.540   4.105  16.865  0.00  0.00    +0.000 A 
ENDBRANCH   5   8
BRANCH   1  18
ATOM     15  C   UNL     1       0.242  10.862  18.839  0.00  0.00    +0.000 C 
ATOM     16  C   UNL     1       1.258  10.261  17.864  0.00  0.00    +0.000 C 
ATOM     17  C   UNL     1       1.491   8.779  18.135  0.00  0.00    +0.000 C 
ATOM     18  C   UNL     1       1.969   8.542  19.577  0.00  0.00    +0.000 C 
ATOM     19  C   UNL     1       0.965   9.124  20.596  0.00  0.00    +0.000 C 
ATOM     20  C   UNL     1       0.666  10.605  20.289  0.00  0.00    +0.000 C 
BRANCH  19  21
ATOM     21  C   UNL     1       1.506   9.024  21.968  0.00  0.00    +0.000 C 
ATOM     22  N   UNL     1       1.925   8.986  23.047  0.00  0.00    +0.000 NA
ENDBRANCH  19  21
BRANCH  15  23
ATOM     23  O   UNL     1      -1.065  10.288  18.622  0.00  0.00    +0.000 OA
BRANCH  23  25
ATOM     24  N   UNL     1      -1.909  11.991  19.805  0.00  0.00    +0.000 N 
ATOM     25  C   UNL     1      -2.095  11.173  18.729  0.00  0.00    +0.000 C 
ATOM     26  O   UNL     1      -3.049  11.228  17.967  0.00  0.00    +0.000 OA
ATOM     27  H   UNL     1      -1.136  11.767  20.413  0.00  0.00    +0.000 HD
BRANCH  24  29
ATOM     28  C   UNL     1      -3.757  12.474  21.354  0.00  0.00    +0.000 C 
ATOM     29  C   UNL     1      -2.900  12.982  20.198  0.00  0.00    +0.000 C 
ATOM     30  C   UNL     1      -2.229  14.303  20.563  0.00  0.00    +0.000 C 
ENDBRANCH  24  29
ENDBRANCH  23  25
ENDBRANCH  15  23
ENDBRANCH   1  18
BRANCH   3  31
ATOM     31  C   UNL     1       1.560   3.797  20.990  0.00  0.00    +0.000 C 
ATOM     32  N   UNL     1       2.185   3.340  22.118  0.00  0.00    +0.000 N 
ATOM     33  O   UNL     1       0.573   3.213  20.557  0.00  0.00    +0.000 OA
ATOM     34  H   UNL     1       2.646   4.008  22.722  0.00  0.00    +0.000 HD
ATOM     35  H   UNL     1       1.674   2.598  22.581  0.00  0.00    +0.000 HD
ENDBRANCH   3  31
TORSDOF 7
ENDMDL
MODEL 7
REMARK VINA RESULT:      -7.5      1.240      1.444
REMARK  Name = 
REMARK  9 active torsions:
REMARK  status: ('A' for Active; 'I' for Inactive)
REMARK    1  A    between atoms: C_1  and  C_2
REMARK    2  A    between atoms: C_2  and  C_3
REMARK    3  A    between atoms: C_2  and  N_4
REMARK    4  A    between atoms: C_5  and  O_7
REMARK    5  A    between atoms: O_7  and  C_8
REMARK    6  A    between atoms: C_11  and  N_12
REMARK    7  A    between atoms: C_14  and  C_15
REMARK    8  A    between atoms: N_19  and  C_20
REMARK    9  A    between atoms: C_28  and  C_29
REMARK                            x       y       z     vdW  Elec       q    Type
REMARK                         _______ _______ _______ _____ _____    ______ ____
ROOT
ATOM      1  N   UNL     1       2.026   7.526  19.878  0.00  0.00    +0.000 N 
ATOM      2  C   UNL     1       1.392   6.592  20.628  0.00  0.00    +0.000 A 
ATOM      3  C   UNL     1       2.069   5.401  20.418  0.00  0.00    +0.000 A 
ATOM      4  C   UNL     1       3.085   5.733  19.469  0.00  0.00    +0.000 A 
ATOM      5  N   UNL     1       3.913   4.820  18.889  0.00  0.00    +0.000 N 
ATOM      6  N   UNL     1       3.055   7.039  19.187  0.00  0.00    +0.000 NA
ATOM      7  H   UNL     1       3.779   3.849  19.152  0.00  0.00    +0.000 HD
ENDROOT
BRANCH   5   8
ATOM      8  C   UNL     1       4.603   4.928  17.653  0.00  0.00    +0.000 A 
ATOM      9  C   UNL     1       4.749   6.135  16.950  0.00  0.00    +0.000 A 
ATOM     10  C   UNL     1       5.321   6.172  15.676  0.00  0.00    +0.000 A 
ATOM     11  C   UNL     1       5.777   4.997  15.101  0.00  0.00    +0.000 A 
ATOM     12  F   UNL     1       6.304   5.025  13.870  0.00  0.00    +0.000 F 
ATOM     13  C   UNL     1       5.692   3.794  15.786  0.00  0.00    +0.000 A 
ATOM     14  C   UNL     1       5.115   3.760  17.060  0.00  0.00    +0.000 A 
ENDBRANCH   5   8
BRANCH   1  18
ATOM     15  C   UNL     1      -0.155  11.225  19.265  0.00  0.00    +0.000 C 
ATOM     16  C   UNL     1       0.838  10.738  18.206  0.00  0.00    +0.000 C 
ATOM     17  C   UNL     1       1.150   9.255  18.367  0.00  0.00    +0.000 C 
ATOM     18  C   UNL     1       1.708   8.948  19.767  0.00  0.00    +0.000 C 
ATOM     19  C   UNL     1       0.730   9.414  20.866  0.00  0.00    +0.000 C 
ATOM     20  C   UNL     1       0.349  10.895  20.674  0.00  0.00    +0.000 C 
BRANCH  19  21
ATOM     21  C   UNL     1       1.341   9.252  22.203  0.00  0.00    +0.000 C 
ATOM     22  N   UNL     1       1.856   9.132  23.234  0.00  0.00    +0.000 NA
ENDBRANCH  19  21
BRANCH  15  23
ATOM     23  O   UNL     1      -1.444  10.604  19.070  0.00  0.00    +0.000 OA
BRANCH  23  25
ATOM     24  N   UNL     1      -3.519  10.962  18.310  0.00  0.00    +0.000 N 
ATOM     25  C   UNL     1      -2.492  11.473  19.047  0.00  0.00    +0.000 C 
ATOM     26  O   UNL     1      -2.511  12.558  19.610  0.00  0.00    +0.000 OA
ATOM     27  H   UNL     1      -3.331  10.106  17.809  0.00  0.00    +0.000 HD
BRANCH  24  29
ATOM     28  C   UNL     1      -4.976  11.887  16.557  0.00  0.00    +0.000 C 
ATOM     29  C   UNL     1      -4.737  11.718  18.056  0.00  0.00    +0.000 C 
ATOM     30  C   UNL     1      -5.936  11.053  18.723  0.00  0.00    +0.000 C 
ENDBRANCH  24  29
ENDBRANCH  23  25
ENDBRANCH  15  23
ENDBRANCH   1  18
BRANCH   3  31
ATOM     31  C   UNL     1       1.686   4.142  21.022  0.00  0.00    +0.000 C 
ATOM     32  N   UNL     1       0.650   3.475  20.426  0.00  0.00    +0.000 N 
ATOM     33  O   UNL     1       2.274   3.638  21.971  0.00  0.00    +0.000 OA
ATOM     34  H   UNL     1       0.487   3.615  19.438  0.00  0.00    +0.000 HD
ATOM     35  H   UNL     1       0.543   2.526  20.766  0.00  0.00    +0.000 HD
ENDBRANCH   3  31
TORSDOF 7
ENDMDL
MODEL 8
REMARK VINA RESULT:      -7.3      1.329      1.869
REMARK  Name = 
REMARK  9 active torsions:
REMARK  status: ('A' for Active; 'I' for Inactive)
REMARK    1  A    between atoms: C_1  and  C_2
REMARK    2  A    between atoms: C_2  and  C_3
REMARK    3  A    between atoms: C_2  and  N_4
REMARK    4  A    between atoms: C_5  and  O_7
REMARK    5  A    between atoms: O_7  and  C_8
REMARK    6  A    between atoms: C_11  and  N_12
REMARK    7  A    between atoms: C_14  and  C_15
REMARK    8  A    between atoms: N_19  and  C_20
REMARK    9  A    between atoms: C_28  and  C_29
REMARK                            x       y       z     vdW  Elec       q    Type
REMARK                         _______ _______ _______ _____ _____    ______ ____
ROOT
ATOM      1  N   UNL     1       1.786   7.405  19.962  0.00  0.00    +0.000 N 
ATOM      2  C   UNL     1       1.163   6.416  20.650  0.00  0.00    +0.000 A 
ATOM      3  C   UNL     1       1.977   5.300  20.548  0.00  0.00    +0.000 A 
ATOM      4  C   UNL     1       3.063   5.726  19.722  0.00  0.00    +0.000 A 
ATOM      5  N   UNL     1       4.044   4.898  19.266  0.00  0.00    +0.000 N 
ATOM      6  N   UNL     1       2.936   7.019  19.412  0.00  0.00    +0.000 NA
ATOM      7  H   UNL     1       3.977   3.921  19.531  0.00  0.00    +0.000 HD
ENDROOT
BRANCH   5   8
ATOM      8  C   UNL     1       4.866   5.066  18.121  0.00  0.00    +0.000 A 
ATOM      9  C   UNL     1       4.509   4.616  16.839  0.00  0.00    +0.000 A 
ATOM     10  C   UNL     1       5.402   4.686  15.767  0.00  0.00    +0.000 A 
ATOM     11  C   UNL     1       6.659   5.233  15.965  0.00  0.00    +0.000 A 
ATOM     12  F   UNL     1       7.527   5.280  14.945  0.00  0.00    +0.000 F 
ATOM     13  C   UNL     1       7.029   5.730  17.206  0.00  0.00    +0.000 A 
ATOM     14  C   UNL     1       6.133   5.655  18.278  0.00  0.00    +0.000 A 
ENDBRANCH   5   8
BRANCH   1  18
ATOM     15  C   UNL     1      -0.315  10.898  18.482  0.00  0.00    +0.000 C 
ATOM     16  C   UNL     1       1.155  10.679  18.118  0.00  0.00    +0.000 C 
ATOM     17  C   UNL     1       1.578   9.230  18.331  0.00  0.00    +0.000 C 
ATOM     18  C   UNL     1       1.343   8.785  19.784  0.00  0.00    +0.000 C 
ATOM     19  C   UNL     1      -0.134   8.980  20.189  0.00  0.00    +0.000 C 
ATOM     20  C   UNL     1      -0.597  10.423  19.911  0.00  0.00    +0.000 C 
BRANCH  19  21
ATOM     21  C   UNL     1      -0.317   8.692  21.627  0.00  0.00    +0.000 C 
ATOM     22  N   UNL     1      -0.481   8.500  22.758  0.00  0.00    +0.000 NA
ENDBRANCH  19  21
BRANCH  15  23
ATOM     23  O   UNL     1      -1.173  10.177  17.570  0.00  0.00    +0.000 OA
BRANCH  23  25
ATOM     24  N   UNL     1      -2.898  11.446  18.224  0.00  0.00    +0.000 N 
ATOM     25  C   UNL     1      -2.491  10.182  17.912  0.00  0.00    +0.000 C 
ATOM     26  O   UNL     1      -3.209   9.193  17.933  0.00  0.00    +0.000 OA
ATOM     27  H   UNL     1      -2.178  12.151  18.271  0.00  0.00    +0.000 HD
BRANCH  24  29
ATOM     28  C   UNL     1      -4.225  12.734  19.845  0.00  0.00    +0.000 C 
ATOM     29  C   UNL     1      -4.245  11.726  18.698  0.00  0.00    +0.000 C 
ATOM     30  C   UNL     1      -5.128  12.224  17.558  0.00  0.00    +0.000 C 
ENDBRANCH  24  29
ENDBRANCH  23  25
ENDBRANCH  15  23
ENDBRANCH   1  18
BRANCH   3  31
ATOM     31  C   UNL     1       1.652   4.013  21.127  0.00  0.00    +0.000 C 
ATOM     32  N   UNL     1       0.622   3.328  20.541  0.00  0.00    +0.000 N 
ATOM     33  O   UNL     1       2.282   3.504  22.046  0.00  0.00    +0.000 OA
ATOM     34  H   UNL     1       0.427   3.488  19.562  0.00  0.00    +0.000 HD
ATOM     35  H   UNL     1       0.555   2.367  20.858  0.00  0.00    +0.000 HD
ENDBRANCH   3  31
TORSDOF 7
ENDMDL
MODEL 9
REMARK VINA RESULT:      -7.3      3.028      4.856
REMARK  Name = 
REMARK  9 active torsions:
REMARK  status: ('A' for Active; 'I' for Inactive)
REMARK    1  A    between atoms: C_1  and  C_2
REMARK    2  A    between atoms: C_2  and  C_3
REMARK    3  A    between atoms: C_2  and  N_4
REMARK    4  A    between atoms: C_5  and  O_7
REMARK    5  A    between atoms: O_7  and  C_8
REMARK    6  A    between atoms: C_11  and  N_12
REMARK    7  A    between atoms: C_14  and  C_15
REMARK    8  A    between atoms: N_19  and  C_20
REMARK    9  A    between atoms: C_28  and  C_29
REMARK                            x       y       z     vdW  Elec       q    Type
REMARK                         _______ _______ _______ _____ _____    ______ ____
ROOT
ATOM      1  N   UNL     1      -0.348  10.075  19.439  0.00  0.00    +0.000 N 
ATOM      2  C   UNL     1      -0.407  10.285  20.777  0.00  0.00    +0.000 A 
ATOM      3  C   UNL     1       0.590   9.504  21.337  0.00  0.00    +0.000 A 
ATOM      4  C   UNL     1       1.169   8.816  20.226  0.00  0.00    +0.000 A 
ATOM      5  N   UNL     1       2.118   7.845  20.342  0.00  0.00    +0.000 N 
ATOM      6  N   UNL     1       0.602   9.210  19.083  0.00  0.00    +0.000 NA
ATOM      7  H   UNL     1       2.410   7.601  21.282  0.00  0.00    +0.000 HD
ENDROOT
BRANCH   5   8
ATOM      8  C   UNL     1       2.418   6.804  19.423  0.00  0.00    +0.000 A 
ATOM      9  C   UNL     1       1.991   5.476  19.591  0.00  0.00    +0.000 A 
ATOM     10  C   UNL     1       2.418   4.461  18.732  0.00  0.00    +0.000 A 
ATOM     11  C   UNL     1       3.262   4.771  17.677  0.00  0.00    +0.000 A 
ATOM     12  F   UNL     1       3.693   3.795  16.867  0.00  0.00    +0.000 F 
ATOM     13  C   UNL     1       3.666   6.079  17.455  0.00  0.00    +0.000 A 
ATOM     14  C   UNL     1       3.239   7.093  18.319  0.00  0.00    +0.000 A 
ENDBRANCH   5   8
BRANCH   1  18
ATOM     15  C   UNL     1      -3.770  11.116  16.987  0.00  0.00    +0.000 C 
ATOM     16  C   UNL     1      -2.688  10.186  16.433  0.00  0.00    +0.000 C 
ATOM     17  C   UNL     1      -1.838   9.586  17.547  0.00  0.00    +0.000 C 
ATOM     18  C   UNL     1      -1.178  10.681  18.401  0.00  0.00    +0.000 C 
ATOM     19  C   UNL     1      -2.238  11.638  18.989  0.00  0.00    +0.000 C 
ATOM     20  C   UNL     1      -3.152  12.196  17.880  0.00  0.00    +0.000 C 
BRANCH  19  21
ATOM     21  C   UNL     1      -1.585  12.769  19.681  0.00  0.00    +0.000 C 
ATOM     22  N   UNL     1      -1.072  13.676  20.188  0.00  0.00    +0.000 NA
ENDBRANCH  19  21
BRANCH  15  23
ATOM     23  O   UNL     1      -4.735  10.366  17.756  0.00  0.00    +0.000 OA
BRANCH  23  25
ATOM     24  N   UNL     1      -6.136  10.877  19.426  0.00  0.00    +0.000 N 
ATOM     25  C   UNL     1      -5.847  11.069  18.107  0.00  0.00    +0.000 C 
ATOM     26  O   UNL     1      -6.494  11.776  17.347  0.00  0.00    +0.000 OA
ATOM     27  H   UNL     1      -5.584  10.183  19.910  0.00  0.00    +0.000 HD
BRANCH  24  29
ATOM     28  C   UNL     1      -7.916  10.498  21.079  0.00  0.00    +0.000 C 
ATOM     29  C   UNL     1      -7.320  11.452  20.047  0.00  0.00    +0.000 C 
ATOM     30  C   UNL     1      -6.997  12.801  20.682  0.00  0.00    +0.000 C 
ENDBRANCH  24  29
ENDBRANCH  23  25
ENDBRANCH  15  23
ENDBRANCH   1  18
BRANCH   3  31
ATOM     31  C   UNL     1       0.842   9.421  22.761  0.00  0.00    +0.000 C 
ATOM     32  N   UNL     1      -0.259   9.304  23.565  0.00  0.00    +0.000 N 
ATOM     33  O   UNL     1       1.965   9.390  23.250  0.00  0.00    +0.000 OA
ATOM     34  H   UNL     1      -1.091   8.870  23.189  0.00  0.00    +0.000 HD
ATOM     35  H   UNL     1      -0.026   9.067  24.523  0.00  0.00    +0.000 HD
ENDBRANCH   3  31
TORSDOF 7
ENDMDL
