MODEL 1
REMARK VINA RESULT:      -8.9      0.000      0.000
REMARK  Name = 
REMARK  9 active torsions:
REMARK  status: ('A' for Active; 'I' for Inactive)
REMARK    1  A    between atoms: C_1  and  N_2
REMARK    2  A    between atoms: C_3  and  C_4
REMARK    3  A    between atoms: C_10  and  C_11
REMARK    4  A    between atoms: C_12  and  C_13
REMARK    5  A    between atoms: N_15  and  CA_16
REMARK    6  A    between atoms: CA_16  and  CB_17
REMARK    7  A    between atoms: CA_16  and  C_24
REMARK    8  A    between atoms: CB_17  and  CG_18
REMARK    9  A    between atoms: C_24  and  OXT_26
REMARK                            x       y       z     vdW  Elec       q    Type
REMARK                         _______ _______ _______ _____ _____    ______ ____
ROOT
ATOM      1  C   UNK A   0       3.159   7.148  18.098  0.00  0.00    +0.000 C 
ATOM      2  C   UNK A   0       2.112   7.815  17.567  0.00  0.00    +0.000 C 
ENDROOT
BRANCH   1   6
ATOM      3  C   UNK A   0       4.084   2.218  17.679  0.00  0.00    +0.000 C 
ATOM      4  N   UNK A   0       4.025   3.653  17.493  0.00  0.00    +0.000 N 
ATOM      5  C   UNK A   0       3.276   4.615  18.172  0.00  0.00    +0.000 A 
ATOM      6  C   UNK A   0       3.652   5.858  17.652  0.00  0.00    +0.000 A 
ATOM      7  C   UNK A   0       4.678   5.631  16.667  0.00  0.00    +0.000 A 
ATOM      8  C   UNK A   0       5.514   6.405  15.840  0.00  0.00    +0.000 A 
ATOM      9  C   UNK A   0       6.416   5.741  14.991  0.00  0.00    +0.000 A 
ATOM     10  C   UNK A   0       6.460   4.355  15.001  0.00  0.00    +0.000 A 
ATOM     11  N   UNK A   0       5.702   3.571  15.784  0.00  0.00    +0.000 NA
ATOM     12  C   UNK A   0       4.853   4.254  16.582  0.00  0.00    +0.000 A 
BRANCH   5  13
ATOM     13  C   UNK A   0       2.431   4.251  19.316  0.00  0.00    +0.000 A 
ATOM     14  C   UNK A   0       2.932   4.332  20.616  0.00  0.00    +0.000 A 
ATOM     15  C   UNK A   0       2.268   3.696  21.666  0.00  0.00    +0.000 A 
ATOM     16  C   UNK A   0       1.115   2.953  21.414  0.00  0.00    +0.000 A 
ATOM     17  C   UNK A   0       0.568   2.928  20.136  0.00  0.00    +0.000 A 
ATOM     18  C   UNK A   0       1.196   3.626  19.105  0.00  0.00    +0.000 A 
ENDBRANCH   5  13
ENDBRANCH   1   6
BRANCH   2  19
ATOM     19  C   UNK A   0       1.631   9.157  18.035  0.00  0.00    +0.000 C 
ATOM     20  O   UNK A   0       2.149  10.210  17.685  0.00  0.00    +0.000 OA
ATOM     21  N   PHE A   1       0.490   9.136  18.814  0.00  0.00    +0.000 N 
ATOM     22  H   PHE A   1       0.170   8.225  19.122  0.00  0.00    +0.000 HD
BRANCH  21  23
ATOM     23  CA  PHE A   1      -0.063  10.292  19.602  0.00  0.00    +0.000 C 
BRANCH  23  24
ATOM     24  C   PHE A   1       0.964  11.088  20.452  0.00  0.00    +0.000 C 
ATOM     25  O   PHE A   1       1.253  10.797  21.609  0.00  0.00    +0.000 OA
BRANCH  24  26
ATOM     26  OXT PHE A   1       1.599  12.092  19.818  0.00  0.00    +0.000 OA
ATOM     27  HXT PHE A   1       1.144  12.959  19.931  0.00  0.00    +0.000 HD
ENDBRANCH  24  26
ENDBRANCH  23  24
BRANCH  23  28
ATOM     28  CB  PHE A   1      -0.725  11.375  18.683  0.00  0.00    +0.000 C 
BRANCH  28  29
ATOM     29  CG  PHE A   1      -1.992  11.023  17.939  0.00  0.00    +0.000 A 
ATOM     30  CD1 PHE A   1      -2.006  10.216  16.801  0.00  0.00    +0.000 A 
ATOM     31  CE1 PHE A   1      -3.131  10.207  15.975  0.00  0.00    +0.000 A 
ATOM     32  CZ  PHE A   1      -4.263  10.945  16.319  0.00  0.00    +0.000 A 
ATOM     33  CE2 PHE A   1      -4.318  11.597  17.548  0.00  0.00    +0.000 A 
ATOM     34  CD2 PHE A   1      -3.195  11.609  18.370  0.00  0.00    +0.000 A 
ENDBRANCH  28  29
ENDBRANCH  23  28
ENDBRANCH  21  23
ENDBRANCH   2  19
TORSDOF 8
ENDMDL
MODEL 2
REMARK VINA RESULT:      -8.5      6.868      9.716
REMARK  Name = 
REMARK  9 active torsions:
REMARK  status: ('A' for Active; 'I' for Inactive)
REMARK    1  A    between atoms: C_1  and  N_2
REMARK    2  A    between atoms: C_3  and  C_4
REMARK    3  A    between atoms: C_10  and  C_11
REMARK    4  A    between atoms: C_12  and  C_13
REMARK    5  A    between atoms: N_15  and  CA_16
REMARK    6  A    between atoms: CA_16  and  CB_17
REMARK    7  A    between atoms: CA_16  and  C_24
REMARK    8  A    between atoms: CB_17  and  CG_18
REMARK    9  A    between atoms: C_24  and  OXT_26
REMARK                            x       y       z     vdW  Elec       q    Type
REMARK                         _______ _______ _______ _____ _____    ______ ____
ROOT
ATOM      1  C   UNK A   0       8.991  10.027  19.616  0.00  0.00    +0.000 C 
ATOM      2  C   UNK A   0       8.745   9.430  18.430  0.00  0.00    +0.000 C 
ENDROOT
BRANCH   1   6
ATOM      3  C   UNK A   0      10.117  14.618  21.344  0.00  0.00    +0.000 C 
ATOM      4  N   UNK A   0      10.062  13.374  20.604  0.00  0.00    +0.000 N 
ATOM      5  C   UNK A   0       9.335  12.211  20.859  0.00  0.00    +0.000 A 
ATOM      6  C   UNK A   0       9.581  11.341  19.792  0.00  0.00    +0.000 A 
ATOM      7  C   UNK A   0      10.444  12.021  18.860  0.00  0.00    +0.000 A 
ATOM      8  C   UNK A   0      11.008  11.771  17.594  0.00  0.00    +0.000 A 
ATOM      9  C   UNK A   0      11.829  12.758  17.022  0.00  0.00    +0.000 A 
ATOM     10  C   UNK A   0      12.050  13.939  17.713  0.00  0.00    +0.000 A 
ATOM     11  N   UNK A   0      11.520  14.237  18.910  0.00  0.00    +0.000 NA
ATOM     12  C   UNK A   0      10.738  13.259  19.418  0.00  0.00    +0.000 A 
BRANCH   5  13
ATOM     13  C   UNK A   0       8.393  12.135  21.982  0.00  0.00    +0.000 A 
ATOM     14  C   UNK A   0       7.230  12.907  21.981  0.00  0.00    +0.000 A 
ATOM     15  C   UNK A   0       6.505  13.087  23.160  0.00  0.00    +0.000 A 
ATOM     16  C   UNK A   0       6.955  12.519  24.350  0.00  0.00    +0.000 A 
ATOM     17  C   UNK A   0       8.070  11.689  24.347  0.00  0.00    +0.000 A 
ATOM     18  C   UNK A   0       8.750  11.453  23.152  0.00  0.00    +0.000 A 
ENDBRANCH   5  13
ENDBRANCH   1   6
BRANCH   2  19
ATOM     19  C   UNK A   0       8.119   8.074  18.273  0.00  0.00    +0.000 C 
ATOM     20  O   UNK A   0       8.483   7.094  18.910  0.00  0.00    +0.000 OA
ATOM     21  N   PHE A   1       7.026   8.024  17.429  0.00  0.00    +0.000 N 
ATOM     22  H   PHE A   1       6.838   8.857  16.883  0.00  0.00    +0.000 HD
BRANCH  21  23
ATOM     23  CA  PHE A   1       6.367   6.775  16.912  0.00  0.00    +0.000 C 
BRANCH  23  24
ATOM     24  C   PHE A   1       7.314   5.719  16.280  0.00  0.00    +0.000 C 
ATOM     25  O   PHE A   1       7.701   5.770  15.116  0.00  0.00    +0.000 OA
BRANCH  24  26
ATOM     26  OXT PHE A   1       7.765   4.762  17.112  0.00  0.00    +0.000 OA
ATOM     27  HXT PHE A   1       8.441   4.182  16.692  0.00  0.00    +0.000 HD
ENDBRANCH  24  26
ENDBRANCH  23  24
BRANCH  23  28
ATOM     28  CB  PHE A   1       5.612   5.991  18.039  0.00  0.00    +0.000 C 
BRANCH  28  29
ATOM     29  CG  PHE A   1       4.244   5.422  17.741  0.00  0.00    +0.000 A 
ATOM     30  CD1 PHE A   1       3.059   6.085  18.064  0.00  0.00    +0.000 A 
ATOM     31  CE1 PHE A   1       1.856   5.379  18.080  0.00  0.00    +0.000 A 
ATOM     32  CZ  PHE A   1       1.824   4.035  17.708  0.00  0.00    +0.000 A 
ATOM     33  CE2 PHE A   1       2.970   3.427  17.206  0.00  0.00    +0.000 A 
ATOM     34  CD2 PHE A   1       4.172   4.130  17.193  0.00  0.00    +0.000 A 
ENDBRANCH  28  29
ENDBRANCH  23  28
ENDBRANCH  21  23
ENDBRANCH   2  19
TORSDOF 8
ENDMDL
MODEL 3
REMARK VINA RESULT:      -8.4      3.748      7.973
REMARK  Name = 
REMARK  9 active torsions:
REMARK  status: ('A' for Active; 'I' for Inactive)
REMARK    1  A    between atoms: C_1  and  N_2
REMARK    2  A    between atoms: C_3  and  C_4
REMARK    3  A    between atoms: C_10  and  C_11
REMARK    4  A    between atoms: C_12  and  C_13
REMARK    5  A    between atoms: N_15  and  CA_16
REMARK    6  A    between atoms: CA_16  and  CB_17
REMARK    7  A    between atoms: CA_16  and  C_24
REMARK    8  A    between atoms: CB_17  and  CG_18
REMARK    9  A    between atoms: C_24  and  OXT_26
REMARK                            x       y       z     vdW  Elec       q    Type
REMARK                         _______ _______ _______ _____ _____    ______ ____
ROOT
ATOM      1  C   UNK A   0       3.377   5.982  18.084  0.00  0.00    +0.000 C 
ATOM      2  C   UNK A   0       3.142   4.673  17.852  0.00  0.00    +0.000 C 
ENDROOT
BRANCH   1   6
ATOM      3  C   UNK A   0       0.230   7.746  21.593  0.00  0.00    +0.000 C 
ATOM      4  N   UNK A   0       1.166   7.598  20.497  0.00  0.00    +0.000 N 
ATOM      5  C   UNK A   0       1.848   6.467  20.048  0.00  0.00    +0.000 A 
ATOM      6  C   UNK A   0       2.561   6.852  18.909  0.00  0.00    +0.000 A 
ATOM      7  C   UNK A   0       2.263   8.238  18.652  0.00  0.00    +0.000 A 
ATOM      8  C   UNK A   0       2.569   9.202  17.672  0.00  0.00    +0.000 A 
ATOM      9  C   UNK A   0       2.038  10.495  17.818  0.00  0.00    +0.000 A 
ATOM     10  C   UNK A   0       1.231  10.777  18.909  0.00  0.00    +0.000 A 
ATOM     11  N   UNK A   0       0.890   9.890  19.858  0.00  0.00    +0.000 NA
ATOM     12  C   UNK A   0       1.422   8.663  19.674  0.00  0.00    +0.000 A 
BRANCH   5  13
ATOM     13  C   UNK A   0       1.616   5.150  20.655  0.00  0.00    +0.000 A 
ATOM     14  C   UNK A   0       2.528   4.626  21.572  0.00  0.00    +0.000 A 
ATOM     15  C   UNK A   0       2.491   3.270  21.903  0.00  0.00    +0.000 A 
ATOM     16  C   UNK A   0       1.561   2.428  21.295  0.00  0.00    +0.000 A 
ATOM     17  C   UNK A   0       0.602   2.955  20.437  0.00  0.00    +0.000 A 
ATOM     18  C   UNK A   0       0.597   4.323  20.166  0.00  0.00    +0.000 A 
ENDBRANCH   5  13
ENDBRANCH   1   6
BRANCH   2  19
ATOM     19  C   UNK A   0       4.011   3.787  17.007  0.00  0.00    +0.000 C 
ATOM     20  O   UNK A   0       3.980   2.565  17.072  0.00  0.00    +0.000 OA
ATOM     21  N   PHE A   1       4.784   4.442  16.067  0.00  0.00    +0.000 N 
ATOM     22  H   PHE A   1       4.811   5.453  16.130  0.00  0.00    +0.000 HD
BRANCH  21  23
ATOM     23  CA  PHE A   1       5.902   3.835  15.265  0.00  0.00    +0.000 C 
BRANCH  23  24
ATOM     24  C   PHE A   1       5.871   4.111  13.738  0.00  0.00    +0.000 C 
ATOM     25  O   PHE A   1       4.903   3.861  13.027  0.00  0.00    +0.000 OA
BRANCH  24  26
ATOM     26  OXT PHE A   1       6.955   4.728  13.230  0.00  0.00    +0.000 OA
ATOM     27  HXT PHE A   1       7.619   4.956  13.920  0.00  0.00    +0.000 HD
ENDBRANCH  24  26
ENDBRANCH  23  24
BRANCH  23  28
ATOM     28  CB  PHE A   1       7.309   4.351  15.723  0.00  0.00    +0.000 C 
BRANCH  28  29
ATOM     29  CG  PHE A   1       7.385   5.361  16.843  0.00  0.00    +0.000 A 
ATOM     30  CD1 PHE A   1       7.290   6.738  16.633  0.00  0.00    +0.000 A 
ATOM     31  CE1 PHE A   1       7.703   7.619  17.633  0.00  0.00    +0.000 A 
ATOM     32  CZ  PHE A   1       8.144   7.132  18.863  0.00  0.00    +0.000 A 
ATOM     33  CE2 PHE A   1       8.060   5.770  19.139  0.00  0.00    +0.000 A 
ATOM     34  CD2 PHE A   1       7.651   4.890  18.141  0.00  0.00    +0.000 A 
ENDBRANCH  28  29
ENDBRANCH  23  28
ENDBRANCH  21  23
ENDBRANCH   2  19
TORSDOF 8
ENDMDL
MODEL 4
REMARK VINA RESULT:      -8.4      1.652      3.042
REMARK  Name = 
REMARK  9 active torsions:
REMARK  status: ('A' for Active; 'I' for Inactive)
REMARK    1  A    between atoms: C_1  and  N_2
REMARK    2  A    between atoms: C_3  and  C_4
REMARK    3  A    between atoms: C_10  and  C_11
REMARK    4  A    between atoms: C_12  and  C_13
REMARK    5  A    between atoms: N_15  and  CA_16
REMARK    6  A    between atoms: CA_16  and  CB_17
REMARK    7  A    between atoms: CA_16  and  C_24
REMARK    8  A    between atoms: CB_17  and  CG_18
REMARK    9  A    between atoms: C_24  and  OXT_26
REMARK                            x       y       z     vdW  Elec       q    Type
REMARK                         _______ _______ _______ _____ _____    ______ ____
ROOT
ATOM      1  C   UNK A   0       3.281   7.222  17.945  0.00  0.00    +0.000 C 
ATOM      2  C   UNK A   0       2.216   7.885  17.447  0.00  0.00    +0.000 C 
ENDROOT
BRANCH   1   6
ATOM      3  C   UNK A   0       4.045   2.261  17.579  0.00  0.00    +0.000 C 
ATOM      4  N   UNK A   0       4.036   3.696  17.380  0.00  0.00    +0.000 N 
ATOM      5  C   UNK A   0       3.313   4.688  18.042  0.00  0.00    +0.000 A 
ATOM      6  C   UNK A   0       3.735   5.913  17.515  0.00  0.00    +0.000 A 
ATOM      7  C   UNK A   0       4.764   5.642  16.544  0.00  0.00    +0.000 A 
ATOM      8  C   UNK A   0       5.634   6.382  15.719  0.00  0.00    +0.000 A 
ATOM      9  C   UNK A   0       6.523   5.680  14.887  0.00  0.00    +0.000 A 
ATOM     10  C   UNK A   0       6.520   4.294  14.909  0.00  0.00    +0.000 A 
ATOM     11  N   UNK A   0       5.729   3.542  15.691  0.00  0.00    +0.000 NA
ATOM     12  C   UNK A   0       4.894   4.261  16.473  0.00  0.00    +0.000 A 
BRANCH   5  13
ATOM     13  C   UNK A   0       2.444   4.363  19.180  0.00  0.00    +0.000 A 
ATOM     14  C   UNK A   0       2.906   4.519  20.487  0.00  0.00    +0.000 A 
ATOM     15  C   UNK A   0       2.226   3.922  21.550  0.00  0.00    +0.000 A 
ATOM     16  C   UNK A   0       1.097   3.141  21.305  0.00  0.00    +0.000 A 
ATOM     17  C   UNK A   0       0.587   3.040  20.015  0.00  0.00    +0.000 A 
ATOM     18  C   UNK A   0       1.229   3.700  18.967  0.00  0.00    +0.000 A 
ENDBRANCH   5  13
ENDBRANCH   1   6
BRANCH   2  19
ATOM     19  C   UNK A   0       1.774   9.248  17.897  0.00  0.00    +0.000 C 
ATOM     20  O   UNK A   0       2.558  10.159  18.130  0.00  0.00    +0.000 OA
ATOM     21  N   PHE A   1       0.407   9.443  17.933  0.00  0.00    +0.000 N 
ATOM     22  H   PHE A   1      -0.171   8.621  17.802  0.00  0.00    +0.000 HD
BRANCH  21  23
ATOM     23  CA  PHE A   1      -0.302  10.612  18.563  0.00  0.00    +0.000 C 
BRANCH  23  24
ATOM     24  C   PHE A   1      -1.672  10.991  17.939  0.00  0.00    +0.000 C 
ATOM     25  O   PHE A   1      -2.548  11.595  18.551  0.00  0.00    +0.000 OA
BRANCH  24  26
ATOM     26  OXT PHE A   1      -1.829  10.689  16.637  0.00  0.00    +0.000 OA
ATOM     27  HXT PHE A   1      -1.997  11.484  16.080  0.00  0.00    +0.000 HD
ENDBRANCH  24  26
ENDBRANCH  23  24
BRANCH  23  28
ATOM     28  CB  PHE A   1      -0.621  10.367  20.077  0.00  0.00    +0.000 C 
BRANCH  28  29
ATOM     29  CG  PHE A   1      -0.408  11.497  21.058  0.00  0.00    +0.000 A 
ATOM     30  CD1 PHE A   1      -1.169  11.649  22.218  0.00  0.00    +0.000 A 
ATOM     31  CE1 PHE A   1      -1.163  12.870  22.893  0.00  0.00    +0.000 A 
ATOM     32  CZ  PHE A   1      -0.348  13.913  22.452  0.00  0.00    +0.000 A 
ATOM     33  CE2 PHE A   1       0.550  13.699  21.411  0.00  0.00    +0.000 A 
ATOM     34  CD2 PHE A   1       0.542  12.481  20.735  0.00  0.00    +0.000 A 
ENDBRANCH  28  29
ENDBRANCH  23  28
ENDBRANCH  21  23
ENDBRANCH   2  19
TORSDOF 8
ENDMDL
MODEL 5
REMARK VINA RESULT:      -8.3      1.885      4.993
REMARK  Name = 
REMARK  9 active torsions:
REMARK  status: ('A' for Active; 'I' for Inactive)
REMARK    1  A    between atoms: C_1  and  N_2
REMARK    2  A    between atoms: C_3  and  C_4
REMARK    3  A    between atoms: C_10  and  C_11
REMARK    4  A    between atoms: C_12  and  C_13
REMARK    5  A    between atoms: N_15  and  CA_16
REMARK    6  A    between atoms: CA_16  and  CB_17
REMARK    7  A    between atoms: CA_16  and  C_24
REMARK    8  A    between atoms: CB_17  and  CG_18
REMARK    9  A    between atoms: C_24  and  OXT_26
REMARK                            x       y       z     vdW  Elec       q    Type
REMARK                         _______ _______ _______ _____ _____    ______ ____
ROOT
ATOM      1  C   UNK A   0       3.118   7.023  18.274  0.00  0.00    +0.000 C 
ATOM      2  C   UNK A   0       1.954   7.686  18.107  0.00  0.00    +0.000 C 
ENDROOT
BRANCH   1   6
ATOM      3  C   UNK A   0       4.450   2.188  17.846  0.00  0.00    +0.000 C 
ATOM      4  N   UNK A   0       3.882   3.453  18.264  0.00  0.00    +0.000 N 
ATOM      5  C   UNK A   0       4.116   4.742  17.786  0.00  0.00    +0.000 A 
ATOM      6  C   UNK A   0       3.251   5.593  18.482  0.00  0.00    +0.000 A 
ATOM      7  C   UNK A   0       2.456   4.782  19.368  0.00  0.00    +0.000 A 
ATOM      8  C   UNK A   0       1.390   4.967  20.270  0.00  0.00    +0.000 A 
ATOM      9  C   UNK A   0       0.893   3.846  20.956  0.00  0.00    +0.000 A 
ATOM     10  C   UNK A   0       1.458   2.602  20.721  0.00  0.00    +0.000 A 
ATOM     11  N   UNK A   0       2.459   2.367  19.857  0.00  0.00    +0.000 NA
ATOM     12  C   UNK A   0       2.901   3.474  19.221  0.00  0.00    +0.000 A 
BRANCH   5  13
ATOM     13  C   UNK A   0       5.001   4.977  16.638  0.00  0.00    +0.000 A 
ATOM     14  C   UNK A   0       4.675   4.468  15.380  0.00  0.00    +0.000 A 
ATOM     15  C   UNK A   0       5.642   4.406  14.375  0.00  0.00    +0.000 A 
ATOM     16  C   UNK A   0       6.946   4.825  14.634  0.00  0.00    +0.000 A 
ATOM     17  C   UNK A   0       7.261   5.401  15.859  0.00  0.00    +0.000 A 
ATOM     18  C   UNK A   0       6.273   5.529  16.836  0.00  0.00    +0.000 A 
ENDBRANCH   5  13
ENDBRANCH   1   6
BRANCH   2  19
ATOM     19  C   UNK A   0       1.843   9.166  17.877  0.00  0.00    +0.000 C 
ATOM     20  O   UNK A   0       2.647   9.798  17.204  0.00  0.00    +0.000 OA
ATOM     21  N   PHE A   1       0.707   9.759  18.392  0.00  0.00    +0.000 N 
ATOM     22  H   PHE A   1       0.133   9.186  18.999  0.00  0.00    +0.000 HD
BRANCH  21  23
ATOM     23  CA  PHE A   1       0.460  11.239  18.514  0.00  0.00    +0.000 C 
BRANCH  23  24
ATOM     24  C   PHE A   1      -1.018  11.694  18.384  0.00  0.00    +0.000 C 
ATOM     25  O   PHE A   1      -1.942  11.168  18.998  0.00  0.00    +0.000 OA
BRANCH  24  26
ATOM     26  OXT PHE A   1      -1.236  12.772  17.608  0.00  0.00    +0.000 OA
ATOM     27  HXT PHE A   1      -1.688  12.545  16.763  0.00  0.00    +0.000 HD
ENDBRANCH  24  26
ENDBRANCH  23  24
BRANCH  23  28
ATOM     28  CB  PHE A   1       0.919  11.805  19.900  0.00  0.00    +0.000 C 
BRANCH  28  29
ATOM     29  CG  PHE A   1       0.563  11.041  21.154  0.00  0.00    +0.000 A 
ATOM     30  CD1 PHE A   1       1.105   9.792  21.462  0.00  0.00    +0.000 A 
ATOM     31  CE1 PHE A   1       0.495   8.996  22.432  0.00  0.00    +0.000 A 
ATOM     32  CZ  PHE A   1      -0.607   9.471  23.142  0.00  0.00    +0.000 A 
ATOM     33  CE2 PHE A   1      -1.029  10.786  22.968  0.00  0.00    +0.000 A 
ATOM     34  CD2 PHE A   1      -0.424  11.579  21.997  0.00  0.00    +0.000 A 
ENDBRANCH  28  29
ENDBRANCH  23  28
ENDBRANCH  21  23
ENDBRANCH   2  19
TORSDOF 8
ENDMDL
MODEL 6
REMARK VINA RESULT:      -8.3      0.705      1.419
REMARK  Name = 
REMARK  9 active torsions:
REMARK  status: ('A' for Active; 'I' for Inactive)
REMARK    1  A    between atoms: C_1  and  N_2
REMARK    2  A    between atoms: C_3  and  C_4
REMARK    3  A    between atoms: C_10  and  C_11
REMARK    4  A    between atoms: C_12  and  C_13
REMARK    5  A    between atoms: N_15  and  CA_16
REMARK    6  A    between atoms: CA_16  and  CB_17
REMARK    7  A    between atoms: CA_16  and  C_24
REMARK    8  A    between atoms: CB_17  and  CG_18
REMARK    9  A    between atoms: C_24  and  OXT_26
REMARK                            x       y       z     vdW  Elec       q    Type
REMARK                         _______ _______ _______ _____ _____    ______ ____
ROOT
ATOM      1  C   UNK A   0       3.257   7.188  18.063  0.00  0.00    +0.000 C 
ATOM      2  C   UNK A   0       2.109   7.793  17.692  0.00  0.00    +0.000 C 
ENDROOT
BRANCH   1   6
ATOM      3  C   UNK A   0       4.032   2.233  17.635  0.00  0.00    +0.000 C 
ATOM      4  N   UNK A   0       4.014   3.670  17.450  0.00  0.00    +0.000 N 
ATOM      5  C   UNK A   0       3.300   4.653  18.135  0.00  0.00    +0.000 A 
ATOM      6  C   UNK A   0       3.707   5.884  17.612  0.00  0.00    +0.000 A 
ATOM      7  C   UNK A   0       4.718   5.627  16.618  0.00  0.00    +0.000 A 
ATOM      8  C   UNK A   0       5.569   6.377  15.784  0.00  0.00    +0.000 A 
ATOM      9  C   UNK A   0       6.444   5.687  14.928  0.00  0.00    +0.000 A 
ATOM     10  C   UNK A   0       6.447   4.300  14.937  0.00  0.00    +0.000 A 
ATOM     11  N   UNK A   0       5.673   3.539  15.727  0.00  0.00    +0.000 NA
ATOM     12  C   UNK A   0       4.852   4.246  16.532  0.00  0.00    +0.000 A 
BRANCH   5  13
ATOM     13  C   UNK A   0       2.454   4.314  19.287  0.00  0.00    +0.000 A 
ATOM     14  C   UNK A   0       2.953   4.427  20.585  0.00  0.00    +0.000 A 
ATOM     15  C   UNK A   0       2.289   3.813  21.649  0.00  0.00    +0.000 A 
ATOM     16  C   UNK A   0       1.139   3.061  21.413  0.00  0.00    +0.000 A 
ATOM     17  C   UNK A   0       0.594   3.005  20.136  0.00  0.00    +0.000 A 
ATOM     18  C   UNK A   0       1.222   3.680  19.089  0.00  0.00    +0.000 A 
ENDBRANCH   5  13
ENDBRANCH   1   6
BRANCH   2  19
ATOM     19  C   UNK A   0       1.671   9.151  18.159  0.00  0.00    +0.000 C 
ATOM     20  O   UNK A   0       2.272  10.179  17.874  0.00  0.00    +0.000 OA
ATOM     21  N   PHE A   1       0.478   9.180  18.854  0.00  0.00    +0.000 N 
ATOM     22  H   PHE A   1       0.085   8.283  19.115  0.00  0.00    +0.000 HD
BRANCH  21  23
ATOM     23  CA  PHE A   1      -0.064  10.349  19.630  0.00  0.00    +0.000 C 
BRANCH  23  24
ATOM     24  C   PHE A   1       0.945  11.073  20.561  0.00  0.00    +0.000 C 
ATOM     25  O   PHE A   1       1.411  12.183  20.319  0.00  0.00    +0.000 OA
BRANCH  24  26
ATOM     26  OXT PHE A   1       1.234  10.445  21.717  0.00  0.00    +0.000 OA
ATOM     27  HXT PHE A   1       0.662   9.659  21.874  0.00  0.00    +0.000 HD
ENDBRANCH  24  26
ENDBRANCH  23  24
BRANCH  23  28
ATOM     28  CB  PHE A   1      -0.608  11.482  18.694  0.00  0.00    +0.000 C 
BRANCH  28  29
ATOM     29  CG  PHE A   1      -2.041  11.933  18.852  0.00  0.00    +0.000 A 
ATOM     30  CD1 PHE A   1      -2.496  12.645  19.963  0.00  0.00    +0.000 A 
ATOM     31  CE1 PHE A   1      -3.866  12.732  20.215  0.00  0.00    +0.000 A 
ATOM     32  CZ  PHE A   1      -4.781  12.171  19.325  0.00  0.00    +0.000 A 
ATOM     33  CE2 PHE A   1      -4.336  11.627  18.123  0.00  0.00    +0.000 A 
ATOM     34  CD2 PHE A   1      -2.969  11.537  17.874  0.00  0.00    +0.000 A 
ENDBRANCH  28  29
ENDBRANCH  23  28
ENDBRANCH  21  23
ENDBRANCH   2  19
TORSDOF 8
ENDMDL
MODEL 7
REMARK VINA RESULT:      -8.2      1.786      2.899
REMARK  Name = 
REMARK  9 active torsions:
REMARK  status: ('A' for Active; 'I' for Inactive)
REMARK    1  A    between atoms: C_1  and  N_2
REMARK    2  A    between atoms: C_3  and  C_4
REMARK    3  A    between atoms: C_10  and  C_11
REMARK    4  A    between atoms: C_12  and  C_13
REMARK    5  A    between atoms: N_15  and  CA_16
REMARK    6  A    between atoms: CA_16  and  CB_17
REMARK    7  A    between atoms: CA_16  and  C_24
REMARK    8  A    between atoms: CB_17  and  CG_18
REMARK    9  A    between atoms: C_24  and  OXT_26
REMARK                            x       y       z     vdW  Elec       q    Type
REMARK                         _______ _______ _______ _____ _____    ______ ____
ROOT
ATOM      1  C   UNK A   0       2.663   7.107  18.148  0.00  0.00    +0.000 C 
ATOM      2  C   UNK A   0       2.625   8.246  17.424  0.00  0.00    +0.000 C 
ENDROOT
BRANCH   1   6
ATOM      3  C   UNK A   0       4.246   2.335  17.924  0.00  0.00    +0.000 C 
ATOM      4  N   UNK A   0       3.998   3.742  17.684  0.00  0.00    +0.000 N 
ATOM      5  C   UNK A   0       3.117   4.618  18.318  0.00  0.00    +0.000 A 
ATOM      6  C   UNK A   0       3.330   5.880  17.756  0.00  0.00    +0.000 A 
ATOM      7  C   UNK A   0       4.393   5.758  16.791  0.00  0.00    +0.000 A 
ATOM      8  C   UNK A   0       5.131   6.608  15.945  0.00  0.00    +0.000 A 
ATOM      9  C   UNK A   0       6.126   6.041  15.131  0.00  0.00    +0.000 A 
ATOM     10  C   UNK A   0       6.355   4.675  15.193  0.00  0.00    +0.000 A 
ATOM     11  N   UNK A   0       5.698   3.825  15.997  0.00  0.00    +0.000 NA
ATOM     12  C   UNK A   0       4.752   4.416  16.760  0.00  0.00    +0.000 A 
BRANCH   5  13
ATOM     13  C   UNK A   0       2.310   4.185  19.466  0.00  0.00    +0.000 A 
ATOM     14  C   UNK A   0       2.827   4.262  20.760  0.00  0.00    +0.000 A 
ATOM     15  C   UNK A   0       2.214   3.569  21.805  0.00  0.00    +0.000 A 
ATOM     16  C   UNK A   0       1.098   2.772  21.553  0.00  0.00    +0.000 A 
ATOM     17  C   UNK A   0       0.532   2.747  20.284  0.00  0.00    +0.000 A 
ATOM     18  C   UNK A   0       1.107   3.500  19.259  0.00  0.00    +0.000 A 
ENDBRANCH   5  13
ENDBRANCH   1   6
BRANCH   2  19
ATOM     19  C   UNK A   0       1.940   9.510  17.859  0.00  0.00    +0.000 C 
ATOM     20  O   UNK A   0       2.551  10.509  18.215  0.00  0.00    +0.000 OA
ATOM     21  N   PHE A   1       0.565   9.509  17.732  0.00  0.00    +0.000 N 
ATOM     22  H   PHE A   1       0.132   8.621  17.505  0.00  0.00    +0.000 HD
BRANCH  21  23
ATOM     23  CA  PHE A   1      -0.375  10.534  18.306  0.00  0.00    +0.000 C 
BRANCH  23  24
ATOM     24  C   PHE A   1      -1.788  10.594  17.665  0.00  0.00    +0.000 C 
ATOM     25  O   PHE A   1      -2.685   9.800  17.933  0.00  0.00    +0.000 OA
BRANCH  24  26
ATOM     26  OXT PHE A   1      -2.016  11.633  16.839  0.00  0.00    +0.000 OA
ATOM     27  HXT PHE A   1      -1.900  12.504  17.285  0.00  0.00    +0.000 HD
ENDBRANCH  24  26
ENDBRANCH  23  24
BRANCH  23  28
ATOM     28  CB  PHE A   1      -0.652  10.299  19.830  0.00  0.00    +0.000 C 
BRANCH  28  29
ATOM     29  CG  PHE A   1      -0.900  11.496  20.718  0.00  0.00    +0.000 A 
ATOM     30  CD1 PHE A   1      -0.719  12.812  20.289  0.00  0.00    +0.000 A 
ATOM     31  CE1 PHE A   1      -0.630  13.839  21.229  0.00  0.00    +0.000 A 
ATOM     32  CZ  PHE A   1      -0.792  13.565  22.587  0.00  0.00    +0.000 A 
ATOM     33  CE2 PHE A   1      -1.160  12.288  22.998  0.00  0.00    +0.000 A 
ATOM     34  CD2 PHE A   1      -1.245  11.262  22.061  0.00  0.00    +0.000 A 
ENDBRANCH  28  29
ENDBRANCH  23  28
ENDBRANCH  21  23
ENDBRANCH   2  19
TORSDOF 8
ENDMDL
MODEL 8
REMARK VINA RESULT:      -8.2      0.940      1.415
REMARK  Name = 
REMARK  9 active torsions:
REMARK  status: ('A' for Active; 'I' for Inactive)
REMARK    1  A    between atoms: C_1  and  N_2
REMARK    2  A    between atoms: C_3  and  C_4
REMARK    3  A    between atoms: C_10  and  C_11
REMARK    4  A    between atoms: C_12  and  C_13
REMARK    5  A    between atoms: N_15  and  CA_16
REMARK    6  A    between atoms: CA_16  and  CB_17
REMARK    7  A    between atoms: CA_16  and  C_24
REMARK    8  A    between atoms: CB_17  and  CG_18
REMARK    9  A    between atoms: C_24  and  OXT_26
REMARK                            x       y       z     vdW  Elec       q    Type
REMARK                         _______ _______ _______ _____ _____    ______ ____
ROOT
ATOM      1  C   UNK A   0       2.926   6.555  18.344  0.00  0.00    +0.000 C 
ATOM      2  C   UNK A   0       2.448   6.616  19.605  0.00  0.00    +0.000 C 
ENDROOT
BRANCH   1   6
ATOM      3  C   UNK A   0       4.496   1.882  17.330  0.00  0.00    +0.000 C 
ATOM      4  N   UNK A   0       4.241   3.308  17.318  0.00  0.00    +0.000 N 
ATOM      5  C   UNK A   0       3.384   4.071  18.111  0.00  0.00    +0.000 A 
ATOM      6  C   UNK A   0       3.579   5.406  17.744  0.00  0.00    +0.000 A 
ATOM      7  C   UNK A   0       4.606   5.439  16.734  0.00  0.00    +0.000 A 
ATOM      8  C   UNK A   0       5.314   6.413  16.004  0.00  0.00    +0.000 A 
ATOM      9  C   UNK A   0       6.280   5.983  15.078  0.00  0.00    +0.000 A 
ATOM     10  C   UNK A   0       6.510   4.625  14.920  0.00  0.00    +0.000 A 
ATOM     11  N   UNK A   0       5.880   3.658  15.606  0.00  0.00    +0.000 NA
ATOM     12  C   UNK A   0       4.963   4.120  16.484  0.00  0.00    +0.000 A 
BRANCH   5  13
ATOM     13  C   UNK A   0       2.619   3.462  19.206  0.00  0.00    +0.000 A 
ATOM     14  C   UNK A   0       1.230   3.356  19.121  0.00  0.00    +0.000 A 
ATOM     15  C   UNK A   0       0.475   3.083  20.264  0.00  0.00    +0.000 A 
ATOM     16  C   UNK A   0       1.104   2.945  21.500  0.00  0.00    +0.000 A 
ATOM     17  C   UNK A   0       2.492   2.976  21.581  0.00  0.00    +0.000 A 
ATOM     18  C   UNK A   0       3.245   3.176  20.424  0.00  0.00    +0.000 A 
ENDBRANCH   5  13
ENDBRANCH   1   6
BRANCH   2  19
ATOM     19  C   UNK A   0       1.762   7.812  20.199  0.00  0.00    +0.000 C 
ATOM     20  O   UNK A   0       1.597   7.954  21.404  0.00  0.00    +0.000 OA
ATOM     21  N   PHE A   1       1.416   8.801  19.299  0.00  0.00    +0.000 N 
ATOM     22  H   PHE A   1       1.515   8.573  18.317  0.00  0.00    +0.000 HD
BRANCH  21  23
ATOM     23  CA  PHE A   1       0.521   9.977  19.581  0.00  0.00    +0.000 C 
BRANCH  23  24
ATOM     24  C   PHE A   1       1.164  11.144  20.378  0.00  0.00    +0.000 C 
ATOM     25  O   PHE A   1       1.239  11.164  21.603  0.00  0.00    +0.000 OA
BRANCH  24  26
ATOM     26  OXT PHE A   1       1.721  12.123  19.641  0.00  0.00    +0.000 OA
ATOM     27  HXT PHE A   1       1.248  12.982  19.732  0.00  0.00    +0.000 HD
ENDBRANCH  24  26
ENDBRANCH  23  24
BRANCH  23  28
ATOM     28  CB  PHE A   1      -0.007  10.650  18.269  0.00  0.00    +0.000 C 
BRANCH  28  29
ATOM     29  CG  PHE A   1      -1.476  10.543  17.935  0.00  0.00    +0.000 A 
ATOM     30  CD1 PHE A   1      -1.957   9.813  16.846  0.00  0.00    +0.000 A 
ATOM     31  CE1 PHE A   1      -3.259  10.027  16.393  0.00  0.00    +0.000 A 
ATOM     32  CZ  PHE A   1      -4.102  10.912  17.065  0.00  0.00    +0.000 A 
ATOM     33  CE2 PHE A   1      -3.686  11.494  18.259  0.00  0.00    +0.000 A 
ATOM     34  CD2 PHE A   1      -2.385  11.284  18.709  0.00  0.00    +0.000 A 
ENDBRANCH  28  29
ENDBRANCH  23  28
ENDBRANCH  21  23
ENDBRANCH   2  19
TORSDOF 8
ENDMDL
MODEL 9
REMARK VINA RESULT:      -8.2      2.220      4.992
REMARK  Name = 
REMARK  9 active torsions:
REMARK  status: ('A' for Active; 'I' for Inactive)
REMARK    1  A    between atoms: C_1  and  N_2
REMARK    2  A    between atoms: C_3  and  C_4
REMARK    3  A    between atoms: C_10  and  C_11
REMARK    4  A    between atoms: C_12  and  C_13
REMARK    5  A    between atoms: N_15  and  CA_16
REMARK    6  A    between atoms: CA_16  and  CB_17
REMARK    7  A    between atoms: CA_16  and  C_24
REMARK    8  A    between atoms: CB_17  and  CG_18
REMARK    9  A    between atoms: C_24  and  OXT_26
REMARK                            x       y       z     vdW  Elec       q    Type
REMARK                         _______ _______ _______ _____ _____    ______ ____
ROOT
ATOM      1  C   UNK A   0       2.824   7.265  19.136  0.00  0.00    +0.000 C 
ATOM      2  C   UNK A   0       2.160   7.760  18.071  0.00  0.00    +0.000 C 
ENDROOT
BRANCH   1   6
ATOM      3  C   UNK A   0       5.260   2.862  19.211  0.00  0.00    +0.000 C 
ATOM      4  N   UNK A   0       4.299   3.934  19.367  0.00  0.00    +0.000 N 
ATOM      5  C   UNK A   0       4.420   5.294  19.082  0.00  0.00    +0.000 A 
ATOM      6  C   UNK A   0       3.172   5.871  19.340  0.00  0.00    +0.000 A 
ATOM      7  C   UNK A   0       2.277   4.820  19.751  0.00  0.00    +0.000 A 
ATOM      8  C   UNK A   0       0.915   4.685  20.082  0.00  0.00    +0.000 A 
ATOM      9  C   UNK A   0       0.438   3.413  20.440  0.00  0.00    +0.000 A 
ATOM     10  C   UNK A   0       1.313   2.338  20.446  0.00  0.00    +0.000 A 
ATOM     11  N   UNK A   0       2.612   2.407  20.117  0.00  0.00    +0.000 NA
ATOM     12  C   UNK A   0       3.024   3.648  19.781  0.00  0.00    +0.000 A 
BRANCH   5  13
ATOM     13  C   UNK A   0       5.636   5.835  18.462  0.00  0.00    +0.000 A 
ATOM     14  C   UNK A   0       6.856   5.780  19.137  0.00  0.00    +0.000 A 
ATOM     15  C   UNK A   0       7.931   6.562  18.711  0.00  0.00    +0.000 A 
ATOM     16  C   UNK A   0       7.780   7.424  17.626  0.00  0.00    +0.000 A 
ATOM     17  C   UNK A   0       6.593   7.431  16.903  0.00  0.00    +0.000 A 
ATOM     18  C   UNK A   0       5.546   6.593  17.289  0.00  0.00    +0.000 A 
ENDBRANCH   5  13
ENDBRANCH   1   6
BRANCH   2  19
ATOM     19  C   UNK A   0       1.825   9.211  17.874  0.00  0.00    +0.000 C 
ATOM     20  O   UNK A   0       2.649  10.042  17.515  0.00  0.00    +0.000 OA
ATOM     21  N   PHE A   1       0.490   9.534  18.027  0.00  0.00    +0.000 N 
ATOM     22  H   PHE A   1      -0.111   8.808  18.399  0.00  0.00    +0.000 HD
BRANCH  21  23
ATOM     23  CA  PHE A   1      -0.077  10.924  18.121  0.00  0.00    +0.000 C 
BRANCH  23  24
ATOM     24  C   PHE A   1      -1.619  11.039  17.989  0.00  0.00    +0.000 C 
ATOM     25  O   PHE A   1      -2.383  10.094  18.159  0.00  0.00    +0.000 OA
BRANCH  24  26
ATOM     26  OXT PHE A   1      -2.098  12.275  17.749  0.00  0.00    +0.000 OA
ATOM     27  HXT PHE A   1      -2.691  12.306  16.963  0.00  0.00    +0.000 HD
ENDBRANCH  24  26
ENDBRANCH  23  24
BRANCH  23  28
ATOM     28  CB  PHE A   1       0.245  11.605  19.494  0.00  0.00    +0.000 C 
BRANCH  28  29
ATOM     29  CG  PHE A   1      -0.206  10.927  20.767  0.00  0.00    +0.000 A 
ATOM     30  CD1 PHE A   1      -1.097  11.515  21.666  0.00  0.00    +0.000 A 
ATOM     31  CE1 PHE A   1      -1.207  11.005  22.961  0.00  0.00    +0.000 A 
ATOM     32  CZ  PHE A   1      -0.485   9.873  23.335  0.00  0.00    +0.000 A 
ATOM     33  CE2 PHE A   1       0.256   9.177  22.384  0.00  0.00    +0.000 A 
ATOM     34  CD2 PHE A   1       0.369   9.687  21.094  0.00  0.00    +0.000 A 
ENDBRANCH  28  29
ENDBRANCH  23  28
ENDBRANCH  21  23
ENDBRANCH   2  19
TORSDOF 8
ENDMDL
