MODEL 1
REMARK VINA RESULT:      -7.7      0.000      0.000
REMARK  Name = 
REMARK  11 active torsions:
REMARK  status: ('A' for Active; 'I' for Inactive)
REMARK    1  A    between atoms: C_1  and  C_2
REMARK    2  A    between atoms: C_4  and  C_5
REMARK    3  A    between atoms: N_10  and  C_11
REMARK    4  A    between atoms: C_15  and  C_16
REMARK    5  A    between atoms: C_20  and  C_21
REMARK    6  A    between atoms: C_21  and  N_22
REMARK    7  A    between atoms: C_23  and  C_25
REMARK    8  A    between atoms: C_28  and  C_29
REMARK    9  A    between atoms: C_29  and  C_30
REMARK   10  A    between atoms: C_29  and  C_31
REMARK   11  A    between atoms: C_29  and  C_32
REMARK                            x       y       z     vdW  Elec       q    Type
REMARK                         _______ _______ _______ _____ _____    ______ ____
ROOT
ATOM      1  C   UNL     1       1.820  12.983  19.927  0.00  0.00    +0.000 C 
ATOM      2  C   UNL     1       1.164  11.767  19.330  0.00  0.00    +0.000 A 
ATOM      3  C   UNL     1       1.879  10.549  19.356  0.00  0.00    +0.000 A 
ATOM      4  C   UNL     1       1.380   9.363  18.793  0.00  0.00    +0.000 A 
ATOM      5  C   UNL     1       0.099   9.431  18.220  0.00  0.00    +0.000 A 
ATOM      6  C   UNL     1      -0.628  10.628  18.184  0.00  0.00    +0.000 A 
ATOM      7  C   UNL     1      -0.117  11.809  18.745  0.00  0.00    +0.000 A 
ENDROOT
BRANCH   4   8
ATOM      8  C   UNL     1       2.196   8.124  18.783  0.00  0.00    +0.000 A 
ATOM      9  C   UNL     1       2.189   7.231  19.839  0.00  0.00    +0.000 A 
ATOM     10  C   UNL     1       2.955   6.107  19.693  0.00  0.00    +0.000 A 
ATOM     11  N   UNL     1       3.704   5.866  18.609  0.00  0.00    +0.000 NA
ATOM     12  C   UNL     1       3.686   6.778  17.627  0.00  0.00    +0.000 A 
ATOM     13  N   UNL     1       4.526   6.628  16.516  0.00  0.00    +0.000 N 
ATOM     14  N   UNL     1       2.936   7.892  17.667  0.00  0.00    +0.000 NA
ATOM     15  H   UNL     1       4.387   7.432  15.916  0.00  0.00    +0.000 HD
BRANCH  13  16
ATOM     16  C   UNL     1       5.612   5.827  16.392  0.00  0.00    +0.000 A 
ATOM     17  C   UNL     1       5.694   4.573  15.842  0.00  0.00    +0.000 A 
ATOM     18  O   UNL     1       6.954   4.096  15.969  0.00  0.00    +0.000 OA
ATOM     19  N   UNL     1       7.742   5.041  16.603  0.00  0.00    +0.000 NA
ATOM     20  C   UNL     1       6.931   6.081  16.850  0.00  0.00    +0.000 A 
ATOM     21  C   UNL     1       7.459   7.268  17.557  0.00  0.00    +0.000 C 
ENDBRANCH  13  16
ENDBRANCH   4   8
BRANCH   7  22
ATOM     22  C   UNL     1      -0.965  13.062  18.676  0.00  0.00    +0.000 C 
BRANCH  22  23
ATOM     23  N   UNL     1      -2.125  12.966  19.528  0.00  0.00    +0.000 N 
ATOM     24  C   UNL     1      -2.164  13.511  20.798  0.00  0.00    +0.000 C 
ATOM     25  O   UNL     1      -1.213  14.130  21.263  0.00  0.00    +0.000 OA
ATOM     26  H   UNL     1      -2.962  12.534  19.166  0.00  0.00    +0.000 HD
BRANCH  24  27
ATOM     27  C   UNL     1      -3.407  13.305  21.516  0.00  0.00    +0.000 A 
ATOM     28  C   UNL     1      -3.616  12.637  22.707  0.00  0.00    +0.000 A 
ATOM     29  N   UNL     1      -4.932  12.588  23.147  0.00  0.00    +0.000 NA
ATOM     30  C   UNL     1      -5.726  13.210  22.296  0.00  0.00    +0.000 A 
ATOM     31  S   UNL     1      -4.908  13.882  20.931  0.00  0.00    +0.000 S 
BRANCH  30  32
ATOM     32  C   UNL     1      -7.241  13.358  22.445  0.00  0.00    +0.000 C 
ATOM     33  C   UNL     1      -7.582  14.653  23.210  0.00  0.00    +0.000 C 
ATOM     34  C   UNL     1      -7.916  13.429  21.063  0.00  0.00    +0.000 C 
ATOM     35  C   UNL     1      -7.822  12.171  23.239  0.00  0.00    +0.000 C 
ENDBRANCH  30  32
ENDBRANCH  24  27
ENDBRANCH  22  23
ENDBRANCH   7  22
TORSDOF 6
ENDMDL
MODEL 2
REMARK VINA RESULT:      -7.6      3.663      5.999
REMARK  Name = 
REMARK  11 active torsions:
REMARK  status: ('A' for Active; 'I' for Inactive)
REMARK    1  A    between atoms: C_1  and  C_2
REMARK    2  A    between atoms: C_4  and  C_5
REMARK    3  A    between atoms: N_10  and  C_11
REMARK    4  A    between atoms: C_15  and  C_16
REMARK    5  A    between atoms: C_20  and  C_21
REMARK    6  A    between atoms: C_21  and  N_22
REMARK    7  A    between atoms: C_23  and  C_25
REMARK    8  A    between atoms: C_28  and  C_29
REMARK    9  A    between atoms: C_29  and  C_30
REMARK   10  A    between atoms: C_29  and  C_31
REMARK   11  A    between atoms: C_29  and  C_32
REMARK                            x       y       z     vdW  Elec       q    Type
REMARK                         _______ _______ _______ _____ _____    ______ ____
ROOT
ATOM      1  C   UNL     1       0.158   9.605  23.205  0.00  0.00    +0.000 C 
ATOM      2  C   UNL     1       0.513   9.477  21.748  0.00  0.00    +0.000 A 
ATOM      3  C   UNL     1       1.188   8.308  21.331  0.00  0.00    +0.000 A 
ATOM      4  C   UNL     1       1.603   8.102  20.005  0.00  0.00    +0.000 A 
ATOM      5  C   UNL     1       1.283   9.113  19.084  0.00  0.00    +0.000 A 
ATOM      6  C   UNL     1       0.613  10.279  19.475  0.00  0.00    +0.000 A 
ATOM      7  C   UNL     1       0.209  10.478  20.804  0.00  0.00    +0.000 A 
ENDROOT
BRANCH   4   8
ATOM      8  C   UNL     1       2.371   6.889  19.628  0.00  0.00    +0.000 A 
ATOM      9  C   UNL     1       2.114   5.653  20.192  0.00  0.00    +0.000 A 
ATOM     10  C   UNL     1       2.865   4.606  19.734  0.00  0.00    +0.000 A 
ATOM     11  N   UNL     1       3.823   4.740  18.808  0.00  0.00    +0.000 NA
ATOM     12  C   UNL     1       4.039   5.967  18.312  0.00  0.00    +0.000 A 
ATOM     13  N   UNL     1       5.094   6.185  17.417  0.00  0.00    +0.000 N 
ATOM     14  N   UNL     1       3.327   7.047  18.676  0.00  0.00    +0.000 NA
ATOM     15  H   UNL     1       5.109   7.173  17.195  0.00  0.00    +0.000 HD
BRANCH  13  16
ATOM     16  C   UNL     1       6.161   5.386  17.173  0.00  0.00    +0.000 A 
ATOM     17  C   UNL     1       7.228   5.107  17.989  0.00  0.00    +0.000 A 
ATOM     18  O   UNL     1       8.106   4.305  17.342  0.00  0.00    +0.000 OA
ATOM     19  N   UNL     1       7.625   4.026  16.075  0.00  0.00    +0.000 NA
ATOM     20  C   UNL     1       6.454   4.673  15.981  0.00  0.00    +0.000 A 
ATOM     21  C   UNL     1       5.680   4.608  14.722  0.00  0.00    +0.000 C 
ENDBRANCH  13  16
ENDBRANCH   4   8
BRANCH   7  22
ATOM     22  C   UNL     1      -0.519  11.760  21.150  0.00  0.00    +0.000 C 
BRANCH  22  23
ATOM     23  N   UNL     1       0.395  12.867  21.297  0.00  0.00    +0.000 N 
ATOM     24  C   UNL     1       0.567  13.825  20.315  0.00  0.00    +0.000 C 
ATOM     25  O   UNL     1      -0.071  13.796  19.268  0.00  0.00    +0.000 OA
ATOM     26  H   UNL     1       0.888  12.981  22.170  0.00  0.00    +0.000 HD
BRANCH  24  27
ATOM     27  C   UNL     1       1.538  14.856  20.628  0.00  0.00    +0.000 A 
ATOM     28  C   UNL     1       1.412  15.928  21.489  0.00  0.00    +0.000 A 
ATOM     29  N   UNL     1       2.516  16.766  21.573  0.00  0.00    +0.000 NA
ATOM     30  C   UNL     1       3.478  16.341  20.777  0.00  0.00    +0.000 A 
ATOM     31  S   UNL     1       3.085  14.907  19.898  0.00  0.00    +0.000 S 
BRANCH  30  32
ATOM     32  C   UNL     1       4.842  17.011  20.600  0.00  0.00    +0.000 C 
ATOM     33  C   UNL     1       4.801  18.461  21.125  0.00  0.00    +0.000 C 
ATOM     34  C   UNL     1       5.925  16.250  21.385  0.00  0.00    +0.000 C 
ATOM     35  C   UNL     1       5.229  17.059  19.108  0.00  0.00    +0.000 C 
ENDBRANCH  30  32
ENDBRANCH  24  27
ENDBRANCH  22  23
ENDBRANCH   7  22
TORSDOF 6
ENDMDL
MODEL 3
REMARK VINA RESULT:      -7.6      0.996      1.105
REMARK  Name = 
REMARK  11 active torsions:
REMARK  status: ('A' for Active; 'I' for Inactive)
REMARK    1  A    between atoms: C_1  and  C_2
REMARK    2  A    between atoms: C_4  and  C_5
REMARK    3  A    between atoms: N_10  and  C_11
REMARK    4  A    between atoms: C_15  and  C_16
REMARK    5  A    between atoms: C_20  and  C_21
REMARK    6  A    between atoms: C_21  and  N_22
REMARK    7  A    between atoms: C_23  and  C_25
REMARK    8  A    between atoms: C_28  and  C_29
REMARK    9  A    between atoms: C_29  and  C_30
REMARK   10  A    between atoms: C_29  and  C_31
REMARK   11  A    between atoms: C_29  and  C_32
REMARK                            x       y       z     vdW  Elec       q    Type
REMARK                         _______ _______ _______ _____ _____    ______ ____
ROOT
ATOM      1  C   UNL     1       2.445  12.989  17.766  0.00  0.00    +0.000 C 
ATOM      2  C   UNL     1       1.680  11.815  18.315  0.00  0.00    +0.000 A 
ATOM      3  C   UNL     1       2.299  10.546  18.276  0.00  0.00    +0.000 A 
ATOM      4  C   UNL     1       1.662   9.377  18.724  0.00  0.00    +0.000 A 
ATOM      5  C   UNL     1       0.370   9.529  19.255  0.00  0.00    +0.000 A 
ATOM      6  C   UNL     1      -0.261  10.778  19.304  0.00  0.00    +0.000 A 
ATOM      7  C   UNL     1       0.382  11.940  18.848  0.00  0.00    +0.000 A 
ENDROOT
BRANCH   4   8
ATOM      8  C   UNL     1       2.324   8.054  18.598  0.00  0.00    +0.000 A 
ATOM      9  C   UNL     1       2.007   6.993  19.427  0.00  0.00    +0.000 A 
ATOM     10  C   UNL     1       2.660   5.815  19.187  0.00  0.00    +0.000 A 
ATOM     11  N   UNL     1       3.581   5.671  18.226  0.00  0.00    +0.000 NA
ATOM     12  C   UNL     1       3.861   6.740  17.467  0.00  0.00    +0.000 A 
ATOM     13  N   UNL     1       4.886   6.676  16.516  0.00  0.00    +0.000 N 
ATOM     14  N   UNL     1       3.244   7.926  17.607  0.00  0.00    +0.000 NA
ATOM     15  H   UNL     1       4.960   7.588  16.082  0.00  0.00    +0.000 HD
BRANCH  13  16
ATOM     16  C   UNL     1       5.881   5.761  16.420  0.00  0.00    +0.000 A 
ATOM     17  C   UNL     1       5.942   4.639  15.632  0.00  0.00    +0.000 A 
ATOM     18  O   UNL     1       7.088   3.964  15.880  0.00  0.00    +0.000 OA
ATOM     19  N   UNL     1       7.821   4.639  16.840  0.00  0.00    +0.000 NA
ATOM     20  C   UNL     1       7.093   5.721  17.157  0.00  0.00    +0.000 A 
ATOM     21  C   UNL     1       7.584   6.655  18.192  0.00  0.00    +0.000 C 
ENDBRANCH  13  16
ENDBRANCH   4   8
BRANCH   7  22
ATOM     22  C   UNL     1      -0.360  13.257  18.943  0.00  0.00    +0.000 C 
BRANCH  22  23
ATOM     23  N   UNL     1      -1.683  13.083  19.490  0.00  0.00    +0.000 N 
ATOM     24  C   UNL     1      -2.046  13.574  20.731  0.00  0.00    +0.000 C 
ATOM     25  O   UNL     1      -1.262  14.209  21.427  0.00  0.00    +0.000 OA
ATOM     26  H   UNL     1      -2.390  12.634  18.926  0.00  0.00    +0.000 HD
BRANCH  24  27
ATOM     27  C   UNL     1      -3.413  13.292  21.126  0.00  0.00    +0.000 A 
ATOM     28  C   UNL     1      -4.456  12.823  20.353  0.00  0.00    +0.000 A 
ATOM     29  N   UNL     1      -5.669  12.663  21.010  0.00  0.00    +0.000 NA
ATOM     30  C   UNL     1      -5.555  13.012  22.278  0.00  0.00    +0.000 A 
ATOM     31  S   UNL     1      -3.974  13.545  22.723  0.00  0.00    +0.000 S 
BRANCH  30  32
ATOM     32  C   UNL     1      -6.683  12.974  23.311  0.00  0.00    +0.000 C 
ATOM     33  C   UNL     1      -7.104  14.406  23.700  0.00  0.00    +0.000 C 
ATOM     34  C   UNL     1      -7.917  12.252  22.739  0.00  0.00    +0.000 C 
ATOM     35  C   UNL     1      -6.215  12.253  24.591  0.00  0.00    +0.000 C 
ENDBRANCH  30  32
ENDBRANCH  24  27
ENDBRANCH  22  23
ENDBRANCH   7  22
TORSDOF 6
ENDMDL
MODEL 4
REMARK VINA RESULT:      -7.5      2.095      2.551
REMARK  Name = 
REMARK  11 active torsions:
REMARK  status: ('A' for Active; 'I' for Inactive)
REMARK    1  A    between atoms: C_1  and  C_2
REMARK    2  A    between atoms: C_4  and  C_5
REMARK    3  A    between atoms: N_10  and  C_11
REMARK    4  A    between atoms: C_15  and  C_16
REMARK    5  A    between atoms: C_20  and  C_21
REMARK    6  A    between atoms: C_21  and  N_22
REMARK    7  A    between atoms: C_23  and  C_25
REMARK    8  A    between atoms: C_28  and  C_29
REMARK    9  A    between atoms: C_29  and  C_30
REMARK   10  A    between atoms: C_29  and  C_31
REMARK   11  A    between atoms: C_29  and  C_32
REMARK                            x       y       z     vdW  Elec       q    Type
REMARK                         _______ _______ _______ _____ _____    ______ ____
ROOT
ATOM      1  C   UNL     1       1.047  11.983  20.066  0.00  0.00    +0.000 C 
ATOM      2  C   UNL     1       0.817  10.653  20.731  0.00  0.00    +0.000 A 
ATOM      3  C   UNL     1       1.476   9.523  20.196  0.00  0.00    +0.000 A 
ATOM      4  C   UNL     1       1.302   8.228  20.711  0.00  0.00    +0.000 A 
ATOM      5  C   UNL     1       0.454   8.103  21.824  0.00  0.00    +0.000 A 
ATOM      6  C   UNL     1      -0.208   9.210  22.371  0.00  0.00    +0.000 A 
ATOM      7  C   UNL     1      -0.032  10.500  21.844  0.00  0.00    +0.000 A 
ENDROOT
BRANCH   4   8
ATOM      8  C   UNL     1       1.961   7.061  20.072  0.00  0.00    +0.000 A 
ATOM      9  C   UNL     1       1.799   5.774  20.552  0.00  0.00    +0.000 A 
ATOM     10  C   UNL     1       2.427   4.779  19.854  0.00  0.00    +0.000 A 
ATOM     11  N   UNL     1       3.187   5.008  18.776  0.00  0.00    +0.000 NA
ATOM     12  C   UNL     1       3.323   6.278  18.370  0.00  0.00    +0.000 A 
ATOM     13  N   UNL     1       4.186   6.588  17.311  0.00  0.00    +0.000 N 
ATOM     14  N   UNL     1       2.714   7.315  18.971  0.00  0.00    +0.000 NA
ATOM     15  H   UNL     1       4.172   7.593  17.188  0.00  0.00    +0.000 HD
BRANCH  13  16
ATOM     16  C   UNL     1       5.170   5.820  16.784  0.00  0.00    +0.000 A 
ATOM     17  C   UNL     1       5.059   4.747  15.935  0.00  0.00    +0.000 A 
ATOM     18  O   UNL     1       6.283   4.224  15.692  0.00  0.00    +0.000 OA
ATOM     19  N   UNL     1       7.239   4.954  16.375  0.00  0.00    +0.000 NA
ATOM     20  C   UNL     1       6.565   5.916  17.025  0.00  0.00    +0.000 A 
ATOM     21  C   UNL     1       7.297   6.868  17.887  0.00  0.00    +0.000 C 
ENDBRANCH  13  16
ENDBRANCH   4   8
BRANCH   7  22
ATOM     22  C   UNL     1      -0.774  11.649  22.495  0.00  0.00    +0.000 C 
BRANCH  22  23
ATOM     23  N   UNL     1      -1.975  11.983  21.769  0.00  0.00    +0.000 N 
ATOM     24  C   UNL     1      -2.515  13.257  21.770  0.00  0.00    +0.000 C 
ATOM     25  O   UNL     1      -1.983  14.181  22.374  0.00  0.00    +0.000 OA
ATOM     26  H   UNL     1      -2.411  11.278  21.194  0.00  0.00    +0.000 HD
BRANCH  24  27
ATOM     27  C   UNL     1      -3.734  13.406  20.998  0.00  0.00    +0.000 A 
ATOM     28  C   UNL     1      -4.708  14.379  21.103  0.00  0.00    +0.000 A 
ATOM     29  N   UNL     1      -5.781  14.253  20.230  0.00  0.00    +0.000 NA
ATOM     30  C   UNL     1      -5.631  13.188  19.466  0.00  0.00    +0.000 A 
ATOM     31  S   UNL     1      -4.182  12.300  19.772  0.00  0.00    +0.000 S 
BRANCH  30  32
ATOM     32  C   UNL     1      -6.613  12.725  18.389  0.00  0.00    +0.000 C 
ATOM     33  C   UNL     1      -7.608  13.854  18.047  0.00  0.00    +0.000 C 
ATOM     34  C   UNL     1      -5.862  12.344  17.099  0.00  0.00    +0.000 C 
ATOM     35  C   UNL     1      -7.425  11.512  18.885  0.00  0.00    +0.000 C 
ENDBRANCH  30  32
ENDBRANCH  24  27
ENDBRANCH  22  23
ENDBRANCH   7  22
TORSDOF 6
ENDMDL
MODEL 5
REMARK VINA RESULT:      -7.4      3.625      5.921
REMARK  Name = 
REMARK  11 active torsions:
REMARK  status: ('A' for Active; 'I' for Inactive)
REMARK    1  A    between atoms: C_1  and  C_2
REMARK    2  A    between atoms: C_4  and  C_5
REMARK    3  A    between atoms: N_10  and  C_11
REMARK    4  A    between atoms: C_15  and  C_16
REMARK    5  A    between atoms: C_20  and  C_21
REMARK    6  A    between atoms: C_21  and  N_22
REMARK    7  A    between atoms: C_23  and  C_25
REMARK    8  A    between atoms: C_28  and  C_29
REMARK    9  A    between atoms: C_29  and  C_30
REMARK   10  A    between atoms: C_29  and  C_31
REMARK   11  A    between atoms: C_29  and  C_32
REMARK                            x       y       z     vdW  Elec       q    Type
REMARK                         _______ _______ _______ _____ _____    ______ ____
ROOT
ATOM      1  C   UNL     1      -0.183   9.622  22.698  0.00  0.00    +0.000 C 
ATOM      2  C   UNL     1       0.334   9.570  21.286  0.00  0.00    +0.000 A 
ATOM      3  C   UNL     1       1.018   8.404  20.874  0.00  0.00    +0.000 A 
ATOM      4  C   UNL     1       1.577   8.264  19.593  0.00  0.00    +0.000 A 
ATOM      5  C   UNL     1       1.394   9.339  18.707  0.00  0.00    +0.000 A 
ATOM      6  C   UNL     1       0.718  10.503  19.094  0.00  0.00    +0.000 A 
ATOM      7  C   UNL     1       0.169  10.635  20.380  0.00  0.00    +0.000 A 
ENDROOT
BRANCH   4   8
ATOM      8  C   UNL     1       2.347   7.048  19.228  0.00  0.00    +0.000 A 
ATOM      9  C   UNL     1       2.244   5.871  19.946  0.00  0.00    +0.000 A 
ATOM     10  C   UNL     1       2.977   4.811  19.487  0.00  0.00    +0.000 A 
ATOM     11  N   UNL     1       3.781   4.883  18.419  0.00  0.00    +0.000 NA
ATOM     12  C   UNL     1       3.855   6.057  17.776  0.00  0.00    +0.000 A 
ATOM     13  N   UNL     1       4.755   6.219  16.715  0.00  0.00    +0.000 N 
ATOM     14  N   UNL     1       3.145   7.140  18.132  0.00  0.00    +0.000 NA
ATOM     15  H   UNL     1       4.682   7.177  16.394  0.00  0.00    +0.000 HD
BRANCH  13  16
ATOM     16  C   UNL     1       5.817   5.441  16.394  0.00  0.00    +0.000 A 
ATOM     17  C   UNL     1       5.924   4.506  15.395  0.00  0.00    +0.000 A 
ATOM     18  O   UNL     1       7.138   3.909  15.452  0.00  0.00    +0.000 OA
ATOM     19  N   UNL     1       7.869   4.452  16.493  0.00  0.00    +0.000 NA
ATOM     20  C   UNL     1       7.072   5.376  17.052  0.00  0.00    +0.000 A 
ATOM     21  C   UNL     1       7.546   6.134  18.230  0.00  0.00    +0.000 C 
ENDBRANCH  13  16
ENDBRANCH   4   8
BRANCH   7  22
ATOM     22  C   UNL     1      -0.556  11.920  20.722  0.00  0.00    +0.000 C 
BRANCH  22  23
ATOM     23  N   UNL     1       0.365  12.970  21.082  0.00  0.00    +0.000 N 
ATOM     24  C   UNL     1       0.811  13.913  20.174  0.00  0.00    +0.000 C 
ATOM     25  O   UNL     1       0.427  13.919  19.010  0.00  0.00    +0.000 OA
ATOM     26  H   UNL     1       0.654  13.058  22.046  0.00  0.00    +0.000 HD
BRANCH  24  27
ATOM     27  C   UNL     1       1.746  14.885  20.709  0.00  0.00    +0.000 A 
ATOM     28  C   UNL     1       1.600  15.710  21.807  0.00  0.00    +0.000 A 
ATOM     29  N   UNL     1       2.669  16.557  22.070  0.00  0.00    +0.000 NA
ATOM     30  C   UNL     1       3.624  16.384  21.176  0.00  0.00    +0.000 A 
ATOM     31  S   UNL     1       3.266  15.187  19.984  0.00  0.00    +0.000 S 
BRANCH  30  32
ATOM     32  C   UNL     1       4.951  17.144  21.140  0.00  0.00    +0.000 C 
ATOM     33  C   UNL     1       4.732  18.628  21.501  0.00  0.00    +0.000 C 
ATOM     34  C   UNL     1       5.943  16.548  22.156  0.00  0.00    +0.000 C 
ATOM     35  C   UNL     1       5.567  17.086  19.728  0.00  0.00    +0.000 C 
ENDBRANCH  30  32
ENDBRANCH  24  27
ENDBRANCH  22  23
ENDBRANCH   7  22
TORSDOF 6
ENDMDL
MODEL 6
REMARK VINA RESULT:      -7.4      3.776      6.058
REMARK  Name = 
REMARK  11 active torsions:
REMARK  status: ('A' for Active; 'I' for Inactive)
REMARK    1  A    between atoms: C_1  and  C_2
REMARK    2  A    between atoms: C_4  and  C_5
REMARK    3  A    between atoms: N_10  and  C_11
REMARK    4  A    between atoms: C_15  and  C_16
REMARK    5  A    between atoms: C_20  and  C_21
REMARK    6  A    between atoms: C_21  and  N_22
REMARK    7  A    between atoms: C_23  and  C_25
REMARK    8  A    between atoms: C_28  and  C_29
REMARK    9  A    between atoms: C_29  and  C_30
REMARK   10  A    between atoms: C_29  and  C_31
REMARK   11  A    between atoms: C_29  and  C_32
REMARK                            x       y       z     vdW  Elec       q    Type
REMARK                         _______ _______ _______ _____ _____    ______ ____
ROOT
ATOM      1  C   UNL     1       0.558   9.993  22.339  0.00  0.00    +0.000 C 
ATOM      2  C   UNL     1       0.755   9.895  20.850  0.00  0.00    +0.000 A 
ATOM      3  C   UNL     1       1.363   8.727  20.339  0.00  0.00    +0.000 A 
ATOM      4  C   UNL     1       1.632   8.547  18.972  0.00  0.00    +0.000 A 
ATOM      5  C   UNL     1       1.232   9.583  18.112  0.00  0.00    +0.000 A 
ATOM      6  C   UNL     1       0.626  10.749  18.597  0.00  0.00    +0.000 A 
ATOM      7  C   UNL     1       0.367  10.921  19.966  0.00  0.00    +0.000 A 
ENDROOT
BRANCH   4   8
ATOM      8  C   UNL     1       2.336   7.333  18.488  0.00  0.00    +0.000 A 
ATOM      9  C   UNL     1       1.802   6.066  18.638  0.00  0.00    +0.000 A 
ATOM     10  C   UNL     1       2.530   5.032  18.117  0.00  0.00    +0.000 A 
ATOM     11  N   UNL     1       3.713   5.200  17.512  0.00  0.00    +0.000 NA
ATOM     12  C   UNL     1       4.189   6.449  17.415  0.00  0.00    +0.000 A 
ATOM     13  N   UNL     1       5.466   6.674  16.885  0.00  0.00    +0.000 N 
ATOM     14  N   UNL     1       3.527   7.529  17.865  0.00  0.00    +0.000 NA
ATOM     15  H   UNL     1       5.648   7.669  16.934  0.00  0.00    +0.000 HD
BRANCH  13  16
ATOM     16  C   UNL     1       6.465   5.776  16.704  0.00  0.00    +0.000 A 
ATOM     17  C   UNL     1       6.831   5.121  15.554  0.00  0.00    +0.000 A 
ATOM     18  O   UNL     1       7.846   4.265  15.816  0.00  0.00    +0.000 OA
ATOM     19  N   UNL     1       8.182   4.346  17.156  0.00  0.00    +0.000 NA
ATOM     20  C   UNL     1       7.352   5.260  17.683  0.00  0.00    +0.000 A 
ATOM     21  C   UNL     1       7.427   5.569  19.127  0.00  0.00    +0.000 C 
ENDBRANCH  13  16
ENDBRANCH   4   8
BRANCH   7  22
ATOM     22  C   UNL     1      -0.299  12.205  20.415  0.00  0.00    +0.000 C 
BRANCH  22  23
ATOM     23  N   UNL     1       0.638  13.300  20.469  0.00  0.00    +0.000 N 
ATOM     24  C   UNL     1       0.733  14.248  19.468  0.00  0.00    +0.000 C 
ATOM     25  O   UNL     1       0.003  14.221  18.483  0.00  0.00    +0.000 OA
ATOM     26  H   UNL     1       1.210  13.414  21.294  0.00  0.00    +0.000 HD
BRANCH  24  27
ATOM     27  C   UNL     1       1.742  15.269  19.683  0.00  0.00    +0.000 A 
ATOM     28  C   UNL     1       1.715  16.600  19.317  0.00  0.00    +0.000 A 
ATOM     29  N   UNL     1       2.844  17.337  19.647  0.00  0.00    +0.000 NA
ATOM     30  C   UNL     1       3.731  16.574  20.257  0.00  0.00    +0.000 A 
ATOM     31  S   UNL     1       3.230  14.934  20.458  0.00  0.00    +0.000 S 
BRANCH  30  32
ATOM     32  C   UNL     1       5.098  17.037  20.763  0.00  0.00    +0.000 C 
ATOM     33  C   UNL     1       6.008  17.423  19.579  0.00  0.00    +0.000 C 
ATOM     34  C   UNL     1       4.949  18.271  21.672  0.00  0.00    +0.000 C 
ATOM     35  C   UNL     1       5.794  15.905  21.546  0.00  0.00    +0.000 C 
ENDBRANCH  30  32
ENDBRANCH  24  27
ENDBRANCH  22  23
ENDBRANCH   7  22
TORSDOF 6
ENDMDL
MODEL 7
REMARK VINA RESULT:      -7.4      2.158      3.263
REMARK  Name = 
REMARK  11 active torsions:
REMARK  status: ('A' for Active; 'I' for Inactive)
REMARK    1  A    between atoms: C_1  and  C_2
REMARK    2  A    between atoms: C_4  and  C_5
REMARK    3  A    between atoms: N_10  and  C_11
REMARK    4  A    between atoms: C_15  and  C_16
REMARK    5  A    between atoms: C_20  and  C_21
REMARK    6  A    between atoms: C_21  and  N_22
REMARK    7  A    between atoms: C_23  and  C_25
REMARK    8  A    between atoms: C_28  and  C_29
REMARK    9  A    between atoms: C_29  and  C_30
REMARK   10  A    between atoms: C_29  and  C_31
REMARK   11  A    between atoms: C_29  and  C_32
REMARK                            x       y       z     vdW  Elec       q    Type
REMARK                         _______ _______ _______ _____ _____    ______ ____
ROOT
ATOM      1  C   UNL     1      -2.101  10.120  16.762  0.00  0.00    +0.000 C 
ATOM      2  C   UNL     1      -0.948  10.276  17.717  0.00  0.00    +0.000 A 
ATOM      3  C   UNL     1       0.003   9.232  17.783  0.00  0.00    +0.000 A 
ATOM      4  C   UNL     1       1.095   9.254  18.666  0.00  0.00    +0.000 A 
ATOM      5  C   UNL     1       1.225  10.395  19.475  0.00  0.00    +0.000 A 
ATOM      6  C   UNL     1       0.295  11.441  19.426  0.00  0.00    +0.000 A 
ATOM      7  C   UNL     1      -0.796  11.407  18.543  0.00  0.00    +0.000 A 
ENDROOT
BRANCH   4   8
ATOM      8  C   UNL     1       2.029   8.103  18.749  0.00  0.00    +0.000 A 
ATOM      9  C   UNL     1       2.024   7.230  19.822  0.00  0.00    +0.000 A 
ATOM     10  C   UNL     1       2.907   6.187  19.763  0.00  0.00    +0.000 A 
ATOM     11  N   UNL     1       3.763   6.007  18.749  0.00  0.00    +0.000 NA
ATOM     12  C   UNL     1       3.735   6.898  17.748  0.00  0.00    +0.000 A 
ATOM     13  N   UNL     1       4.674   6.817  16.712  0.00  0.00    +0.000 N 
ATOM     14  N   UNL     1       2.877   7.931  17.702  0.00  0.00    +0.000 NA
ATOM     15  H   UNL     1       4.506   7.595  16.084  0.00  0.00    +0.000 HD
BRANCH  13  16
ATOM     16  C   UNL     1       5.841   6.129  16.694  0.00  0.00    +0.000 A 
ATOM     17  C   UNL     1       6.952   6.305  17.480  0.00  0.00    +0.000 A 
ATOM     18  O   UNL     1       7.925   5.443  17.101  0.00  0.00    +0.000 OA
ATOM     19  N   UNL     1       7.467   4.665  16.052  0.00  0.00    +0.000 NA
ATOM     20  C   UNL     1       6.212   5.078  15.816  0.00  0.00    +0.000 A 
ATOM     21  C   UNL     1       5.434   4.462  14.720  0.00  0.00    +0.000 C 
ENDBRANCH  13  16
ENDBRANCH   4   8
BRANCH   7  22
ATOM     22  C   UNL     1      -1.755  12.579  18.540  0.00  0.00    +0.000 C 
BRANCH  22  23
ATOM     23  N   UNL     1      -1.880  13.167  19.851  0.00  0.00    +0.000 N 
ATOM     24  C   UNL     1      -3.046  13.097  20.590  0.00  0.00    +0.000 C 
ATOM     25  O   UNL     1      -4.038  12.507  20.175  0.00  0.00    +0.000 OA
ATOM     26  H   UNL     1      -1.070  13.599  20.272  0.00  0.00    +0.000 HD
BRANCH  24  27
ATOM     27  C   UNL     1      -2.995  13.757  21.881  0.00  0.00    +0.000 A 
ATOM     28  C   UNL     1      -3.754  13.511  23.008  0.00  0.00    +0.000 A 
ATOM     29  N   UNL     1      -3.488  14.324  24.102  0.00  0.00    +0.000 NA
ATOM     30  C   UNL     1      -2.536  15.189  23.813  0.00  0.00    +0.000 A 
ATOM     31  S   UNL     1      -1.922  15.050  22.205  0.00  0.00    +0.000 S 
BRANCH  30  32
ATOM     32  C   UNL     1      -1.980  16.246  24.768  0.00  0.00    +0.000 C 
ATOM     33  C   UNL     1      -0.857  17.053  24.085  0.00  0.00    +0.000 C 
ATOM     34  C   UNL     1      -3.087  17.231  25.188  0.00  0.00    +0.000 C 
ATOM     35  C   UNL     1      -1.386  15.578  26.024  0.00  0.00    +0.000 C 
ENDBRANCH  30  32
ENDBRANCH  24  27
ENDBRANCH  22  23
ENDBRANCH   7  22
TORSDOF 6
ENDMDL
MODEL 8
REMARK VINA RESULT:      -7.4      2.785      3.889
REMARK  Name = 
REMARK  11 active torsions:
REMARK  status: ('A' for Active; 'I' for Inactive)
REMARK    1  A    between atoms: C_1  and  C_2
REMARK    2  A    between atoms: C_4  and  C_5
REMARK    3  A    between atoms: N_10  and  C_11
REMARK    4  A    between atoms: C_15  and  C_16
REMARK    5  A    between atoms: C_20  and  C_21
REMARK    6  A    between atoms: C_21  and  N_22
REMARK    7  A    between atoms: C_23  and  C_25
REMARK    8  A    between atoms: C_28  and  C_29
REMARK    9  A    between atoms: C_29  and  C_30
REMARK   10  A    between atoms: C_29  and  C_31
REMARK   11  A    between atoms: C_29  and  C_32
REMARK                            x       y       z     vdW  Elec       q    Type
REMARK                         _______ _______ _______ _____ _____    ______ ____
ROOT
ATOM      1  C   UNL     1       0.384  13.643  20.887  0.00  0.00    +0.000 C 
ATOM      2  C   UNL     1       0.172  12.199  21.256  0.00  0.00    +0.000 A 
ATOM      3  C   UNL     1       0.852  11.217  20.502  0.00  0.00    +0.000 A 
ATOM      4  C   UNL     1       0.696   9.840  20.732  0.00  0.00    +0.000 A 
ATOM      5  C   UNL     1      -0.155   9.472  21.787  0.00  0.00    +0.000 A 
ATOM      6  C   UNL     1      -0.839  10.430  22.548  0.00  0.00    +0.000 A 
ATOM      7  C   UNL     1      -0.681  11.803  22.305  0.00  0.00    +0.000 A 
ENDROOT
BRANCH   4   8
ATOM      8  C   UNL     1       1.377   8.842  19.869  0.00  0.00    +0.000 A 
ATOM      9  C   UNL     1       1.550   9.043  18.512  0.00  0.00    +0.000 A 
ATOM     10  C   UNL     1       2.226   8.067  17.832  0.00  0.00    +0.000 A 
ATOM     11  N   UNL     1       2.687   6.953  18.415  0.00  0.00    +0.000 NA
ATOM     12  C   UNL     1       2.472   6.806  19.730  0.00  0.00    +0.000 A 
ATOM     13  N   UNL     1       2.841   5.617  20.372  0.00  0.00    +0.000 N 
ATOM     14  N   UNL     1       1.850   7.727  20.485  0.00  0.00    +0.000 NA
ATOM     15  H   UNL     1       2.562   5.692  21.342  0.00  0.00    +0.000 HD
BRANCH  13  16
ATOM     16  C   UNL     1       3.136   4.421  19.808  0.00  0.00    +0.000 A 
ATOM     17  C   UNL     1       4.327   3.994  19.275  0.00  0.00    +0.000 A 
ATOM     18  O   UNL     1       4.183   2.750  18.762  0.00  0.00    +0.000 OA
ATOM     19  N   UNL     1       2.883   2.320  18.958  0.00  0.00    +0.000 NA
ATOM     20  C   UNL     1       2.260   3.326  19.592  0.00  0.00    +0.000 A 
ATOM     21  C   UNL     1       0.826   3.201  19.929  0.00  0.00    +0.000 C 
ENDBRANCH  13  16
ENDBRANCH   4   8
BRANCH   7  22
ATOM     22  C   UNL     1      -1.445  12.779  23.176  0.00  0.00    +0.000 C 
BRANCH  22  23
ATOM     23  N   UNL     1      -2.545  13.380  22.461  0.00  0.00    +0.000 N 
ATOM     24  C   UNL     1      -3.670  13.867  23.100  0.00  0.00    +0.000 C 
ATOM     25  O   UNL     1      -3.783  13.834  24.321  0.00  0.00    +0.000 OA
ATOM     26  H   UNL     1      -2.470  13.501  21.462  0.00  0.00    +0.000 HD
BRANCH  24  27
ATOM     27  C   UNL     1      -4.682  14.423  22.221  0.00  0.00    +0.000 A 
ATOM     28  C   UNL     1      -6.028  14.122  22.155  0.00  0.00    +0.000 A 
ATOM     29  N   UNL     1      -6.752  14.812  21.192  0.00  0.00    +0.000 NA
ATOM     30  C   UNL     1      -5.965  15.631  20.522  0.00  0.00    +0.000 A 
ATOM     31  S   UNL     1      -4.316  15.601  21.035  0.00  0.00    +0.000 S 
BRANCH  30  32
ATOM     32  C   UNL     1      -6.407  16.550  19.382  0.00  0.00    +0.000 C 
ATOM     33  C   UNL     1      -7.634  17.383  19.808  0.00  0.00    +0.000 C 
ATOM     34  C   UNL     1      -5.277  17.524  19.003  0.00  0.00    +0.000 C 
ATOM     35  C   UNL     1      -6.804  15.720  18.145  0.00  0.00    +0.000 C 
ENDBRANCH  30  32
ENDBRANCH  24  27
ENDBRANCH  22  23
ENDBRANCH   7  22
TORSDOF 6
ENDMDL
MODEL 9
REMARK VINA RESULT:      -7.4      4.685     11.912
REMARK  Name = 
REMARK  11 active torsions:
REMARK  status: ('A' for Active; 'I' for Inactive)
REMARK    1  A    between atoms: C_1  and  C_2
REMARK    2  A    between atoms: C_4  and  C_5
REMARK    3  A    between atoms: N_10  and  C_11
REMARK    4  A    between atoms: C_15  and  C_16
REMARK    5  A    between atoms: C_20  and  C_21
REMARK    6  A    between atoms: C_21  and  N_22
REMARK    7  A    between atoms: C_23  and  C_25
REMARK    8  A    between atoms: C_28  and  C_29
REMARK    9  A    between atoms: C_29  and  C_30
REMARK   10  A    between atoms: C_29  and  C_31
REMARK   11  A    between atoms: C_29  and  C_32
REMARK                            x       y       z     vdW  Elec       q    Type
REMARK                         _______ _______ _______ _____ _____    ______ ____
ROOT
ATOM      1  C   UNL     1       2.085   3.991  21.486  0.00  0.00    +0.000 C 
ATOM      2  C   UNL     1       2.263   5.134  20.522  0.00  0.00    +0.000 A 
ATOM      3  C   UNL     1       1.701   6.384  20.867  0.00  0.00    +0.000 A 
ATOM      4  C   UNL     1       1.773   7.506  20.025  0.00  0.00    +0.000 A 
ATOM      5  C   UNL     1       2.468   7.341  18.816  0.00  0.00    +0.000 A 
ATOM      6  C   UNL     1       3.033   6.111  18.455  0.00  0.00    +0.000 A 
ATOM      7  C   UNL     1       2.951   4.994  19.301  0.00  0.00    +0.000 A 
ENDROOT
BRANCH   4   8
ATOM      8  C   UNL     1       1.107   8.780  20.398  0.00  0.00    +0.000 A 
ATOM      9  C   UNL     1       0.049   8.822  21.286  0.00  0.00    +0.000 A 
ATOM     10  C   UNL     1      -0.454  10.060  21.577  0.00  0.00    +0.000 A 
ATOM     11  N   UNL     1       0.014  11.189  21.029  0.00  0.00    +0.000 NA
ATOM     12  C   UNL     1       1.028  11.082  20.159  0.00  0.00    +0.000 A 
ATOM     13  N   UNL     1       1.490  12.216  19.479  0.00  0.00    +0.000 N 
ATOM     14  N   UNL     1       1.608   9.913  19.841  0.00  0.00    +0.000 NA
ATOM     15  H   UNL     1       2.225  11.918  18.850  0.00  0.00    +0.000 HD
BRANCH  13  16
ATOM     16  C   UNL     1       0.870  13.412  19.332  0.00  0.00    +0.000 A 
ATOM     17  C   UNL     1      -0.173  13.741  18.503  0.00  0.00    +0.000 A 
ATOM     18  O   UNL     1      -0.457  15.059  18.621  0.00  0.00    +0.000 OA
ATOM     19  N   UNL     1       0.395  15.632  19.549  0.00  0.00    +0.000 NA
ATOM     20  C   UNL     1       1.187  14.636  19.977  0.00  0.00    +0.000 A 
ATOM     21  C   UNL     1       2.247  14.919  20.968  0.00  0.00    +0.000 C 
ENDBRANCH  13  16
ENDBRANCH   4   8
BRANCH   7  22
ATOM     22  C   UNL     1       3.595   3.700  18.848  0.00  0.00    +0.000 C 
BRANCH  22  23
ATOM     23  N   UNL     1       4.283   3.861  17.590  0.00  0.00    +0.000 N 
ATOM     24  C   UNL     1       5.622   4.198  17.513  0.00  0.00    +0.000 C 
ATOM     25  O   UNL     1       6.306   4.358  18.518  0.00  0.00    +0.000 OA
ATOM     26  H   UNL     1       3.787   3.667  16.733  0.00  0.00    +0.000 HD
BRANCH  24  27
ATOM     27  C   UNL     1       6.143   4.332  16.165  0.00  0.00    +0.000 A 
ATOM     28  C   UNL     1       7.230   5.064  15.729  0.00  0.00    +0.000 A 
ATOM     29  N   UNL     1       7.481   5.013  14.364  0.00  0.00    +0.000 NA
ATOM     30  C   UNL     1       6.590   4.251  13.760  0.00  0.00    +0.000 A 
ATOM     31  S   UNL     1       5.414   3.563  14.822  0.00  0.00    +0.000 S 
BRANCH  30  32
ATOM     32  C   UNL     1       6.544   3.962  12.258  0.00  0.00    +0.000 C 
ATOM     33  C   UNL     1       7.335   2.679  11.933  0.00  0.00    +0.000 C 
ATOM     34  C   UNL     1       5.091   3.759  11.791  0.00  0.00    +0.000 C 
ATOM     35  C   UNL     1       7.178   5.123  11.467  0.00  0.00    +0.000 C 
ENDBRANCH  30  32
ENDBRANCH  24  27
ENDBRANCH  22  23
ENDBRANCH   7  22
TORSDOF 6
ENDMDL
