MODEL 1
REMARK VINA RESULT:      -7.6      0.000      0.000
REMARK  Name = 
REMARK  4 active torsions:
REMARK  status: ('A' for Active; 'I' for Inactive)
REMARK    1  A    between atoms: C_2  and  C_3
REMARK    2  A    between atoms: C_4  and  C_5
REMARK    3  A    between atoms: C_20  and  C_21
REMARK    4  A    between atoms: C_21  and  O_23
REMARK                            x       y       z     vdW  Elec       q    Type
REMARK                         _______ _______ _______ _____ _____    ______ ____
ROOT
ATOM      1  C   UNL     1       2.013   6.652  20.043  0.00  0.00    +0.000 A 
ATOM      2  C   UNL     1       2.563   6.794  18.809  0.00  0.00    +0.000 A 
ATOM      3  C   UNL     1       2.480   8.085  18.125  0.00  0.00    +0.000 A 
ATOM      4  C   UNL     1       1.857   9.130  18.698  0.00  0.00    +0.000 A 
ATOM      5 CL   UNL     1       1.800  10.616  17.824  0.00  0.00    +0.000 Cl
ATOM      6  N   UNL     1       1.282   8.970  19.972  0.00  0.00    +0.000 N 
ATOM      7  C   UNL     1       1.342   7.752  20.663  0.00  0.00    +0.000 A 
ATOM      8  N   UNL     1       0.735   7.822  21.828  0.00  0.00    +0.000 NA
ATOM      9  C   UNL     1       0.270   9.099  21.929  0.00  0.00    +0.000 A 
ATOM     10  C   UNL     1      -0.432   9.689  22.992  0.00  0.00    +0.000 A 
ATOM     11  C   UNL     1      -0.809  11.036  22.906  0.00  0.00    +0.000 A 
ATOM     12  C   UNL     1      -0.510  11.779  21.761  0.00  0.00    +0.000 A 
ATOM     13  C   UNL     1       0.200  11.200  20.690  0.00  0.00    +0.000 A 
ATOM     14  C   UNL     1       0.584   9.850  20.796  0.00  0.00    +0.000 A 
ENDROOT
BRANCH   2  15
ATOM     15  C   UNL     1       3.233   5.649  18.154  0.00  0.00    +0.000 A 
ATOM     16  C   UNL     1       4.625   5.645  17.998  0.00  0.00    +0.000 A 
ATOM     17  C   UNL     1       5.260   4.575  17.367  0.00  0.00    +0.000 A 
ATOM     18  C   UNL     1       4.509   3.500  16.891  0.00  0.00    +0.000 A 
ATOM     19  C   UNL     1       3.124   3.492  17.051  0.00  0.00    +0.000 A 
ATOM     20  C   UNL     1       2.485   4.562  17.683  0.00  0.00    +0.000 A 
ENDBRANCH   2  15
BRANCH   1  22
ATOM     21  N   UNL     1       2.148   4.223  21.390  0.00  0.00    +0.000 NA
ATOM     22  C   UNL     1       2.087   5.324  20.779  0.00  0.00    +0.000 C 
ENDBRANCH   1  22
BRANCH  12  23
ATOM     23  C   UNL     1      -0.868  13.219  21.643  0.00  0.00    +0.000 C 
ATOM     24  O   UNL     1      -0.692  14.015  22.550  0.00  0.00    +0.000 OA
BRANCH  23  25
ATOM     25  O   UNL     1      -1.362  13.575  20.440  0.00  0.00    +0.000 OA
ATOM     26  H   UNL     1      -2.201  14.070  20.456  0.00  0.00    +0.000 HD
ENDBRANCH  23  25
ENDBRANCH  12  23
TORSDOF 4
ENDMDL
MODEL 2
REMARK VINA RESULT:      -7.6      0.194      1.158
REMARK  Name = 
REMARK  4 active torsions:
REMARK  status: ('A' for Active; 'I' for Inactive)
REMARK    1  A    between atoms: C_2  and  C_3
REMARK    2  A    between atoms: C_4  and  C_5
REMARK    3  A    between atoms: C_20  and  C_21
REMARK    4  A    between atoms: C_21  and  O_23
REMARK                            x       y       z     vdW  Elec       q    Type
REMARK                         _______ _______ _______ _____ _____    ______ ____
ROOT
ATOM      1  C   UNL     1       2.013   6.705  20.010  0.00  0.00    +0.000 A 
ATOM      2  C   UNL     1       2.570   6.877  18.784  0.00  0.00    +0.000 A 
ATOM      3  C   UNL     1       2.499   8.186  18.134  0.00  0.00    +0.000 A 
ATOM      4  C   UNL     1       1.880   9.219  18.734  0.00  0.00    +0.000 A 
ATOM      5 CL   UNL     1       1.837  10.730  17.900  0.00  0.00    +0.000 Cl
ATOM      6  N   UNL     1       1.298   9.030  19.999  0.00  0.00    +0.000 N 
ATOM      7  C   UNL     1       1.347   7.793  20.658  0.00  0.00    +0.000 A 
ATOM      8  N   UNL     1       0.735   7.835  21.821  0.00  0.00    +0.000 NA
ATOM      9  C   UNL     1       0.278   9.111  21.955  0.00  0.00    +0.000 A 
ATOM     10  C   UNL     1      -0.425   9.678  23.031  0.00  0.00    +0.000 A 
ATOM     11  C   UNL     1      -0.793  11.028  22.980  0.00  0.00    +0.000 A 
ATOM     12  C   UNL     1      -0.483  11.801  21.856  0.00  0.00    +0.000 A 
ATOM     13  C   UNL     1       0.228  11.246  20.774  0.00  0.00    +0.000 A 
ATOM     14  C   UNL     1       0.602   9.891  20.844  0.00  0.00    +0.000 A 
ENDROOT
BRANCH   2  15
ATOM     15  C   UNL     1       3.235   5.746  18.100  0.00  0.00    +0.000 A 
ATOM     16  C   UNL     1       2.489   4.629  17.702  0.00  0.00    +0.000 A 
ATOM     17  C   UNL     1       3.115   3.553  17.070  0.00  0.00    +0.000 A 
ATOM     18  C   UNL     1       4.488   3.588  16.830  0.00  0.00    +0.000 A 
ATOM     19  C   UNL     1       5.236   4.700  17.215  0.00  0.00    +0.000 A 
ATOM     20  C   UNL     1       4.613   5.780  17.846  0.00  0.00    +0.000 A 
ENDBRANCH   2  15
BRANCH   1  22
ATOM     21  N   UNL     1       2.125   4.239  21.291  0.00  0.00    +0.000 NA
ATOM     22  C   UNL     1       2.074   5.357  20.711  0.00  0.00    +0.000 C 
ENDBRANCH   1  22
BRANCH  12  23
ATOM     23  C   UNL     1      -0.831  13.246  21.776  0.00  0.00    +0.000 C 
ATOM     24  O   UNL     1      -1.667  13.677  21.000  0.00  0.00    +0.000 OA
BRANCH  23  25
ATOM     25  O   UNL     1      -0.176  14.027  22.658  0.00  0.00    +0.000 OA
ATOM     26  H   UNL     1       0.519  13.587  23.180  0.00  0.00    +0.000 HD
ENDBRANCH  23  25
ENDBRANCH  12  23
TORSDOF 4
ENDMDL
MODEL 3
REMARK VINA RESULT:      -7.2      4.239      7.447
REMARK  Name = 
REMARK  4 active torsions:
REMARK  status: ('A' for Active; 'I' for Inactive)
REMARK    1  A    between atoms: C_2  and  C_3
REMARK    2  A    between atoms: C_4  and  C_5
REMARK    3  A    between atoms: C_20  and  C_21
REMARK    4  A    between atoms: C_21  and  O_23
REMARK                            x       y       z     vdW  Elec       q    Type
REMARK                         _______ _______ _______ _____ _____    ______ ____
ROOT
ATOM      1  C   UNL     1       1.065   8.955  20.028  0.00  0.00    +0.000 A 
ATOM      2  C   UNL     1       1.446   9.693  18.953  0.00  0.00    +0.000 A 
ATOM      3  C   UNL     1       2.289   9.086  17.922  0.00  0.00    +0.000 A 
ATOM      4  C   UNL     1       2.699   7.810  18.030  0.00  0.00    +0.000 A 
ATOM      5 CL   UNL     1       3.693   7.171  16.773  0.00  0.00    +0.000 Cl
ATOM      6  N   UNL     1       2.307   7.057  19.151  0.00  0.00    +0.000 N 
ATOM      7  C   UNL     1       1.498   7.598  20.160  0.00  0.00    +0.000 A 
ATOM      8  N   UNL     1       1.261   6.726  21.116  0.00  0.00    +0.000 NA
ATOM      9  C   UNL     1       1.907   5.584  20.746  0.00  0.00    +0.000 A 
ATOM     10  C   UNL     1       1.949   4.351  21.416  0.00  0.00    +0.000 A 
ATOM     11  C   UNL     1       2.663   3.285  20.853  0.00  0.00    +0.000 A 
ATOM     12  C   UNL     1       3.346   3.454  19.645  0.00  0.00    +0.000 A 
ATOM     13  C   UNL     1       3.305   4.685  18.960  0.00  0.00    +0.000 A 
ATOM     14  C   UNL     1       2.574   5.744  19.531  0.00  0.00    +0.000 A 
ENDROOT
BRANCH   2  15
ATOM     15  C   UNL     1       1.022  11.105  18.829  0.00  0.00    +0.000 A 
ATOM     16  C   UNL     1       1.936  12.137  19.081  0.00  0.00    +0.000 A 
ATOM     17  C   UNL     1       1.537  13.470  18.980  0.00  0.00    +0.000 A 
ATOM     18  C   UNL     1       0.225  13.781  18.622  0.00  0.00    +0.000 A 
ATOM     19  C   UNL     1      -0.687  12.759  18.360  0.00  0.00    +0.000 A 
ATOM     20  C   UNL     1      -0.291  11.423  18.459  0.00  0.00    +0.000 A 
ENDBRANCH   2  15
BRANCH   1  22
ATOM     21  N   UNL     1      -0.541  10.056  22.014  0.00  0.00    +0.000 NA
ATOM     22  C   UNL     1       0.188   9.557  21.113  0.00  0.00    +0.000 C 
ENDBRANCH   1  22
BRANCH  12  23
ATOM     23  C   UNL     1       4.091   2.339  19.001  0.00  0.00    +0.000 C 
ATOM     24  O   UNL     1       3.771   1.875  17.920  0.00  0.00    +0.000 OA
BRANCH  23  25
ATOM     25  O   UNL     1       5.169   1.915  19.691  0.00  0.00    +0.000 OA
ATOM     26  H   UNL     1       5.826   2.599  19.912  0.00  0.00    +0.000 HD
ENDBRANCH  23  25
ENDBRANCH  12  23
TORSDOF 4
ENDMDL
MODEL 4
REMARK VINA RESULT:      -6.9      4.121      7.507
REMARK  Name = 
REMARK  4 active torsions:
REMARK  status: ('A' for Active; 'I' for Inactive)
REMARK    1  A    between atoms: C_2  and  C_3
REMARK    2  A    between atoms: C_4  and  C_5
REMARK    3  A    between atoms: C_20  and  C_21
REMARK    4  A    between atoms: C_21  and  O_23
REMARK                            x       y       z     vdW  Elec       q    Type
REMARK                         _______ _______ _______ _____ _____    ______ ____
ROOT
ATOM      1  C   UNL     1       1.040   9.158  20.070  0.00  0.00    +0.000 A 
ATOM      2  C   UNL     1       1.379   9.941  19.014  0.00  0.00    +0.000 A 
ATOM      3  C   UNL     1       2.189   9.383  17.930  0.00  0.00    +0.000 A 
ATOM      4  C   UNL     1       2.608   8.105  17.971  0.00  0.00    +0.000 A 
ATOM      5 CL   UNL     1       3.560   7.524  16.655  0.00  0.00    +0.000 Cl
ATOM      6  N   UNL     1       2.259   7.304  19.073  0.00  0.00    +0.000 N 
ATOM      7  C   UNL     1       1.483   7.799  20.131  0.00  0.00    +0.000 A 
ATOM      8  N   UNL     1       1.283   6.888  21.058  0.00  0.00    +0.000 NA
ATOM      9  C   UNL     1       1.921   5.766  20.619  0.00  0.00    +0.000 A 
ATOM     10  C   UNL     1       1.992   4.506  21.236  0.00  0.00    +0.000 A 
ATOM     11  C   UNL     1       2.690   3.468  20.605  0.00  0.00    +0.000 A 
ATOM     12  C   UNL     1       3.330   3.691  19.382  0.00  0.00    +0.000 A 
ATOM     13  C   UNL     1       3.260   4.948  18.750  0.00  0.00    +0.000 A 
ATOM     14  C   UNL     1       2.545   5.979  19.389  0.00  0.00    +0.000 A 
ENDROOT
BRANCH   2  15
ATOM     15  C   UNL     1       0.946  11.355  18.962  0.00  0.00    +0.000 A 
ATOM     16  C   UNL     1      -0.363  11.674  18.579  0.00  0.00    +0.000 A 
ATOM     17  C   UNL     1      -0.772  13.007  18.514  0.00  0.00    +0.000 A 
ATOM     18  C   UNL     1       0.122  14.028  18.836  0.00  0.00    +0.000 A 
ATOM     19  C   UNL     1       1.423  13.717  19.229  0.00  0.00    +0.000 A 
ATOM     20  C   UNL     1       1.836  12.384  19.295  0.00  0.00    +0.000 A 
ENDBRANCH   2  15
BRANCH   1  22
ATOM     21  N   UNL     1      -0.500  10.168  22.154  0.00  0.00    +0.000 NA
ATOM     22  C   UNL     1       0.198   9.710  21.209  0.00  0.00    +0.000 C 
ENDBRANCH   1  22
BRANCH  12  23
ATOM     23  C   UNL     1       4.057   2.607  18.667  0.00  0.00    +0.000 C 
ATOM     24  O   UNL     1       3.930   1.430  18.958  0.00  0.00    +0.000 OA
BRANCH  23  25
ATOM     25  O   UNL     1       4.833   3.032  17.650  0.00  0.00    +0.000 OA
ATOM     26  H   UNL     1       4.473   2.892  16.755  0.00  0.00    +0.000 HD
ENDBRANCH  23  25
ENDBRANCH  12  23
TORSDOF 4
ENDMDL
MODEL 5
REMARK VINA RESULT:      -6.6      0.979      1.057
REMARK  Name = 
REMARK  4 active torsions:
REMARK  status: ('A' for Active; 'I' for Inactive)
REMARK    1  A    between atoms: C_2  and  C_3
REMARK    2  A    between atoms: C_4  and  C_5
REMARK    3  A    between atoms: C_20  and  C_21
REMARK    4  A    between atoms: C_21  and  O_23
REMARK                            x       y       z     vdW  Elec       q    Type
REMARK                         _______ _______ _______ _____ _____    ______ ____
ROOT
ATOM      1  C   UNL     1       2.703   6.469  19.300  0.00  0.00    +0.000 A 
ATOM      2  C   UNL     1       3.183   6.789  18.070  0.00  0.00    +0.000 A 
ATOM      3  C   UNL     1       2.913   8.114  17.511  0.00  0.00    +0.000 A 
ATOM      4  C   UNL     1       2.187   9.016  18.196  0.00  0.00    +0.000 A 
ATOM      5 CL   UNL     1       1.911  10.554  17.465  0.00  0.00    +0.000 Cl
ATOM      6  N   UNL     1       1.686   8.672  19.464  0.00  0.00    +0.000 N 
ATOM      7  C   UNL     1       1.924   7.415  20.037  0.00  0.00    +0.000 A 
ATOM      8  N   UNL     1       1.359   7.303  21.220  0.00  0.00    +0.000 NA
ATOM      9  C   UNL     1       0.742   8.496  21.451  0.00  0.00    +0.000 A 
ATOM     10  C   UNL     1       0.013   8.895  22.583  0.00  0.00    +0.000 A 
ATOM     11  C   UNL     1      -0.532  10.185  22.633  0.00  0.00    +0.000 A 
ATOM     12  C   UNL     1      -0.372  11.059  21.554  0.00  0.00    +0.000 A 
ATOM     13  C   UNL     1       0.363  10.672  20.415  0.00  0.00    +0.000 A 
ATOM     14  C   UNL     1       0.916   9.378  20.384  0.00  0.00    +0.000 A 
ENDROOT
BRANCH   2  15
ATOM     15  C   UNL     1       3.965   5.802  17.293  0.00  0.00    +0.000 A 
ATOM     16  C   UNL     1       5.101   6.209  16.582  0.00  0.00    +0.000 A 
ATOM     17  C   UNL     1       5.832   5.284  15.835  0.00  0.00    +0.000 A 
ATOM     18  C   UNL     1       5.436   3.947  15.799  0.00  0.00    +0.000 A 
ATOM     19  C   UNL     1       4.313   3.533  16.513  0.00  0.00    +0.000 A 
ATOM     20  C   UNL     1       3.578   4.455  17.262  0.00  0.00    +0.000 A 
ENDBRANCH   2  15
BRANCH   1  22
ATOM     21  N   UNL     1       3.192   3.967  20.411  0.00  0.00    +0.000 NA
ATOM     22  C   UNL     1       2.970   5.101  19.907  0.00  0.00    +0.000 C 
ENDBRANCH   1  22
BRANCH  12  23
ATOM     23  C   UNL     1      -0.911  12.446  21.580  0.00  0.00    +0.000 C 
ATOM     24  O   UNL     1      -0.513  13.289  22.365  0.00  0.00    +0.000 OA
BRANCH  23  25
ATOM     25  O   UNL     1      -1.843  12.700  20.639  0.00  0.00    +0.000 OA
ATOM     26  H   UNL     1      -1.566  12.551  19.717  0.00  0.00    +0.000 HD
ENDBRANCH  23  25
ENDBRANCH  12  23
TORSDOF 4
ENDMDL
MODEL 6
REMARK VINA RESULT:      -6.5      3.689      8.907
REMARK  Name = 
REMARK  4 active torsions:
REMARK  status: ('A' for Active; 'I' for Inactive)
REMARK    1  A    between atoms: C_2  and  C_3
REMARK    2  A    between atoms: C_4  and  C_5
REMARK    3  A    between atoms: C_20  and  C_21
REMARK    4  A    between atoms: C_21  and  O_23
REMARK                            x       y       z     vdW  Elec       q    Type
REMARK                         _______ _______ _______ _____ _____    ______ ____
ROOT
ATOM      1  C   UNL     1      -0.863  12.948  21.228  0.00  0.00    +0.000 A 
ATOM      2  C   UNL     1      -1.338  12.674  22.470  0.00  0.00    +0.000 A 
ATOM      3  C   UNL     1      -1.099  11.357  23.062  0.00  0.00    +0.000 A 
ATOM      4  C   UNL     1      -0.422  10.411  22.386  0.00  0.00    +0.000 A 
ATOM      5 CL   UNL     1      -0.185   8.883  23.153  0.00  0.00    +0.000 Cl
ATOM      6  N   UNL     1       0.059  10.701  21.097  0.00  0.00    +0.000 N 
ATOM      7  C   UNL     1      -0.146  11.951  20.495  0.00  0.00    +0.000 A 
ATOM      8  N   UNL     1       0.378  12.003  19.289  0.00  0.00    +0.000 NA
ATOM      9  C   UNL     1       0.948  10.783  19.079  0.00  0.00    +0.000 A 
ATOM     10  C   UNL     1       1.655  10.334  17.951  0.00  0.00    +0.000 A 
ATOM     11  C   UNL     1       2.183   9.037  17.940  0.00  0.00    +0.000 A 
ATOM     12  C   UNL     1       1.988   8.187  19.033  0.00  0.00    +0.000 A 
ATOM     13  C   UNL     1       1.287   8.628  20.173  0.00  0.00    +0.000 A 
ATOM     14  C   UNL     1       0.772   9.939  20.176  0.00  0.00    +0.000 A 
ENDROOT
BRANCH   2  15
ATOM     15  C   UNL     1      -2.105  13.694  23.219  0.00  0.00    +0.000 A 
ATOM     16  C   UNL     1      -1.443  14.572  24.087  0.00  0.00    +0.000 A 
ATOM     17  C   UNL     1      -2.164  15.526  24.807  0.00  0.00    +0.000 A 
ATOM     18  C   UNL     1      -3.548  15.613  24.659  0.00  0.00    +0.000 A 
ATOM     19  C   UNL     1      -4.212  14.750  23.789  0.00  0.00    +0.000 A 
ATOM     20  C   UNL     1      -3.494  13.793  23.066  0.00  0.00    +0.000 A 
ENDBRANCH   2  15
BRANCH   1  22
ATOM     21  N   UNL     1      -1.284  15.436  20.060  0.00  0.00    +0.000 NA
ATOM     22  C   UNL     1      -1.093  14.308  20.589  0.00  0.00    +0.000 C 
ENDBRANCH   1  22
BRANCH  12  23
ATOM     23  C   UNL     1       2.557   6.813  19.071  0.00  0.00    +0.000 C 
ATOM     24  O   UNL     1       2.927   6.229  18.067  0.00  0.00    +0.000 OA
BRANCH  23  25
ATOM     25  O   UNL     1       2.665   6.287  20.308  0.00  0.00    +0.000 OA
ATOM     26  H   UNL     1       3.483   6.504  20.790  0.00  0.00    +0.000 HD
ENDBRANCH  23  25
ENDBRANCH  12  23
TORSDOF 4
ENDMDL
MODEL 7
REMARK VINA RESULT:      -6.4      3.590      8.687
REMARK  Name = 
REMARK  4 active torsions:
REMARK  status: ('A' for Active; 'I' for Inactive)
REMARK    1  A    between atoms: C_2  and  C_3
REMARK    2  A    between atoms: C_4  and  C_5
REMARK    3  A    between atoms: C_20  and  C_21
REMARK    4  A    between atoms: C_21  and  O_23
REMARK                            x       y       z     vdW  Elec       q    Type
REMARK                         _______ _______ _______ _____ _____    ______ ____
ROOT
ATOM      1  C   UNL     1      -0.206  12.755  20.361  0.00  0.00    +0.000 A 
ATOM      2  C   UNL     1      -0.740  12.824  21.608  0.00  0.00    +0.000 A 
ATOM      3  C   UNL     1      -0.669  11.659  22.491  0.00  0.00    +0.000 A 
ATOM      4  C   UNL     1      -0.089  10.518  22.079  0.00  0.00    +0.000 A 
ATOM      5 CL   UNL     1      -0.048   9.189  23.179  0.00  0.00    +0.000 Cl
ATOM      6  N   UNL     1       0.454  10.453  20.783  0.00  0.00    +0.000 N 
ATOM      7  C   UNL     1       0.410  11.546  19.907  0.00  0.00    +0.000 A 
ATOM      8  N   UNL     1       0.965  11.266  18.748  0.00  0.00    +0.000 NA
ATOM      9  C   UNL     1       1.396   9.977  18.845  0.00  0.00    +0.000 A 
ATOM     10  C   UNL     1       2.074   9.210  17.883  0.00  0.00    +0.000 A 
ATOM     11  C   UNL     1       2.449   7.896  18.189  0.00  0.00    +0.000 A 
ATOM     12  C   UNL     1       2.130   7.343  19.433  0.00  0.00    +0.000 A 
ATOM     13  C   UNL     1       1.457   8.105  20.409  0.00  0.00    +0.000 A 
ATOM     14  C   UNL     1       1.097   9.429  20.093  0.00  0.00    +0.000 A 
ENDROOT
BRANCH   2  15
ATOM     15  C   UNL     1      -1.401  14.064  22.070  0.00  0.00    +0.000 A 
ATOM     16  C   UNL     1      -0.672  15.027  22.779  0.00  0.00    +0.000 A 
ATOM     17  C   UNL     1      -1.295  16.192  23.230  0.00  0.00    +0.000 A 
ATOM     18  C   UNL     1      -2.649  16.404  22.970  0.00  0.00    +0.000 A 
ATOM     19  C   UNL     1      -3.379  15.454  22.256  0.00  0.00    +0.000 A 
ATOM     20  C   UNL     1      -2.759  14.288  21.803  0.00  0.00    +0.000 A 
ENDBRANCH   2  15
BRANCH   1  22
ATOM     21  N   UNL     1      -0.308  14.942  18.646  0.00  0.00    +0.000 NA
ATOM     22  C   UNL     1      -0.262  13.950  19.424  0.00  0.00    +0.000 C 
ENDBRANCH   1  22
BRANCH  12  23
ATOM     23  C   UNL     1       2.536   5.961  19.806  0.00  0.00    +0.000 C 
ATOM     24  O   UNL     1       3.027   5.183  19.006  0.00  0.00    +0.000 OA
BRANCH  23  25
ATOM     25  O   UNL     1       2.352   5.657  21.107  0.00  0.00    +0.000 OA
ATOM     26  H   UNL     1       1.853   4.840  21.285  0.00  0.00    +0.000 HD
ENDBRANCH  23  25
ENDBRANCH  12  23
TORSDOF 4
ENDMDL
MODEL 8
REMARK VINA RESULT:      -6.2      9.038     10.719
REMARK  Name = 
REMARK  4 active torsions:
REMARK  status: ('A' for Active; 'I' for Inactive)
REMARK    1  A    between atoms: C_2  and  C_3
REMARK    2  A    between atoms: C_4  and  C_5
REMARK    3  A    between atoms: C_20  and  C_21
REMARK    4  A    between atoms: C_21  and  O_23
REMARK                            x       y       z     vdW  Elec       q    Type
REMARK                         _______ _______ _______ _____ _____    ______ ____
ROOT
ATOM      1  C   UNL     1       6.915  13.748  22.953  0.00  0.00    +0.000 A 
ATOM      2  C   UNL     1       7.477  12.639  23.500  0.00  0.00    +0.000 A 
ATOM      3  C   UNL     1       8.615  12.002  22.835  0.00  0.00    +0.000 A 
ATOM      4  C   UNL     1       9.106  12.498  21.685  0.00  0.00    +0.000 A 
ATOM      5 CL   UNL     1      10.447  11.687  20.963  0.00  0.00    +0.000 Cl
ATOM      6  N   UNL     1       8.511  13.641  21.122  0.00  0.00    +0.000 N 
ATOM      7  C   UNL     1       7.422  14.283  21.728  0.00  0.00    +0.000 A 
ATOM      8  N   UNL     1       7.019  15.323  21.031  0.00  0.00    +0.000 NA
ATOM      9  C   UNL     1       7.848  15.390  19.951  0.00  0.00    +0.000 A 
ATOM     10  C   UNL     1       7.850  16.335  18.912  0.00  0.00    +0.000 A 
ATOM     11  C   UNL     1       8.807  16.237  17.893  0.00  0.00    +0.000 A 
ATOM     12  C   UNL     1       9.738  15.194  17.899  0.00  0.00    +0.000 A 
ATOM     13  C   UNL     1       9.751  14.244  18.941  0.00  0.00    +0.000 A 
ATOM     14  C   UNL     1       8.791  14.362  19.964  0.00  0.00    +0.000 A 
ENDROOT
BRANCH   2  15
ATOM     15  C   UNL     1       6.937  12.067  24.753  0.00  0.00    +0.000 A 
ATOM     16  C   UNL     1       7.545  12.364  25.980  0.00  0.00    +0.000 A 
ATOM     17  C   UNL     1       7.048  11.815  27.163  0.00  0.00    +0.000 A 
ATOM     18  C   UNL     1       5.938  10.971  27.128  0.00  0.00    +0.000 A 
ATOM     19  C   UNL     1       5.321  10.680  25.912  0.00  0.00    +0.000 A 
ATOM     20  C   UNL     1       5.816  11.228  24.726  0.00  0.00    +0.000 A 
ENDBRANCH   2  15
BRANCH   1  22
ATOM     21  N   UNL     1       4.755  14.999  24.179  0.00  0.00    +0.000 NA
ATOM     22  C   UNL     1       5.734  14.432  23.623  0.00  0.00    +0.000 C 
ENDBRANCH   1  22
BRANCH  12  23
ATOM     23  C   UNL     1      10.788  15.072  16.852  0.00  0.00    +0.000 C 
ATOM     24  O   UNL     1      11.583  14.148  16.824  0.00  0.00    +0.000 OA
BRANCH  23  25
ATOM     25  O   UNL     1      10.760  16.044  15.918  0.00  0.00    +0.000 OA
ATOM     26  H   UNL     1       9.903  16.184  15.478  0.00  0.00    +0.000 HD
ENDBRANCH  23  25
ENDBRANCH  12  23
TORSDOF 4
ENDMDL
MODEL 9
REMARK VINA RESULT:      -6.1      3.718      7.551
REMARK  Name = 
REMARK  4 active torsions:
REMARK  status: ('A' for Active; 'I' for Inactive)
REMARK    1  A    between atoms: C_2  and  C_3
REMARK    2  A    between atoms: C_4  and  C_5
REMARK    3  A    between atoms: C_20  and  C_21
REMARK    4  A    between atoms: C_21  and  O_23
REMARK                            x       y       z     vdW  Elec       q    Type
REMARK                         _______ _______ _______ _____ _____    ______ ____
ROOT
ATOM      1  C   UNL     1       0.663   9.475  20.990  0.00  0.00    +0.000 A 
ATOM      2  C   UNL     1       0.765  10.461  20.061  0.00  0.00    +0.000 A 
ATOM      3  C   UNL     1       1.424  10.185  18.784  0.00  0.00    +0.000 A 
ATOM      4  C   UNL     1       1.938   8.970  18.522  0.00  0.00    +0.000 A 
ATOM      5 CL   UNL     1       2.701   8.727  16.993  0.00  0.00    +0.000 Cl
ATOM      6  N   UNL     1       1.836   7.958  19.493  0.00  0.00    +0.000 N 
ATOM      7  C   UNL     1       1.210   8.180  20.728  0.00  0.00    +0.000 A 
ATOM      8  N   UNL     1       1.235   7.105  21.487  0.00  0.00    +0.000 NA
ATOM      9  C   UNL     1       1.873   6.148  20.756  0.00  0.00    +0.000 A 
ATOM     10  C   UNL     1       2.138   4.815  21.107  0.00  0.00    +0.000 A 
ATOM     11  C   UNL     1       2.798   3.980  20.197  0.00  0.00    +0.000 A 
ATOM     12  C   UNL     1       3.210   4.476  18.956  0.00  0.00    +0.000 A 
ATOM     13  C   UNL     1       2.943   5.810  18.589  0.00  0.00    +0.000 A 
ATOM     14  C   UNL     1       2.268   6.635  19.509  0.00  0.00    +0.000 A 
ENDROOT
BRANCH   2  15
ATOM     15  C   UNL     1       0.225  11.809  20.340  0.00  0.00    +0.000 A 
ATOM     16  C   UNL     1       1.067  12.816  20.830  0.00  0.00    +0.000 A 
ATOM     17  C   UNL     1       0.559  14.085  21.110  0.00  0.00    +0.000 A 
ATOM     18  C   UNL     1      -0.793  14.357  20.898  0.00  0.00    +0.000 A 
ATOM     19  C   UNL     1      -1.635  13.364  20.402  0.00  0.00    +0.000 A 
ATOM     20  C   UNL     1      -1.130  12.092  20.120  0.00  0.00    +0.000 A 
ENDBRANCH   2  15
BRANCH   1  22
ATOM     21  N   UNL     1      -0.584   9.943  23.431  0.00  0.00    +0.000 NA
ATOM     22  C   UNL     1      -0.018   9.731  22.324  0.00  0.00    +0.000 C 
ENDBRANCH   1  22
BRANCH  12  23
ATOM     23  C   UNL     1       3.888   3.614  17.950  0.00  0.00    +0.000 C 
ATOM     24  O   UNL     1       3.332   3.228  16.937  0.00  0.00    +0.000 OA
BRANCH  23  25
ATOM     25  O   UNL     1       5.175   3.332  18.234  0.00  0.00    +0.000 OA
ATOM     26  H   UNL     1       5.797   3.390  17.486  0.00  0.00    +0.000 HD
ENDBRANCH  23  25
ENDBRANCH  12  23
TORSDOF 4
ENDMDL
