MODEL 1
REMARK VINA RESULT:      -8.7      0.000      0.000
REMARK  Name = 
REMARK  2 active torsions:
REMARK  status: ('A' for Active; 'I' for Inactive)
REMARK    1  A    between atoms: C_8  and  C_9
REMARK    2  A    between atoms: C_18  and  O_19
REMARK                            x       y       z     vdW  Elec       q    Type
REMARK                         _______ _______ _______ _____ _____    ______ ____
ROOT
ATOM      1  O   UNL     1       2.403   8.094  17.194  0.00  0.00    +0.000 OA
ATOM      2  C   UNL     1       2.096   7.928  18.372  0.00  0.00    +0.000 C 
ATOM      3  C   UNL     1       1.644   9.063  19.270  0.00  0.00    +0.000 C 
ATOM      4  O   UNL     1       1.880   8.802  20.646  0.00  0.00    +0.000 OA
ATOM      5  C   UNL     1       1.264   7.586  21.085  0.00  0.00    +0.000 C 
ATOM      6  C   UNL     1       1.687   6.405  20.238  0.00  0.00    +0.000 C 
ATOM      7  C   UNL     1       2.102   6.572  18.967  0.00  0.00    +0.000 C 
ATOM      8  C   UNL     1       2.531   5.406  18.122  0.00  0.00    +0.000 C 
ATOM      9  C   UNL     1       1.814   4.162  18.613  0.00  0.00    +0.000 C 
ATOM     10  C   UNL     1       1.891   2.907  18.137  0.00  0.00    +0.000 C 
ATOM     11  C   UNL     1       3.143   2.138  18.500  0.00  0.00    +0.000 C 
ATOM     12  O   UNL     1       3.358   2.113  19.919  0.00  0.00    +0.000 OA
ATOM     13  C   UNL     1       2.364   2.783  20.713  0.00  0.00    +0.000 C 
ATOM     14  C   UNL     1       1.922   4.123  20.116  0.00  0.00    +0.000 C 
ATOM     15  N   UNL     1       1.787   5.176  20.875  0.00  0.00    +0.000 NA
ENDROOT
BRANCH   8  16
ATOM     16  C   UNL     1       4.055   5.287  18.056  0.00  0.00    +0.000 A 
ATOM     17  C   UNL     1       4.868   5.370  19.206  0.00  0.00    +0.000 A 
ATOM     18  C   UNL     1       6.249   5.201  19.128  0.00  0.00    +0.000 A 
ATOM     19  C   UNL     1       6.844   4.980  17.895  0.00  0.00    +0.000 A 
ATOM     20  F   UNL     1       8.172   4.819  17.838  0.00  0.00    +0.000 F 
ATOM     21  C   UNL     1       6.065   4.920  16.738  0.00  0.00    +0.000 A 
ATOM     22 BR   UNL     1       6.871   4.625  15.054  0.00  0.00    +0.000 Br
ATOM     23  C   UNL     1       4.678   5.072  16.814  0.00  0.00    +0.000 A 
ENDBRANCH   8  16
BRANCH  10  24
ATOM     24  O   UNL     1       0.727   2.129  18.264  0.00  0.00    +0.000 OA
ATOM     25  H   UNL     1       0.875   1.428  18.929  0.00  0.00    +0.000 HD
ENDBRANCH  10  24
TORSDOF 2
ENDMDL
MODEL 2
REMARK VINA RESULT:      -7.7      3.261      5.456
REMARK  Name = 
REMARK  2 active torsions:
REMARK  status: ('A' for Active; 'I' for Inactive)
REMARK    1  A    between atoms: C_8  and  C_9
REMARK    2  A    between atoms: C_18  and  O_19
REMARK                            x       y       z     vdW  Elec       q    Type
REMARK                         _______ _______ _______ _____ _____    ______ ____
ROOT
ATOM      1  O   UNL     1       1.318   3.536  17.395  0.00  0.00    +0.000 OA
ATOM      2  C   UNL     1       2.096   3.181  18.277  0.00  0.00    +0.000 C 
ATOM      3  C   UNL     1       1.769   2.076  19.264  0.00  0.00    +0.000 C 
ATOM      4  O   UNL     1       2.490   2.197  20.481  0.00  0.00    +0.000 OA
ATOM      5  C   UNL     1       3.906   2.235  20.276  0.00  0.00    +0.000 C 
ATOM      6  C   UNL     1       4.305   3.331  19.310  0.00  0.00    +0.000 C 
ATOM      7  C   UNL     1       3.441   3.792  18.384  0.00  0.00    +0.000 C 
ATOM      8  C   UNL     1       3.825   4.883  17.428  0.00  0.00    +0.000 C 
ATOM      9  C   UNL     1       5.328   4.842  17.224  0.00  0.00    +0.000 C 
ATOM     10  C   UNL     1       6.090   5.627  16.442  0.00  0.00    +0.000 C 
ATOM     11  C   UNL     1       6.357   7.023  16.964  0.00  0.00    +0.000 C 
ATOM     12  O   UNL     1       6.916   6.997  18.285  0.00  0.00    +0.000 OA
ATOM     13  C   UNL     1       7.136   5.691  18.845  0.00  0.00    +0.000 C 
ATOM     14  C   UNL     1       5.980   4.722  18.578  0.00  0.00    +0.000 C 
ATOM     15  N   UNL     1       5.529   3.949  19.528  0.00  0.00    +0.000 NA
ENDROOT
BRANCH   8  16
ATOM     16  C   UNL     1       3.271   6.241  17.867  0.00  0.00    +0.000 A 
ATOM     17  C   UNL     1       3.307   7.375  17.029  0.00  0.00    +0.000 A 
ATOM     18  C   UNL     1       2.746   8.587  17.429  0.00  0.00    +0.000 A 
ATOM     19  C   UNL     1       2.169   8.693  18.685  0.00  0.00    +0.000 A 
ATOM     20  F   UNL     1       1.634   9.864  19.054  0.00  0.00    +0.000 F 
ATOM     21  C   UNL     1       2.144   7.593  19.545  0.00  0.00    +0.000 A 
ATOM     22 BR   UNL     1       1.365   7.734  21.261  0.00  0.00    +0.000 Br
ATOM     23  C   UNL     1       2.692   6.372  19.140  0.00  0.00    +0.000 A 
ENDBRANCH   8  16
BRANCH  10  24
ATOM     24  O   UNL     1       7.242   5.026  15.904  0.00  0.00    +0.000 OA
ATOM     25  H   UNL     1       7.122   4.057  15.879  0.00  0.00    +0.000 HD
ENDBRANCH  10  24
TORSDOF 2
ENDMDL
MODEL 3
REMARK VINA RESULT:      -7.5      3.209      4.990
REMARK  Name = 
REMARK  2 active torsions:
REMARK  status: ('A' for Active; 'I' for Inactive)
REMARK    1  A    between atoms: C_8  and  C_9
REMARK    2  A    between atoms: C_18  and  O_19
REMARK                            x       y       z     vdW  Elec       q    Type
REMARK                         _______ _______ _______ _____ _____    ______ ____
ROOT
ATOM      1  O   UNL     1       7.000   5.820  20.089  0.00  0.00    +0.000 OA
ATOM      2  C   UNL     1       6.928   5.704  18.868  0.00  0.00    +0.000 C 
ATOM      3  C   UNL     1       7.917   6.356  17.921  0.00  0.00    +0.000 C 
ATOM      4  O   UNL     1       7.374   6.579  16.628  0.00  0.00    +0.000 OA
ATOM      5  C   UNL     1       6.878   5.377  16.029  0.00  0.00    +0.000 C 
ATOM      6  C   UNL     1       5.869   4.681  16.918  0.00  0.00    +0.000 C 
ATOM      7  C   UNL     1       5.880   4.856  18.254  0.00  0.00    +0.000 C 
ATOM      8  C   UNL     1       4.878   4.176  19.142  0.00  0.00    +0.000 C 
ATOM      9  C   UNL     1       4.425   2.894  18.469  0.00  0.00    +0.000 C 
ATOM     10  C   UNL     1       3.551   1.975  18.916  0.00  0.00    +0.000 C 
ATOM     11  C   UNL     1       2.089   2.354  18.826  0.00  0.00    +0.000 C 
ATOM     12  O   UNL     1       1.722   2.737  17.493  0.00  0.00    +0.000 OA
ATOM     13  C   UNL     1       2.771   2.671  16.512  0.00  0.00    +0.000 C 
ATOM     14  C   UNL     1       4.110   3.209  17.029  0.00  0.00    +0.000 C 
ATOM     15  N   UNL     1       4.840   3.996  16.287  0.00  0.00    +0.000 NA
ENDROOT
BRANCH   8  16
ATOM     16  C   UNL     1       3.748   5.124  19.549  0.00  0.00    +0.000 A 
ATOM     17  C   UNL     1       2.967   4.911  20.705  0.00  0.00    +0.000 A 
ATOM     18  C   UNL     1       1.979   5.819  21.086  0.00  0.00    +0.000 A 
ATOM     19  C   UNL     1       1.735   6.936  20.302  0.00  0.00    +0.000 A 
ATOM     20  F   UNL     1       0.784   7.797  20.682  0.00  0.00    +0.000 F 
ATOM     21  C   UNL     1       2.476   7.155  19.138  0.00  0.00    +0.000 A 
ATOM     22 BR   UNL     1       2.143   8.672  18.061  0.00  0.00    +0.000 Br
ATOM     23  C   UNL     1       3.478   6.256  18.762  0.00  0.00    +0.000 A 
ENDBRANCH   8  16
BRANCH  10  24
ATOM     24  O   UNL     1       3.788   0.651  18.508  0.00  0.00    +0.000 OA
ATOM     25  H   UNL     1       3.401   0.035  19.160  0.00  0.00    +0.000 HD
ENDBRANCH  10  24
TORSDOF 2
ENDMDL
MODEL 4
REMARK VINA RESULT:      -7.4      3.361      5.182
REMARK  Name = 
REMARK  2 active torsions:
REMARK  status: ('A' for Active; 'I' for Inactive)
REMARK    1  A    between atoms: C_8  and  C_9
REMARK    2  A    between atoms: C_18  and  O_19
REMARK                            x       y       z     vdW  Elec       q    Type
REMARK                         _______ _______ _______ _____ _____    ______ ____
ROOT
ATOM      1  O   UNL     1       6.696   6.415  18.596  0.00  0.00    +0.000 OA
ATOM      2  C   UNL     1       6.302   5.587  17.779  0.00  0.00    +0.000 C 
ATOM      3  C   UNL     1       7.076   5.239  16.523  0.00  0.00    +0.000 C 
ATOM      4  O   UNL     1       6.245   4.734  15.488  0.00  0.00    +0.000 OA
ATOM      5  C   UNL     1       5.490   3.591  15.902  0.00  0.00    +0.000 C 
ATOM      6  C   UNL     1       4.677   3.875  17.147  0.00  0.00    +0.000 C 
ATOM      7  C   UNL     1       5.049   4.834  18.018  0.00  0.00    +0.000 C 
ATOM      8  C   UNL     1       4.245   5.127  19.251  0.00  0.00    +0.000 C 
ATOM      9  C   UNL     1       3.503   3.867  19.658  0.00  0.00    +0.000 C 
ATOM     10  C   UNL     1       2.683   3.678  20.707  0.00  0.00    +0.000 C 
ATOM     11  C   UNL     1       1.294   4.264  20.575  0.00  0.00    +0.000 C 
ATOM     12  O   UNL     1       0.639   3.810  19.382  0.00  0.00    +0.000 OA
ATOM     13  C   UNL     1       1.388   2.892  18.567  0.00  0.00    +0.000 C 
ATOM     14  C   UNL     1       2.863   3.283  18.425  0.00  0.00    +0.000 C 
ATOM     15  N   UNL     1       3.456   3.227  17.264  0.00  0.00    +0.000 NA
ENDROOT
BRANCH   8  16
ATOM     16  C   UNL     1       3.361   6.363  19.069  0.00  0.00    +0.000 A 
ATOM     17  C   UNL     1       3.205   7.000  17.820  0.00  0.00    +0.000 A 
ATOM     18  C   UNL     1       2.351   8.090  17.666  0.00  0.00    +0.000 A 
ATOM     19  C   UNL     1       1.663   8.582  18.764  0.00  0.00    +0.000 A 
ATOM     20  F   UNL     1       0.846   9.630  18.599  0.00  0.00    +0.000 F 
ATOM     21  C   UNL     1       1.820   7.987  20.018  0.00  0.00    +0.000 A 
ATOM     22 BR   UNL     1       0.890   8.657  21.520  0.00  0.00    +0.000 Br
ATOM     23  C   UNL     1       2.663   6.883  20.172  0.00  0.00    +0.000 A 
ENDBRANCH   8  16
BRANCH  10  24
ATOM     24  O   UNL     1       2.669   2.381  21.250  0.00  0.00    +0.000 OA
ATOM     25  H   UNL     1       1.747   2.109  21.420  0.00  0.00    +0.000 HD
ENDBRANCH  10  24
TORSDOF 2
ENDMDL
MODEL 5
REMARK VINA RESULT:      -7.3      3.408      5.215
REMARK  Name = 
REMARK  2 active torsions:
REMARK  status: ('A' for Active; 'I' for Inactive)
REMARK    1  A    between atoms: C_8  and  C_9
REMARK    2  A    between atoms: C_18  and  O_19
REMARK                            x       y       z     vdW  Elec       q    Type
REMARK                         _______ _______ _______ _____ _____    ______ ____
ROOT
ATOM      1  O   UNL     1       6.753   5.957  19.928  0.00  0.00    +0.000 OA
ATOM      2  C   UNL     1       6.725   5.422  18.823  0.00  0.00    +0.000 C 
ATOM      3  C   UNL     1       7.932   5.367  17.906  0.00  0.00    +0.000 C 
ATOM      4  O   UNL     1       7.575   5.238  16.537  0.00  0.00    +0.000 OA
ATOM      5  C   UNL     1       6.751   4.094  16.292  0.00  0.00    +0.000 C 
ATOM      6  C   UNL     1       5.515   4.094  17.166  0.00  0.00    +0.000 C 
ATOM      7  C   UNL     1       5.498   4.742  18.348  0.00  0.00    +0.000 C 
ATOM      8  C   UNL     1       4.274   4.754  19.217  0.00  0.00    +0.000 C 
ATOM      9  C   UNL     1       3.468   3.498  18.937  0.00  0.00    +0.000 C 
ATOM     10  C   UNL     1       2.314   3.100  19.500  0.00  0.00    +0.000 C 
ATOM     11  C   UNL     1       1.066   3.815  19.030  0.00  0.00    +0.000 C 
ATOM     12  O   UNL     1       0.932   3.764  17.603  0.00  0.00    +0.000 OA
ATOM     13  C   UNL     1       1.961   3.044  16.903  0.00  0.00    +0.000 C 
ATOM     14  C   UNL     1       3.366   3.332  17.443  0.00  0.00    +0.000 C 
ATOM     15  N   UNL     1       4.361   3.545  16.625  0.00  0.00    +0.000 NA
ENDROOT
BRANCH   8  16
ATOM     16  C   UNL     1       3.494   6.063  19.078  0.00  0.00    +0.000 A 
ATOM     17  C   UNL     1       3.516   6.830  17.895  0.00  0.00    +0.000 A 
ATOM     18  C   UNL     1       2.753   7.991  17.772  0.00  0.00    +0.000 A 
ATOM     19  C   UNL     1       1.981   8.419  18.840  0.00  0.00    +0.000 A 
ATOM     20  F   UNL     1       1.254   9.535  18.705  0.00  0.00    +0.000 F 
ATOM     21  C   UNL     1       1.962   7.693  20.032  0.00  0.00    +0.000 A 
ATOM     22 BR   UNL     1       0.916   8.276  21.494  0.00  0.00    +0.000 Br
ATOM     23  C   UNL     1       2.713   6.520  20.153  0.00  0.00    +0.000 A 
ENDBRANCH   8  16
BRANCH  10  24
ATOM     24  O   UNL     1       2.128   1.710  19.604  0.00  0.00    +0.000 OA
ATOM     25  H   UNL     1       2.316   1.423  20.519  0.00  0.00    +0.000 HD
ENDBRANCH  10  24
TORSDOF 2
ENDMDL
MODEL 6
REMARK VINA RESULT:      -7.2      1.127      1.486
REMARK  Name = 
REMARK  2 active torsions:
REMARK  status: ('A' for Active; 'I' for Inactive)
REMARK    1  A    between atoms: C_8  and  C_9
REMARK    2  A    between atoms: C_18  and  O_19
REMARK                            x       y       z     vdW  Elec       q    Type
REMARK                         _______ _______ _______ _____ _____    ______ ____
ROOT
ATOM      1  O   UNL     1       2.214   7.688  17.017  0.00  0.00    +0.000 OA
ATOM      2  C   UNL     1       2.102   7.561  18.234  0.00  0.00    +0.000 C 
ATOM      3  C   UNL     1       1.802   8.727  19.157  0.00  0.00    +0.000 C 
ATOM      4  O   UNL     1       2.257   8.507  20.484  0.00  0.00    +0.000 OA
ATOM      5  C   UNL     1       1.719   7.309  21.055  0.00  0.00    +0.000 C 
ATOM      6  C   UNL     1       1.998   6.099  20.189  0.00  0.00    +0.000 C 
ATOM      7  C   UNL     1       2.202   6.224  18.863  0.00  0.00    +0.000 C 
ATOM      8  C   UNL     1       2.487   5.030  17.998  0.00  0.00    +0.000 C 
ATOM      9  C   UNL     1       1.856   3.807  18.637  0.00  0.00    +0.000 C 
ATOM     10  C   UNL     1       1.854   2.537  18.195  0.00  0.00    +0.000 C 
ATOM     11  C   UNL     1       3.147   1.771  18.376  0.00  0.00    +0.000 C 
ATOM     12  O   UNL     1       3.588   1.789  19.741  0.00  0.00    +0.000 OA
ATOM     13  C   UNL     1       2.737   2.489  20.664  0.00  0.00    +0.000 C 
ATOM     14  C   UNL     1       2.206   3.814  20.103  0.00  0.00    +0.000 C 
ATOM     15  N   UNL     1       2.197   4.890  20.841  0.00  0.00    +0.000 NA
ENDROOT
BRANCH   8  16
ATOM     16  C   UNL     1       3.980   4.898  17.690  0.00  0.00    +0.000 A 
ATOM     17  C   UNL     1       4.454   4.433  16.445  0.00  0.00    +0.000 A 
ATOM     18  C   UNL     1       5.818   4.375  16.167  0.00  0.00    +0.000 A 
ATOM     19  C   UNL     1       6.732   4.751  17.140  0.00  0.00    +0.000 A 
ATOM     20  F   UNL     1       8.039   4.689  16.857  0.00  0.00    +0.000 F 
ATOM     21  C   UNL     1       6.290   5.189  18.390  0.00  0.00    +0.000 A 
ATOM     22 BR   UNL     1       7.531   5.695  19.722  0.00  0.00    +0.000 Br
ATOM     23  C   UNL     1       4.922   5.264  18.666  0.00  0.00    +0.000 A 
ENDBRANCH   8  16
BRANCH  10  24
ATOM     24  O   UNL     1       0.725   1.770  18.533  0.00  0.00    +0.000 OA
ATOM     25  H   UNL     1       0.971   0.826  18.570  0.00  0.00    +0.000 HD
ENDBRANCH  10  24
TORSDOF 2
ENDMDL
MODEL 7
REMARK VINA RESULT:      -6.9      1.362      1.658
REMARK  Name = 
REMARK  2 active torsions:
REMARK  status: ('A' for Active; 'I' for Inactive)
REMARK    1  A    between atoms: C_8  and  C_9
REMARK    2  A    between atoms: C_18  and  O_19
REMARK                            x       y       z     vdW  Elec       q    Type
REMARK                         _______ _______ _______ _____ _____    ______ ____
ROOT
ATOM      1  O   UNL     1       1.856   8.519  17.323  0.00  0.00    +0.000 OA
ATOM      2  C   UNL     1       1.782   8.194  18.505  0.00  0.00    +0.000 C 
ATOM      3  C   UNL     1       1.314   9.145  19.590  0.00  0.00    +0.000 C 
ATOM      4  O   UNL     1       1.817   8.803  20.873  0.00  0.00    +0.000 OA
ATOM      5  C   UNL     1       1.483   7.463  21.251  0.00  0.00    +0.000 C 
ATOM      6  C   UNL     1       1.938   6.457  20.216  0.00  0.00    +0.000 C 
ATOM      7  C   UNL     1       2.101   6.811  18.926  0.00  0.00    +0.000 C 
ATOM      8  C   UNL     1       2.559   5.821  17.893  0.00  0.00    +0.000 C 
ATOM      9  C   UNL     1       2.140   4.431  18.335  0.00  0.00    +0.000 C 
ATOM     10  C   UNL     1       2.332   3.258  17.706  0.00  0.00    +0.000 C 
ATOM     11  C   UNL     1       3.732   2.688  17.782  0.00  0.00    +0.000 C 
ATOM     12  O   UNL     1       4.184   2.571  19.139  0.00  0.00    +0.000 OA
ATOM     13  C   UNL     1       3.245   2.980  20.148  0.00  0.00    +0.000 C 
ATOM     14  C   UNL     1       2.504   4.272  19.788  0.00  0.00    +0.000 C 
ATOM     15  N   UNL     1       2.335   5.211  20.680  0.00  0.00    +0.000 NA
ENDROOT
BRANCH   8  16
ATOM     16  C   UNL     1       4.050   5.976  17.584  0.00  0.00    +0.000 A 
ATOM     17  C   UNL     1       4.519   6.360  16.310  0.00  0.00    +0.000 A 
ATOM     18  C   UNL     1       5.878   6.549  16.068  0.00  0.00    +0.000 A 
ATOM     19  C   UNL     1       6.794   6.327  17.085  0.00  0.00    +0.000 A 
ATOM     20  F   UNL     1       8.095   6.513  16.835  0.00  0.00    +0.000 F 
ATOM     21  C   UNL     1       6.358   5.920  18.348  0.00  0.00    +0.000 A 
ATOM     22 BR   UNL     1       7.601   5.608  19.736  0.00  0.00    +0.000 Br
ATOM     23  C   UNL     1       4.994   5.745  18.599  0.00  0.00    +0.000 A 
ENDBRANCH   8  16
BRANCH  10  24
ATOM     24  O   UNL     1       1.343   2.280  17.913  0.00  0.00    +0.000 OA
ATOM     25  H   UNL     1       0.469   2.711  17.982  0.00  0.00    +0.000 HD
ENDBRANCH  10  24
TORSDOF 2
ENDMDL
MODEL 8
REMARK VINA RESULT:      -6.9      3.301      4.820
REMARK  Name = 
REMARK  2 active torsions:
REMARK  status: ('A' for Active; 'I' for Inactive)
REMARK    1  A    between atoms: C_8  and  C_9
REMARK    2  A    between atoms: C_18  and  O_19
REMARK                            x       y       z     vdW  Elec       q    Type
REMARK                         _______ _______ _______ _____ _____    ______ ____
ROOT
ATOM      1  O   UNL     1       1.496   7.827  21.226  0.00  0.00    +0.000 OA
ATOM      2  C   UNL     1       1.584   8.316  20.103  0.00  0.00    +0.000 C 
ATOM      3  C   UNL     1       0.813   9.553  19.683  0.00  0.00    +0.000 C 
ATOM      4  O   UNL     1       0.607   9.621  18.279  0.00  0.00    +0.000 OA
ATOM      5  C   UNL     1       1.833   9.564  17.544  0.00  0.00    +0.000 C 
ATOM      6  C   UNL     1       2.648   8.340  17.904  0.00  0.00    +0.000 C 
ATOM      7  C   UNL     1       2.511   7.739  19.102  0.00  0.00    +0.000 C 
ATOM      8  C   UNL     1       3.310   6.521  19.464  0.00  0.00    +0.000 C 
ATOM      9  C   UNL     1       4.610   6.544  18.682  0.00  0.00    +0.000 C 
ATOM     10  C   UNL     1       5.621   5.657  18.710  0.00  0.00    +0.000 C 
ATOM     11  C   UNL     1       5.383   4.357  17.973  0.00  0.00    +0.000 C 
ATOM     12  O   UNL     1       4.999   4.585  16.609  0.00  0.00    +0.000 OA
ATOM     13  C   UNL     1       4.936   5.961  16.198  0.00  0.00    +0.000 C 
ATOM     14  C   UNL     1       4.286   6.870  17.247  0.00  0.00    +0.000 C 
ATOM     15  N   UNL     1       3.412   7.772  16.893  0.00  0.00    +0.000 NA
ENDROOT
BRANCH   8  16
ATOM     16  C   UNL     1       2.487   5.239  19.309  0.00  0.00    +0.000 A 
ATOM     17  C   UNL     1       1.939   4.842  18.072  0.00  0.00    +0.000 A 
ATOM     18  C   UNL     1       1.242   3.641  17.943  0.00  0.00    +0.000 A 
ATOM     19  C   UNL     1       1.054   2.835  19.055  0.00  0.00    +0.000 A 
ATOM     20  F   UNL     1       0.382   1.686  18.914  0.00  0.00    +0.000 F 
ATOM     21  C   UNL     1       1.563   3.219  20.298  0.00  0.00    +0.000 A 
ATOM     22 BR   UNL     1       1.303   2.128  21.819  0.00  0.00    +0.000 Br
ATOM     23  C   UNL     1       2.276   4.414  20.427  0.00  0.00    +0.000 A 
ENDBRANCH   8  16
BRANCH  10  24
ATOM     24  O   UNL     1       6.904   6.181  18.474  0.00  0.00    +0.000 OA
ATOM     25  H   UNL     1       6.830   6.999  17.945  0.00  0.00    +0.000 HD
ENDBRANCH  10  24
TORSDOF 2
ENDMDL
MODEL 9
REMARK VINA RESULT:      -6.8      3.098      5.467
REMARK  Name = 
REMARK  2 active torsions:
REMARK  status: ('A' for Active; 'I' for Inactive)
REMARK    1  A    between atoms: C_8  and  C_9
REMARK    2  A    between atoms: C_18  and  O_19
REMARK                            x       y       z     vdW  Elec       q    Type
REMARK                         _______ _______ _______ _____ _____    ______ ____
ROOT
ATOM      1  O   UNL     1       0.776   3.505  17.657  0.00  0.00    +0.000 OA
ATOM      2  C   UNL     1       1.752   3.024  18.227  0.00  0.00    +0.000 C 
ATOM      3  C   UNL     1       1.711   1.684  18.936  0.00  0.00    +0.000 C 
ATOM      4  O   UNL     1       2.690   1.573  19.959  0.00  0.00    +0.000 OA
ATOM      5  C   UNL     1       4.016   1.803  19.473  0.00  0.00    +0.000 C 
ATOM      6  C   UNL     1       4.132   3.137  18.766  0.00  0.00    +0.000 C 
ATOM      7  C   UNL     1       3.058   3.722  18.201  0.00  0.00    +0.000 C 
ATOM      8  C   UNL     1       3.163   5.048  17.504  0.00  0.00    +0.000 C 
ATOM      9  C   UNL     1       4.578   5.210  16.980  0.00  0.00    +0.000 C 
ATOM     10  C   UNL     1       5.103   6.235  16.287  0.00  0.00    +0.000 C 
ATOM     11  C   UNL     1       5.425   7.479  17.086  0.00  0.00    +0.000 C 
ATOM     12  O   UNL     1       6.277   7.186  18.203  0.00  0.00    +0.000 OA
ATOM     13  C   UNL     1       6.676   5.811  18.341  0.00  0.00    +0.000 C 
ATOM     14  C   UNL     1       5.531   4.826  18.083  0.00  0.00    +0.000 C 
ATOM     15  N   UNL     1       5.346   3.802  18.871  0.00  0.00    +0.000 NA
ENDROOT
BRANCH   8  16
ATOM     16  C   UNL     1       2.670   6.193  18.392  0.00  0.00    +0.000 A 
ATOM     17  C   UNL     1       2.461   6.035  19.778  0.00  0.00    +0.000 A 
ATOM     18  C   UNL     1       2.066   7.107  20.576  0.00  0.00    +0.000 A 
ATOM     19  C   UNL     1       1.843   8.347  19.997  0.00  0.00    +0.000 A 
ATOM     20  F   UNL     1       1.464   9.366  20.777  0.00  0.00    +0.000 F 
ATOM     21  C   UNL     1       2.017   8.524  18.622  0.00  0.00    +0.000 A 
ATOM     22 BR   UNL     1       1.708  10.209  17.826  0.00  0.00    +0.000 Br
ATOM     23  C   UNL     1       2.429   7.455  17.822  0.00  0.00    +0.000 A 
ENDBRANCH   8  16
BRANCH  10  24
ATOM     24  O   UNL     1       6.122   5.903  15.377  0.00  0.00    +0.000 OA
ATOM     25  H   UNL     1       5.915   6.285  14.502  0.00  0.00    +0.000 HD
ENDBRANCH  10  24
TORSDOF 2
ENDMDL
