MODEL 1
REMARK VINA RESULT:      -9.5      0.000      0.000
REMARK  Name = 
REMARK  8 active torsions:
REMARK  status: ('A' for Active; 'I' for Inactive)
REMARK    1  A    between atoms: C_1  and  C_2
REMARK    2  A    between atoms: C_6  and  C_7
REMARK    3  A    between atoms: N_9  and  C_10
REMARK    4  A    between atoms: C_10  and  C_11
REMARK    5  A    between atoms: C_14  and  C_15
REMARK    6  A    between atoms: C_23  and  C_24
REMARK    7  A    between atoms: C_24  and  N_25
REMARK    8  A    between atoms: N_28  and  C_29
REMARK                            x       y       z     vdW  Elec       q    Type
REMARK                         _______ _______ _______ _____ _____    ______ ____
ROOT
ATOM      1  C   UNL     1       2.042   8.559  18.662  0.00  0.00    +0.000 A 
ATOM      2  N   UNL     1       2.191   9.206  17.479  0.00  0.00    +0.000 NA
ATOM      3  N   UNL     1       1.593  10.387  17.626  0.00  0.00    +0.000 N 
ATOM      4  C   UNL     1       1.264  10.618  18.903  0.00  0.00    +0.000 A 
ATOM      5  C   UNL     1       1.178   9.369  19.489  0.00  0.00    +0.000 A 
ATOM      6  C   UNL     1       0.077   9.383  20.548  0.00  0.00    +0.000 C 
ATOM      7  C   UNL     1      -0.460  10.861  20.334  0.00  0.00    +0.000 A 
ATOM      8  C   UNL     1      -1.609  11.517  20.797  0.00  0.00    +0.000 A 
ATOM      9  C   UNL     1      -1.855  12.880  20.417  0.00  0.00    +0.000 A 
ATOM     10  C   UNL     1      -0.898  13.574  19.643  0.00  0.00    +0.000 A 
ATOM     11  C   UNL     1       0.217  12.913  19.135  0.00  0.00    +0.000 A 
ATOM     12  C   UNL     1       0.366  11.573  19.449  0.00  0.00    +0.000 A 
ATOM     13  H   UNL     1       1.329  10.916  16.799  0.00  0.00    +0.000 HD
ENDROOT
BRANCH   1  17
ATOM     14  C   UNL     1       3.929   4.953  18.463  0.00  0.00    +0.000 A 
ATOM     15  C   UNL     1       3.005   4.982  19.485  0.00  0.00    +0.000 A 
ATOM     16  C   UNL     1       2.374   6.244  19.610  0.00  0.00    +0.000 A 
ATOM     17  C   UNL     1       2.804   7.212  18.706  0.00  0.00    +0.000 A 
ATOM     18  S   UNL     1       4.038   6.533  17.714  0.00  0.00    +0.000 S 
BRANCH  14  19
ATOM     19  C   UNL     1       4.670   3.705  18.013  0.00  0.00    +0.000 C 
BRANCH  19  22
ATOM     20  C   UNL     1       6.268   4.257  16.198  0.00  0.00    +0.000 C 
ATOM     21  O   UNL     1       7.124   4.697  16.965  0.00  0.00    +0.000 OA
ATOM     22  N   UNL     1       5.038   3.781  16.608  0.00  0.00    +0.000 N 
ATOM     23  H   UNL     1       4.292   3.630  15.926  0.00  0.00    +0.000 HD
BRANCH  20  29
ATOM     24  C   UNL     1       5.018   2.755  11.519  0.00  0.00    +0.000 C 
ATOM     25  C   UNL     1       5.911   3.522  12.443  0.00  0.00    +0.000 A 
ATOM     26  C   UNL     1       6.986   4.262  11.925  0.00  0.00    +0.000 A 
ATOM     27  C   UNL     1       7.813   4.990  12.783  0.00  0.00    +0.000 A 
ATOM     28  C   UNL     1       7.593   4.986  14.158  0.00  0.00    +0.000 A 
ATOM     29  C   UNL     1       6.538   4.242  14.709  0.00  0.00    +0.000 A 
ATOM     30  C   UNL     1       5.692   3.525  13.843  0.00  0.00    +0.000 A 
ENDBRANCH  20  29
ENDBRANCH  19  22
ENDBRANCH  14  19
ENDBRANCH   1  17
BRANCH   9  31
ATOM     31  C   UNL     1      -3.152  13.627  20.743  0.00  0.00    +0.000 C 
BRANCH  31  32
ATOM     32  N   UNL     1      -4.045  12.950  21.699  0.00  0.00    +0.000 NA
ATOM     33  C   UNL     1      -5.458  13.117  21.317  0.00  0.00    +0.000 C 
ATOM     34  C   UNL     1      -6.443  12.514  22.345  0.00  0.00    +0.000 C 
ATOM     35  N   UNL     1      -6.270  12.979  23.735  0.00  0.00    +0.000 NA
ATOM     36  C   UNL     1      -6.787  14.331  23.929  0.00  0.00    +0.000 C 
ATOM     37  C   UNL     1      -4.846  12.868  24.105  0.00  0.00    +0.000 C 
ATOM     38  C   UNL     1      -3.851  13.469  23.074  0.00  0.00    +0.000 C 
ENDBRANCH  31  32
ENDBRANCH   9  31
TORSDOF 6
ENDMDL
MODEL 2
REMARK VINA RESULT:      -8.9      1.157      1.662
REMARK  Name = 
REMARK  8 active torsions:
REMARK  status: ('A' for Active; 'I' for Inactive)
REMARK    1  A    between atoms: C_1  and  C_2
REMARK    2  A    between atoms: C_6  and  C_7
REMARK    3  A    between atoms: N_9  and  C_10
REMARK    4  A    between atoms: C_10  and  C_11
REMARK    5  A    between atoms: C_14  and  C_15
REMARK    6  A    between atoms: C_23  and  C_24
REMARK    7  A    between atoms: C_24  and  N_25
REMARK    8  A    between atoms: N_28  and  C_29
REMARK                            x       y       z     vdW  Elec       q    Type
REMARK                         _______ _______ _______ _____ _____    ______ ____
ROOT
ATOM      1  C   UNL     1       1.966   8.589  18.906  0.00  0.00    +0.000 A 
ATOM      2  N   UNL     1       1.995   9.218  17.705  0.00  0.00    +0.000 NA
ATOM      3  N   UNL     1       1.393  10.391  17.886  0.00  0.00    +0.000 N 
ATOM      4  C   UNL     1       1.176  10.639  19.184  0.00  0.00    +0.000 A 
ATOM      5  C   UNL     1       1.165   9.398  19.795  0.00  0.00    +0.000 A 
ATOM      6  C   UNL     1       0.164   9.413  20.949  0.00  0.00    +0.000 C 
ATOM      7  C   UNL     1      -0.417  10.878  20.760  0.00  0.00    +0.000 A 
ATOM      8  C   UNL     1      -1.531  11.523  21.315  0.00  0.00    +0.000 A 
ATOM      9  C   UNL     1      -1.834  12.876  20.938  0.00  0.00    +0.000 A 
ATOM     10  C   UNL     1      -0.962  13.571  20.070  0.00  0.00    +0.000 A 
ATOM     11  C   UNL     1       0.113  12.919  19.473  0.00  0.00    +0.000 A 
ATOM     12  C   UNL     1       0.313  11.588  19.794  0.00  0.00    +0.000 A 
ATOM     13  H   UNL     1       1.046  10.901  17.078  0.00  0.00    +0.000 HD
ENDROOT
BRANCH   1  17
ATOM     14  C   UNL     1       3.876   5.002  18.603  0.00  0.00    +0.000 A 
ATOM     15  C   UNL     1       3.100   5.065  19.740  0.00  0.00    +0.000 A 
ATOM     16  C   UNL     1       2.468   6.323  19.896  0.00  0.00    +0.000 A 
ATOM     17  C   UNL     1       2.752   7.255  18.901  0.00  0.00    +0.000 A 
ATOM     18  S   UNL     1       3.852   6.548  17.780  0.00  0.00    +0.000 S 
BRANCH  14  19
ATOM     19  C   UNL     1       4.573   3.746  18.109  0.00  0.00    +0.000 C 
BRANCH  19  22
ATOM     20  C   UNL     1       6.251   4.184  16.335  0.00  0.00    +0.000 C 
ATOM     21  O   UNL     1       7.154   4.439  17.130  0.00  0.00    +0.000 OA
ATOM     22  N   UNL     1       4.961   3.865  16.711  0.00  0.00    +0.000 N 
ATOM     23  H   UNL     1       4.207   3.872  16.022  0.00  0.00    +0.000 HD
BRANCH  20  29
ATOM     24  C   UNL     1       5.395   2.463  11.643  0.00  0.00    +0.000 C 
ATOM     25  C   UNL     1       6.092   3.403  12.575  0.00  0.00    +0.000 A 
ATOM     26  C   UNL     1       6.983   4.361  12.069  0.00  0.00    +0.000 A 
ATOM     27  C   UNL     1       7.624   5.250  12.934  0.00  0.00    +0.000 A 
ATOM     28  C   UNL     1       7.400   5.192  14.308  0.00  0.00    +0.000 A 
ATOM     29  C   UNL     1       6.529   4.233  14.848  0.00  0.00    +0.000 A 
ATOM     30  C   UNL     1       5.866   3.353  13.973  0.00  0.00    +0.000 A 
ENDBRANCH  20  29
ENDBRANCH  19  22
ENDBRANCH  14  19
ENDBRANCH   1  17
BRANCH   9  31
ATOM     31  C   UNL     1      -3.110  13.607  21.368  0.00  0.00    +0.000 C 
BRANCH  31  32
ATOM     32  N   UNL     1      -4.232  13.526  20.417  0.00  0.00    +0.000 NA
ATOM     33  C   UNL     1      -5.527  13.639  21.112  0.00  0.00    +0.000 C 
ATOM     34  C   UNL     1      -6.740  13.455  20.173  0.00  0.00    +0.000 C 
ATOM     35  N   UNL     1      -6.739  12.215  19.372  0.00  0.00    +0.000 NA
ATOM     36  C   UNL     1      -7.093  11.046  20.172  0.00  0.00    +0.000 C 
ATOM     37  C   UNL     1      -5.424  12.066  18.720  0.00  0.00    +0.000 C 
ATOM     38  C   UNL     1      -4.200  12.253  19.657  0.00  0.00    +0.000 C 
ENDBRANCH  31  32
ENDBRANCH   9  31
TORSDOF 6
ENDMDL
MODEL 3
REMARK VINA RESULT:      -8.9      1.596      2.174
REMARK  Name = 
REMARK  8 active torsions:
REMARK  status: ('A' for Active; 'I' for Inactive)
REMARK    1  A    between atoms: C_1  and  C_2
REMARK    2  A    between atoms: C_6  and  C_7
REMARK    3  A    between atoms: N_9  and  C_10
REMARK    4  A    between atoms: C_10  and  C_11
REMARK    5  A    between atoms: C_14  and  C_15
REMARK    6  A    between atoms: C_23  and  C_24
REMARK    7  A    between atoms: C_24  and  N_25
REMARK    8  A    between atoms: N_28  and  C_29
REMARK                            x       y       z     vdW  Elec       q    Type
REMARK                         _______ _______ _______ _____ _____    ______ ____
ROOT
ATOM      1  C   UNL     1       1.948   8.472  18.766  0.00  0.00    +0.000 A 
ATOM      2  N   UNL     1       1.752   8.942  17.509  0.00  0.00    +0.000 NA
ATOM      3  N   UNL     1       1.095  10.092  17.642  0.00  0.00    +0.000 N 
ATOM      4  C   UNL     1       1.053  10.493  18.919  0.00  0.00    +0.000 A 
ATOM      5  C   UNL     1       1.227   9.343  19.667  0.00  0.00    +0.000 A 
ATOM      6  C   UNL     1       0.409   9.449  20.952  0.00  0.00    +0.000 C 
ATOM      7  C   UNL     1      -0.304  10.842  20.684  0.00  0.00    +0.000 A 
ATOM      8  C   UNL     1      -1.370  11.488  21.325  0.00  0.00    +0.000 A 
ATOM      9  C   UNL     1      -1.828  12.761  20.841  0.00  0.00    +0.000 A 
ATOM     10  C   UNL     1      -1.149  13.387  19.771  0.00  0.00    +0.000 A 
ATOM     11  C   UNL     1      -0.127  12.727  19.096  0.00  0.00    +0.000 A 
ATOM     12  C   UNL     1       0.220  11.462  19.537  0.00  0.00    +0.000 A 
ATOM     13  H   UNL     1       0.595  10.473  16.842  0.00  0.00    +0.000 HD
ENDROOT
BRANCH   1  17
ATOM     14  C   UNL     1       4.138   5.044  18.539  0.00  0.00    +0.000 A 
ATOM     15  C   UNL     1       3.230   4.994  19.575  0.00  0.00    +0.000 A 
ATOM     16  C   UNL     1       2.494   6.196  19.709  0.00  0.00    +0.000 A 
ATOM     17  C   UNL     1       2.824   7.197  18.798  0.00  0.00    +0.000 A 
ATOM     18  S   UNL     1       4.098   6.626  17.789  0.00  0.00    +0.000 S 
BRANCH  14  19
ATOM     19  C   UNL     1       4.978   3.865  18.078  0.00  0.00    +0.000 C 
BRANCH  19  22
ATOM     20  C   UNL     1       6.528   4.312  16.193  0.00  0.00    +0.000 C 
ATOM     21  O   UNL     1       7.461   4.642  16.923  0.00  0.00    +0.000 OA
ATOM     22  N   UNL     1       5.279   3.947  16.657  0.00  0.00    +0.000 N 
ATOM     23  H   UNL     1       4.487   3.892  16.013  0.00  0.00    +0.000 HD
BRANCH  20  29
ATOM     24  C   UNL     1       5.127   2.739  11.581  0.00  0.00    +0.000 C 
ATOM     25  C   UNL     1       6.017   3.561  12.459  0.00  0.00    +0.000 A 
ATOM     26  C   UNL     1       7.012   4.369  11.888  0.00  0.00    +0.000 A 
ATOM     27  C   UNL     1       7.836   5.149  12.704  0.00  0.00    +0.000 A 
ATOM     28  C   UNL     1       7.691   5.128  14.089  0.00  0.00    +0.000 A 
ATOM     29  C   UNL     1       6.717   4.316  14.691  0.00  0.00    +0.000 A 
ATOM     30  C   UNL     1       5.873   3.548  13.868  0.00  0.00    +0.000 A 
ENDBRANCH  20  29
ENDBRANCH  19  22
ENDBRANCH  14  19
ENDBRANCH   1  17
BRANCH   9  31
ATOM     31  C   UNL     1      -3.078  13.467  21.374  0.00  0.00    +0.000 C 
BRANCH  31  32
ATOM     32  N   UNL     1      -2.853  14.367  22.519  0.00  0.00    +0.000 NA
ATOM     33  C   UNL     1      -2.698  15.763  22.074  0.00  0.00    +0.000 C 
ATOM     34  C   UNL     1      -2.353  16.734  23.226  0.00  0.00    +0.000 C 
ATOM     35  N   UNL     1      -1.178  16.362  24.039  0.00  0.00    +0.000 NA
ATOM     36  C   UNL     1       0.077  16.633  23.343  0.00  0.00    +0.000 C 
ATOM     37  C   UNL     1      -1.300  14.947  24.438  0.00  0.00    +0.000 C 
ATOM     38  C   UNL     1      -1.649  13.966  23.286  0.00  0.00    +0.000 C 
ENDBRANCH  31  32
ENDBRANCH   9  31
TORSDOF 6
ENDMDL
MODEL 4
REMARK VINA RESULT:      -8.9      1.511      1.897
REMARK  Name = 
REMARK  8 active torsions:
REMARK  status: ('A' for Active; 'I' for Inactive)
REMARK    1  A    between atoms: C_1  and  C_2
REMARK    2  A    between atoms: C_6  and  C_7
REMARK    3  A    between atoms: N_9  and  C_10
REMARK    4  A    between atoms: C_10  and  C_11
REMARK    5  A    between atoms: C_14  and  C_15
REMARK    6  A    between atoms: C_23  and  C_24
REMARK    7  A    between atoms: C_24  and  N_25
REMARK    8  A    between atoms: N_28  and  C_29
REMARK                            x       y       z     vdW  Elec       q    Type
REMARK                         _______ _______ _______ _____ _____    ______ ____
ROOT
ATOM      1  C   UNL     1       1.840   8.351  18.918  0.00  0.00    +0.000 A 
ATOM      2  N   UNL     1       1.611   8.826  17.668  0.00  0.00    +0.000 NA
ATOM      3  N   UNL     1       0.960   9.977  17.824  0.00  0.00    +0.000 N 
ATOM      4  C   UNL     1       0.954  10.372  19.103  0.00  0.00    +0.000 A 
ATOM      5  C   UNL     1       1.147   9.219  19.842  0.00  0.00    +0.000 A 
ATOM      6  C   UNL     1       0.365   9.321  21.150  0.00  0.00    +0.000 C 
ATOM      7  C   UNL     1      -0.353  10.717  20.906  0.00  0.00    +0.000 A 
ATOM      8  C   UNL     1      -1.400  11.362  21.579  0.00  0.00    +0.000 A 
ATOM      9  C   UNL     1      -1.868  12.638  21.113  0.00  0.00    +0.000 A 
ATOM     10  C   UNL     1      -1.219  13.267  20.028  0.00  0.00    +0.000 A 
ATOM     11  C   UNL     1      -0.216  12.608  19.322  0.00  0.00    +0.000 A 
ATOM     12  C   UNL     1       0.140  11.341  19.749  0.00  0.00    +0.000 A 
ATOM     13  H   UNL     1       0.439  10.362  17.040  0.00  0.00    +0.000 HD
ENDROOT
BRANCH   1  17
ATOM     14  C   UNL     1       3.985   4.898  18.637  0.00  0.00    +0.000 A 
ATOM     15  C   UNL     1       3.224   4.926  19.786  0.00  0.00    +0.000 A 
ATOM     16  C   UNL     1       2.510   6.140  19.934  0.00  0.00    +0.000 A 
ATOM     17  C   UNL     1       2.715   7.074  18.921  0.00  0.00    +0.000 A 
ATOM     18  S   UNL     1       3.843   6.426  17.792  0.00  0.00    +0.000 S 
BRANCH  14  19
ATOM     19  C   UNL     1       4.758   3.684  18.150  0.00  0.00    +0.000 C 
BRANCH  19  22
ATOM     20  C   UNL     1       6.333   4.262  16.323  0.00  0.00    +0.000 C 
ATOM     21  O   UNL     1       7.213   4.657  17.087  0.00  0.00    +0.000 OA
ATOM     22  N   UNL     1       5.100   3.799  16.741  0.00  0.00    +0.000 N 
ATOM     23  H   UNL     1       4.338   3.688  16.070  0.00  0.00    +0.000 HD
BRANCH  20  29
ATOM     24  C   UNL     1       5.013   2.869  11.630  0.00  0.00    +0.000 C 
ATOM     25  C   UNL     1       5.913   3.624  12.557  0.00  0.00    +0.000 A 
ATOM     26  C   UNL     1       6.966   4.394  12.039  0.00  0.00    +0.000 A 
ATOM     27  C   UNL     1       7.800   5.111  12.900  0.00  0.00    +0.000 A 
ATOM     28  C   UNL     1       7.607   5.066  14.279  0.00  0.00    +0.000 A 
ATOM     29  C   UNL     1       6.574   4.291  14.829  0.00  0.00    +0.000 A 
ATOM     30  C   UNL     1       5.721   3.586  13.960  0.00  0.00    +0.000 A 
ENDBRANCH  20  29
ENDBRANCH  19  22
ENDBRANCH  14  19
ENDBRANCH   1  17
BRANCH   9  31
ATOM     31  C   UNL     1      -3.102  13.344  21.684  0.00  0.00    +0.000 C 
BRANCH  31  32
ATOM     32  N   UNL     1      -2.916  14.768  22.014  0.00  0.00    +0.000 NA
ATOM     33  C   UNL     1      -2.221  14.927  23.304  0.00  0.00    +0.000 C 
ATOM     34  C   UNL     1      -2.094  16.402  23.748  0.00  0.00    +0.000 C 
ATOM     35  N   UNL     1      -3.358  17.162  23.793  0.00  0.00    +0.000 NA
ATOM     36  C   UNL     1      -4.167  16.809  24.957  0.00  0.00    +0.000 C 
ATOM     37  C   UNL     1      -4.086  16.959  22.527  0.00  0.00    +0.000 C 
ATOM     38  C   UNL     1      -4.215  15.479  22.072  0.00  0.00    +0.000 C 
ENDBRANCH  31  32
ENDBRANCH   9  31
TORSDOF 6
ENDMDL
MODEL 5
REMARK VINA RESULT:      -8.8      1.308      1.904
REMARK  Name = 
REMARK  8 active torsions:
REMARK  status: ('A' for Active; 'I' for Inactive)
REMARK    1  A    between atoms: C_1  and  C_2
REMARK    2  A    between atoms: C_6  and  C_7
REMARK    3  A    between atoms: N_9  and  C_10
REMARK    4  A    between atoms: C_10  and  C_11
REMARK    5  A    between atoms: C_14  and  C_15
REMARK    6  A    between atoms: C_23  and  C_24
REMARK    7  A    between atoms: C_24  and  N_25
REMARK    8  A    between atoms: N_28  and  C_29
REMARK                            x       y       z     vdW  Elec       q    Type
REMARK                         _______ _______ _______ _____ _____    ______ ____
ROOT
ATOM      1  C   UNL     1       1.755   7.853  19.483  0.00  0.00    +0.000 A 
ATOM      2  N   UNL     1       1.716   8.707  18.430  0.00  0.00    +0.000 NA
ATOM      3  N   UNL     1       1.292   9.872  18.915  0.00  0.00    +0.000 N 
ATOM      4  C   UNL     1       1.269   9.872  20.254  0.00  0.00    +0.000 A 
ATOM      5  C   UNL     1       1.177   8.540  20.615  0.00  0.00    +0.000 A 
ATOM      6  C   UNL     1       0.335   8.418  21.883  0.00  0.00    +0.000 C 
ATOM      7  C   UNL     1      -0.077   9.942  22.060  0.00  0.00    +0.000 A 
ATOM      8  C   UNL     1      -1.025  10.567  22.882  0.00  0.00    +0.000 A 
ATOM      9  C   UNL     1      -1.199  11.991  22.813  0.00  0.00    +0.000 A 
ATOM     10  C   UNL     1      -0.360  12.759  21.975  0.00  0.00    +0.000 A 
ATOM     11  C   UNL     1       0.544  12.139  21.117  0.00  0.00    +0.000 A 
ATOM     12  C   UNL     1       0.613  10.758  21.149  0.00  0.00    +0.000 A 
ATOM     13  H   UNL     1       0.916  10.568  18.276  0.00  0.00    +0.000 HD
ENDROOT
BRANCH   1  17
ATOM     14  C   UNL     1       3.616   4.400  18.382  0.00  0.00    +0.000 A 
ATOM     15  C   UNL     1       2.406   4.547  17.738  0.00  0.00    +0.000 A 
ATOM     16  C   UNL     1       1.714   5.714  18.145  0.00  0.00    +0.000 A 
ATOM     17  C   UNL     1       2.361   6.477  19.114  0.00  0.00    +0.000 A 
ATOM     18  S   UNL     1       3.837   5.697  19.538  0.00  0.00    +0.000 S 
BRANCH  14  19
ATOM     19  C   UNL     1       4.631   3.315  18.062  0.00  0.00    +0.000 C 
BRANCH  19  22
ATOM     20  C   UNL     1       5.764   4.478  16.187  0.00  0.00    +0.000 C 
ATOM     21  O   UNL     1       6.020   5.483  16.848  0.00  0.00    +0.000 OA
ATOM     22  N   UNL     1       5.072   3.388  16.677  0.00  0.00    +0.000 N 
ATOM     23  H   UNL     1       4.703   2.682  16.037  0.00  0.00    +0.000 HD
BRANCH  20  29
ATOM     24  C   UNL     1       8.805   6.012  12.430  0.00  0.00    +0.000 C 
ATOM     25  C   UNL     1       7.693   5.144  12.930  0.00  0.00    +0.000 A 
ATOM     26  C   UNL     1       7.071   4.232  12.063  0.00  0.00    +0.000 A 
ATOM     27  C   UNL     1       6.042   3.411  12.530  0.00  0.00    +0.000 A 
ATOM     28  C   UNL     1       5.612   3.491  13.852  0.00  0.00    +0.000 A 
ATOM     29  C   UNL     1       6.201   4.406  14.739  0.00  0.00    +0.000 A 
ATOM     30  C   UNL     1       7.252   5.218  14.274  0.00  0.00    +0.000 A 
ENDBRANCH  20  29
ENDBRANCH  19  22
ENDBRANCH  14  19
ENDBRANCH   1  17
BRANCH   9  31
ATOM     31  C   UNL     1      -2.311  12.742  23.554  0.00  0.00    +0.000 C 
BRANCH  31  32
ATOM     32  N   UNL     1      -3.684  12.342  23.200  0.00  0.00    +0.000 NA
ATOM     33  C   UNL     1      -4.075  12.886  21.888  0.00  0.00    +0.000 C 
ATOM     34  C   UNL     1      -5.544  12.583  21.516  0.00  0.00    +0.000 C 
ATOM     35  N   UNL     1      -6.549  12.992  22.518  0.00  0.00    +0.000 NA
ATOM     36  C   UNL     1      -6.772  14.436  22.511  0.00  0.00    +0.000 C 
ATOM     37  C   UNL     1      -6.132  12.499  23.844  0.00  0.00    +0.000 C 
ATOM     38  C   UNL     1      -4.656  12.798  24.223  0.00  0.00    +0.000 C 
ENDBRANCH  31  32
ENDBRANCH   9  31
TORSDOF 6
ENDMDL
MODEL 6
REMARK VINA RESULT:      -8.8      2.895      4.321
REMARK  Name = 
REMARK  8 active torsions:
REMARK  status: ('A' for Active; 'I' for Inactive)
REMARK    1  A    between atoms: C_1  and  C_2
REMARK    2  A    between atoms: C_6  and  C_7
REMARK    3  A    between atoms: N_9  and  C_10
REMARK    4  A    between atoms: C_10  and  C_11
REMARK    5  A    between atoms: C_14  and  C_15
REMARK    6  A    between atoms: C_23  and  C_24
REMARK    7  A    between atoms: C_24  and  N_25
REMARK    8  A    between atoms: N_28  and  C_29
REMARK                            x       y       z     vdW  Elec       q    Type
REMARK                         _______ _______ _______ _____ _____    ______ ____
ROOT
ATOM      1  C   UNL     1       1.882   7.628  19.783  0.00  0.00    +0.000 A 
ATOM      2  N   UNL     1       1.808   7.680  21.136  0.00  0.00    +0.000 NA
ATOM      3  N   UNL     1       1.096   8.767  21.426  0.00  0.00    +0.000 N 
ATOM      4  C   UNL     1       0.527   9.291  20.334  0.00  0.00    +0.000 A 
ATOM      5  C   UNL     1       1.296   8.847  19.274  0.00  0.00    +0.000 A 
ATOM      6  C   UNL     1       1.342   9.928  18.196  0.00  0.00    +0.000 C 
ATOM      7  C   UNL     1       0.524  11.065  18.943  0.00  0.00    +0.000 A 
ATOM      8  C   UNL     1       0.342  12.426  18.664  0.00  0.00    +0.000 A 
ATOM      9  C   UNL     1      -0.451  13.236  19.547  0.00  0.00    +0.000 A 
ATOM     10  C   UNL     1      -1.106  12.637  20.647  0.00  0.00    +0.000 A 
ATOM     11  C   UNL     1      -0.885  11.298  20.960  0.00  0.00    +0.000 A 
ATOM     12  C   UNL     1      -0.038  10.579  20.135  0.00  0.00    +0.000 A 
ATOM     13  H   UNL     1       1.153   9.162  22.362  0.00  0.00    +0.000 HD
ENDROOT
BRANCH   1  17
ATOM     14  C   UNL     1       3.958   4.425  18.357  0.00  0.00    +0.000 A 
ATOM     15  C   UNL     1       2.805   4.641  17.633  0.00  0.00    +0.000 A 
ATOM     16  C   UNL     1       2.038   5.717  18.143  0.00  0.00    +0.000 A 
ATOM     17  C   UNL     1       2.568   6.338  19.271  0.00  0.00    +0.000 A 
ATOM     18  S   UNL     1       4.028   5.536  19.709  0.00  0.00    +0.000 S 
BRANCH  14  19
ATOM     19  C   UNL     1       5.035   3.424  17.974  0.00  0.00    +0.000 C 
BRANCH  19  22
ATOM     20  C   UNL     1       6.311   4.388  16.078  0.00  0.00    +0.000 C 
ATOM     21  O   UNL     1       6.914   5.198  16.780  0.00  0.00    +0.000 OA
ATOM     22  N   UNL     1       5.362   3.507  16.559  0.00  0.00    +0.000 N 
ATOM     23  H   UNL     1       4.745   3.012  15.913  0.00  0.00    +0.000 HD
BRANCH  20  29
ATOM     24  C   UNL     1       5.234   2.578  11.465  0.00  0.00    +0.000 C 
ATOM     25  C   UNL     1       6.041   3.470  12.356  0.00  0.00    +0.000 A 
ATOM     26  C   UNL     1       7.034   4.295  11.807  0.00  0.00    +0.000 A 
ATOM     27  C   UNL     1       7.780   5.139  12.633  0.00  0.00    +0.000 A 
ATOM     28  C   UNL     1       7.559   5.167  14.008  0.00  0.00    +0.000 A 
ATOM     29  C   UNL     1       6.584   4.340  14.590  0.00  0.00    +0.000 A 
ATOM     30  C   UNL     1       5.819   3.507  13.755  0.00  0.00    +0.000 A 
ENDBRANCH  20  29
ENDBRANCH  19  22
ENDBRANCH  14  19
ENDBRANCH   1  17
BRANCH   9  31
ATOM     31  C   UNL     1      -0.578  14.757  19.412  0.00  0.00    +0.000 C 
BRANCH  31  32
ATOM     32  N   UNL     1       0.672  15.466  19.089  0.00  0.00    +0.000 NA
ATOM     33  C   UNL     1       1.577  15.503  20.251  0.00  0.00    +0.000 C 
ATOM     34  C   UNL     1       2.860  16.328  19.997  0.00  0.00    +0.000 C 
ATOM     35  N   UNL     1       2.642  17.708  19.521  0.00  0.00    +0.000 NA
ATOM     36  C   UNL     1       2.202  18.595  20.595  0.00  0.00    +0.000 C 
ATOM     37  C   UNL     1       1.690  17.683  18.394  0.00  0.00    +0.000 C 
ATOM     38  C   UNL     1       0.401  16.853  18.641  0.00  0.00    +0.000 C 
ENDBRANCH  31  32
ENDBRANCH   9  31
TORSDOF 6
ENDMDL
MODEL 7
REMARK VINA RESULT:      -8.7      1.642      2.230
REMARK  Name = 
REMARK  8 active torsions:
REMARK  status: ('A' for Active; 'I' for Inactive)
REMARK    1  A    between atoms: C_1  and  C_2
REMARK    2  A    between atoms: C_6  and  C_7
REMARK    3  A    between atoms: N_9  and  C_10
REMARK    4  A    between atoms: C_10  and  C_11
REMARK    5  A    between atoms: C_14  and  C_15
REMARK    6  A    between atoms: C_23  and  C_24
REMARK    7  A    between atoms: C_24  and  N_25
REMARK    8  A    between atoms: N_28  and  C_29
REMARK                            x       y       z     vdW  Elec       q    Type
REMARK                         _______ _______ _______ _____ _____    ______ ____
ROOT
ATOM      1  C   UNL     1       1.626   8.003  20.496  0.00  0.00    +0.000 A 
ATOM      2  N   UNL     1       2.164   8.095  21.738  0.00  0.00    +0.000 NA
ATOM      3  N   UNL     1       1.404   8.959  22.407  0.00  0.00    +0.000 N 
ATOM      4  C   UNL     1       0.285   9.256  21.735  0.00  0.00    +0.000 A 
ATOM      5  C   UNL     1       0.575   8.990  20.410  0.00  0.00    +0.000 A 
ATOM      6  C   UNL     1      -0.161   9.992  19.522  0.00  0.00    +0.000 C 
ATOM      7  C   UNL     1      -0.817  10.895  20.651  0.00  0.00    +0.000 A 
ATOM      8  C   UNL     1      -1.458  12.141  20.599  0.00  0.00    +0.000 A 
ATOM      9  C   UNL     1      -1.945  12.743  21.809  0.00  0.00    +0.000 A 
ATOM     10  C   UNL     1      -1.844  12.040  23.030  0.00  0.00    +0.000 A 
ATOM     11  C   UNL     1      -1.161  10.829  23.096  0.00  0.00    +0.000 A 
ATOM     12  C   UNL     1      -0.626  10.330  21.922  0.00  0.00    +0.000 A 
ATOM     13  H   UNL     1       1.773   9.398  23.247  0.00  0.00    +0.000 HD
ENDROOT
BRANCH   1  17
ATOM     14  C   UNL     1       3.688   5.154  18.438  0.00  0.00    +0.000 A 
ATOM     15  C   UNL     1       3.596   6.327  17.720  0.00  0.00    +0.000 A 
ATOM     16  C   UNL     1       2.837   7.316  18.391  0.00  0.00    +0.000 A 
ATOM     17  C   UNL     1       2.317   6.927  19.624  0.00  0.00    +0.000 A 
ATOM     18  S   UNL     1       2.763   5.290  19.919  0.00  0.00    +0.000 S 
BRANCH  14  19
ATOM     19  C   UNL     1       4.538   3.963  18.029  0.00  0.00    +0.000 C 
BRANCH  19  22
ATOM     20  C   UNL     1       6.234   4.277  16.247  0.00  0.00    +0.000 C 
ATOM     21  O   UNL     1       7.154   4.489  17.036  0.00  0.00    +0.000 OA
ATOM     22  N   UNL     1       4.928   4.041  16.630  0.00  0.00    +0.000 N 
ATOM     23  H   UNL     1       4.174   4.085  15.942  0.00  0.00    +0.000 HD
BRANCH  20  29
ATOM     24  C   UNL     1       5.055   2.796  11.543  0.00  0.00    +0.000 C 
ATOM     25  C   UNL     1       5.917   3.581  12.480  0.00  0.00    +0.000 A 
ATOM     26  C   UNL     1       6.968   4.363  11.978  0.00  0.00    +0.000 A 
ATOM     27  C   UNL     1       7.767   5.108  12.848  0.00  0.00    +0.000 A 
ATOM     28  C   UNL     1       7.542   5.078  14.223  0.00  0.00    +0.000 A 
ATOM     29  C   UNL     1       6.510   4.291  14.758  0.00  0.00    +0.000 A 
ATOM     30  C   UNL     1       5.692   3.558  13.879  0.00  0.00    +0.000 A 
ENDBRANCH  20  29
ENDBRANCH  19  22
ENDBRANCH  14  19
ENDBRANCH   1  17
BRANCH   9  31
ATOM     31  C   UNL     1      -2.515  14.164  21.875  0.00  0.00    +0.000 C 
BRANCH  31  32
ATOM     32  N   UNL     1      -3.984  14.249  21.960  0.00  0.00    +0.000 NA
ATOM     33  C   UNL     1      -4.536  13.129  22.743  0.00  0.00    +0.000 C 
ATOM     34  C   UNL     1      -6.081  13.111  22.774  0.00  0.00    +0.000 C 
ATOM     35  N   UNL     1      -6.742  13.139  21.455  0.00  0.00    +0.000 NA
ATOM     36  C   UNL     1      -6.672  11.846  20.780  0.00  0.00    +0.000 C 
ATOM     37  C   UNL     1      -6.153  14.222  20.645  0.00  0.00    +0.000 C 
ATOM     38  C   UNL     1      -4.600  14.248  20.612  0.00  0.00    +0.000 C 
ENDBRANCH  31  32
ENDBRANCH   9  31
TORSDOF 6
ENDMDL
MODEL 8
REMARK VINA RESULT:      -8.7      1.245      1.521
REMARK  Name = 
REMARK  8 active torsions:
REMARK  status: ('A' for Active; 'I' for Inactive)
REMARK    1  A    between atoms: C_1  and  C_2
REMARK    2  A    between atoms: C_6  and  C_7
REMARK    3  A    between atoms: N_9  and  C_10
REMARK    4  A    between atoms: C_10  and  C_11
REMARK    5  A    between atoms: C_14  and  C_15
REMARK    6  A    between atoms: C_23  and  C_24
REMARK    7  A    between atoms: C_24  and  N_25
REMARK    8  A    between atoms: N_28  and  C_29
REMARK                            x       y       z     vdW  Elec       q    Type
REMARK                         _______ _______ _______ _____ _____    ______ ____
ROOT
ATOM      1  C   UNL     1       1.891   8.103  18.910  0.00  0.00    +0.000 A 
ATOM      2  N   UNL     1       1.614   8.706  17.728  0.00  0.00    +0.000 NA
ATOM      3  N   UNL     1       1.084   9.889  18.031  0.00  0.00    +0.000 N 
ATOM      4  C   UNL     1       1.208  10.166  19.335  0.00  0.00    +0.000 A 
ATOM      5  C   UNL     1       1.349   8.939  19.956  0.00  0.00    +0.000 A 
ATOM      6  C   UNL     1       0.677   8.987  21.327  0.00  0.00    +0.000 C 
ATOM      7  C   UNL     1       0.074  10.455  21.261  0.00  0.00    +0.000 A 
ATOM      8  C   UNL     1      -0.858  11.122  22.068  0.00  0.00    +0.000 A 
ATOM      9  C   UNL     1      -1.241  12.470  21.750  0.00  0.00    +0.000 A 
ATOM     10  C   UNL     1      -0.618  13.138  20.672  0.00  0.00    +0.000 A 
ATOM     11  C   UNL     1       0.266  12.463  19.835  0.00  0.00    +0.000 A 
ATOM     12  C   UNL     1       0.535  11.137  20.123  0.00  0.00    +0.000 A 
ATOM     13  H   UNL     1       0.544  10.386  17.327  0.00  0.00    +0.000 HD
ENDROOT
BRANCH   1  17
ATOM     14  C   UNL     1       4.063   4.726  18.213  0.00  0.00    +0.000 A 
ATOM     15  C   UNL     1       2.730   4.538  17.916  0.00  0.00    +0.000 A 
ATOM     16  C   UNL     1       1.944   5.681  18.202  0.00  0.00    +0.000 A 
ATOM     17  C   UNL     1       2.644   6.761  18.735  0.00  0.00    +0.000 A 
ATOM     18  S   UNL     1       4.299   6.317  18.907  0.00  0.00    +0.000 S 
BRANCH  14  19
ATOM     19  C   UNL     1       5.161   3.724  17.898  0.00  0.00    +0.000 C 
BRANCH  19  22
ATOM     20  C   UNL     1       6.406   4.596  15.938  0.00  0.00    +0.000 C 
ATOM     21  O   UNL     1       6.979   5.474  16.581  0.00  0.00    +0.000 OA
ATOM     22  N   UNL     1       5.488   3.719  16.480  0.00  0.00    +0.000 N 
ATOM     23  H   UNL     1       4.889   3.158  15.870  0.00  0.00    +0.000 HD
BRANCH  20  29
ATOM     24  C   UNL     1       5.474   2.358  11.484  0.00  0.00    +0.000 C 
ATOM     25  C   UNL     1       6.211   3.374  12.299  0.00  0.00    +0.000 A 
ATOM     26  C   UNL     1       7.140   4.227  11.684  0.00  0.00    +0.000 A 
ATOM     27  C   UNL     1       7.820   5.186  12.439  0.00  0.00    +0.000 A 
ATOM     28  C   UNL     1       7.595   5.304  13.808  0.00  0.00    +0.000 A 
ATOM     29  C   UNL     1       6.684   4.454  14.457  0.00  0.00    +0.000 A 
ATOM     30  C   UNL     1       5.985   3.503  13.692  0.00  0.00    +0.000 A 
ENDBRANCH  20  29
ENDBRANCH  19  22
ENDBRANCH  14  19
ENDBRANCH   1  17
BRANCH   9  31
ATOM     31  C   UNL     1      -2.361  13.223  22.476  0.00  0.00    +0.000 C 
BRANCH  31  32
ATOM     32  N   UNL     1      -3.314  13.927  21.601  0.00  0.00    +0.000 NA
ATOM     33  C   UNL     1      -3.884  15.107  22.277  0.00  0.00    +0.000 C 
ATOM     34  C   UNL     1      -4.970  15.822  21.442  0.00  0.00    +0.000 C 
ATOM     35  N   UNL     1      -6.076  14.965  20.973  0.00  0.00    +0.000 NA
ATOM     36  C   UNL     1      -7.013  14.645  22.046  0.00  0.00    +0.000 C 
ATOM     37  C   UNL     1      -5.512  13.754  20.347  0.00  0.00    +0.000 C 
ATOM     38  C   UNL     1      -4.418  13.031  21.179  0.00  0.00    +0.000 C 
ENDBRANCH  31  32
ENDBRANCH   9  31
TORSDOF 6
ENDMDL
MODEL 9
REMARK VINA RESULT:      -8.6      1.392      1.905
REMARK  Name = 
REMARK  8 active torsions:
REMARK  status: ('A' for Active; 'I' for Inactive)
REMARK    1  A    between atoms: C_1  and  C_2
REMARK    2  A    between atoms: C_6  and  C_7
REMARK    3  A    between atoms: N_9  and  C_10
REMARK    4  A    between atoms: C_10  and  C_11
REMARK    5  A    between atoms: C_14  and  C_15
REMARK    6  A    between atoms: C_23  and  C_24
REMARK    7  A    between atoms: C_24  and  N_25
REMARK    8  A    between atoms: N_28  and  C_29
REMARK                            x       y       z     vdW  Elec       q    Type
REMARK                         _______ _______ _______ _____ _____    ______ ____
ROOT
ATOM      1  C   UNL     1       1.309   9.198  19.232  0.00  0.00    +0.000 A 
ATOM      2  N   UNL     1       0.925  10.091  18.287  0.00  0.00    +0.000 NA
ATOM      3  N   UNL     1       0.311  11.076  18.937  0.00  0.00    +0.000 N 
ATOM      4  C   UNL     1       0.474  10.972  20.262  0.00  0.00    +0.000 A 
ATOM      5  C   UNL     1       0.749   9.636  20.490  0.00  0.00    +0.000 A 
ATOM      6  C   UNL     1       0.144   9.217  21.828  0.00  0.00    +0.000 C 
ATOM      7  C   UNL     1      -0.586  10.575  22.211  0.00  0.00    +0.000 A 
ATOM      8  C   UNL     1      -1.531  10.885  23.199  0.00  0.00    +0.000 A 
ATOM      9  C   UNL     1      -2.043  12.223  23.300  0.00  0.00    +0.000 A 
ATOM     10  C   UNL     1      -1.534  13.234  22.455  0.00  0.00    +0.000 A 
ATOM     11  C   UNL     1      -0.637  12.921  21.437  0.00  0.00    +0.000 A 
ATOM     12  C   UNL     1      -0.241  11.601  21.316  0.00  0.00    +0.000 A 
ATOM     13  H   UNL     1      -0.304  11.703  18.423  0.00  0.00    +0.000 HD
ENDROOT
BRANCH   1  17
ATOM     14  C   UNL     1       3.747   6.177  17.993  0.00  0.00    +0.000 A 
ATOM     15  C   UNL     1       3.820   7.263  17.147  0.00  0.00    +0.000 A 
ATOM     16  C   UNL     1       2.941   8.306  17.526  0.00  0.00    +0.000 A 
ATOM     17  C   UNL     1       2.165   8.045  18.653  0.00  0.00    +0.000 A 
ATOM     18  S   UNL     1       2.525   6.458  19.217  0.00  0.00    +0.000 S 
BRANCH  14  19
ATOM     19  C   UNL     1       4.657   4.963  17.911  0.00  0.00    +0.000 C 
BRANCH  19  22
ATOM     20  C   UNL     1       6.243   5.188  16.017  0.00  0.00    +0.000 C 
ATOM     21  O   UNL     1       7.011   5.926  16.631  0.00  0.00    +0.000 OA
ATOM     22  N   UNL     1       5.065   4.693  16.541  0.00  0.00    +0.000 N 
ATOM     23  H   UNL     1       4.367   4.267  15.928  0.00  0.00    +0.000 HD
BRANCH  20  29
ATOM     24  C   UNL     1       5.142   2.558  11.823  0.00  0.00    +0.000 C 
ATOM     25  C   UNL     1       6.012   3.529  12.557  0.00  0.00    +0.000 A 
ATOM     26  C   UNL     1       7.115   4.108  11.912  0.00  0.00    +0.000 A 
ATOM     27  C   UNL     1       7.921   5.026  12.590  0.00  0.00    +0.000 A 
ATOM     28  C   UNL     1       7.652   5.371  13.912  0.00  0.00    +0.000 A 
ATOM     29  C   UNL     1       6.566   4.795  14.591  0.00  0.00    +0.000 A 
ATOM     30  C   UNL     1       5.741   3.887  13.901  0.00  0.00    +0.000 A 
ENDBRANCH  20  29
ENDBRANCH  19  22
ENDBRANCH  14  19
ENDBRANCH   1  17
BRANCH   9  31
ATOM     31  C   UNL     1      -3.187  12.620  24.240  0.00  0.00    +0.000 C 
BRANCH  31  32
ATOM     32  N   UNL     1      -4.497  12.807  23.592  0.00  0.00    +0.000 NA
ATOM     33  C   UNL     1      -4.416  12.542  22.145  0.00  0.00    +0.000 C 
ATOM     34  C   UNL     1      -5.740  12.827  21.399  0.00  0.00    +0.000 C 
ATOM     35  N   UNL     1      -6.306  14.174  21.604  0.00  0.00    +0.000 NA
ATOM     36  C   UNL     1      -5.581  15.193  20.848  0.00  0.00    +0.000 C 
ATOM     37  C   UNL     1      -6.335  14.468  23.049  0.00  0.00    +0.000 C 
ATOM     38  C   UNL     1      -5.009  14.182  23.805  0.00  0.00    +0.000 C 
ENDBRANCH  31  32
ENDBRANCH   9  31
TORSDOF 6
ENDMDL
