MODEL 1
REMARK VINA RESULT:      -8.0      0.000      0.000
REMARK  Name = 
REMARK  7 active torsions:
REMARK  status: ('A' for Active; 'I' for Inactive)
REMARK    1  A    between atoms: C_1  and  O_2
REMARK    2  A    between atoms: O_2  and  C_3
REMARK    3  A    between atoms: C_8  and  C_9
REMARK    4  A    between atoms: C_12  and  C_14
REMARK    5  A    between atoms: C_14  and  O_15
REMARK    6  A    between atoms: O_15  and  C_16
REMARK    7  A    between atoms: C_19  and  N_20
REMARK                            x       y       z     vdW  Elec       q    Type
REMARK                         _______ _______ _______ _____ _____    ______ ____
ROOT
ATOM      1  C   UNL     1       3.916   6.027  18.252  0.00  0.00    +0.000 C 
ATOM      2  O   UNL     1       3.570   7.179  18.021  0.00  0.00    +0.000 OA
ATOM      3  N   UNL     1       5.160   5.528  17.914  0.00  0.00    +0.000 N 
ATOM      4  C   UNL     1       6.080   6.247  17.148  0.00  0.00    +0.000 C 
ATOM      5  O   UNL     1       5.961   7.421  16.803  0.00  0.00    +0.000 OA
ATOM      6  H   UNL     1       5.372   4.577  18.180  0.00  0.00    +0.000 HD
ENDROOT
BRANCH   1  12
ATOM      7  C   UNL     1       2.622   3.797  18.637  0.00  0.00    +0.000 A 
ATOM      8  C   UNL     1       1.618   3.136  19.377  0.00  0.00    +0.000 A 
ATOM      9  C   UNL     1       0.946   3.764  20.429  0.00  0.00    +0.000 A 
ATOM     10  C   UNL     1       1.256   5.073  20.753  0.00  0.00    +0.000 A 
ATOM     11  C   UNL     1       2.225   5.748  20.014  0.00  0.00    +0.000 A 
ATOM     12  C   UNL     1       2.919   5.135  18.945  0.00  0.00    +0.000 A 
BRANCH   7  14
ATOM     13  C   UNL     1       3.622   1.800  17.850  0.00  0.00    +0.000 C 
ATOM     14  O   UNL     1       3.304   3.178  17.614  0.00  0.00    +0.000 OA
ENDBRANCH   7  14
ENDBRANCH   1  12
BRANCH   4  15
ATOM     15  C   UNL     1       7.320   5.462  16.739  0.00  0.00    +0.000 C 
BRANCH  15  16
ATOM     16  O   UNL     1       7.655   5.816  15.401  0.00  0.00    +0.000 OA
BRANCH  16  17
ATOM     17  C   UNL     1       7.160   5.007  14.416  0.00  0.00    +0.000 A 
ATOM     18  C   UNL     1       6.039   4.248  14.773  0.00  0.00    +0.000 A 
ATOM     19  C   UNL     1       5.398   3.432  13.835  0.00  0.00    +0.000 A 
ATOM     20  C   UNL     1       5.880   3.387  12.524  0.00  0.00    +0.000 A 
ATOM     21  C   UNL     1       7.000   4.145  12.154  0.00  0.00    +0.000 A 
ATOM     22  C   UNL     1       7.640   4.952  13.106  0.00  0.00    +0.000 A 
BRANCH  20  23
ATOM     23  N   UNL     1       5.203   2.549  11.524  0.00  0.00    +0.000 N 
ATOM     24  O   UNL     1       5.747   1.484  11.198  0.00  0.00    +0.000 OA
ATOM     25  O   UNL     1       4.125   2.957  11.067  0.00  0.00    +0.000 OA
ENDBRANCH  20  23
ENDBRANCH  16  17
ENDBRANCH  15  16
ENDBRANCH   4  15
TORSDOF 6
ENDMDL
MODEL 2
REMARK VINA RESULT:      -7.7      0.382      1.049
REMARK  Name = 
REMARK  7 active torsions:
REMARK  status: ('A' for Active; 'I' for Inactive)
REMARK    1  A    between atoms: C_1  and  O_2
REMARK    2  A    between atoms: O_2  and  C_3
REMARK    3  A    between atoms: C_8  and  C_9
REMARK    4  A    between atoms: C_12  and  C_14
REMARK    5  A    between atoms: C_14  and  O_15
REMARK    6  A    between atoms: O_15  and  C_16
REMARK    7  A    between atoms: C_19  and  N_20
REMARK                            x       y       z     vdW  Elec       q    Type
REMARK                         _______ _______ _______ _____ _____    ______ ____
ROOT
ATOM      1  C   UNL     1       3.960   5.761  18.559  0.00  0.00    +0.000 C 
ATOM      2  O   UNL     1       3.622   6.938  18.501  0.00  0.00    +0.000 OA
ATOM      3  N   UNL     1       5.186   5.303  18.117  0.00  0.00    +0.000 N 
ATOM      4  C   UNL     1       6.094   6.113  17.431  0.00  0.00    +0.000 C 
ATOM      5  O   UNL     1       5.981   7.325  17.257  0.00  0.00    +0.000 OA
ATOM      6  H   UNL     1       5.393   4.322  18.242  0.00  0.00    +0.000 HD
ENDROOT
BRANCH   1  12
ATOM      7  C   UNL     1       2.827   3.429  18.833  0.00  0.00    +0.000 A 
ATOM      8  C   UNL     1       1.805   2.689  19.467  0.00  0.00    +0.000 A 
ATOM      9  C   UNL     1       0.967   3.263  20.425  0.00  0.00    +0.000 A 
ATOM     10  C   UNL     1       1.124   4.597  20.760  0.00  0.00    +0.000 A 
ATOM     11  C   UNL     1       2.109   5.349  20.124  0.00  0.00    +0.000 A 
ATOM     12  C   UNL     1       2.971   4.791  19.150  0.00  0.00    +0.000 A 
BRANCH   7  14
ATOM     13  C   UNL     1       3.866   1.452  18.048  0.00  0.00    +0.000 C 
ATOM     14  O   UNL     1       3.671   2.865  17.905  0.00  0.00    +0.000 OA
ENDBRANCH   7  14
ENDBRANCH   1  12
BRANCH   4  15
ATOM     15  C   UNL     1       7.311   5.381  16.881  0.00  0.00    +0.000 C 
BRANCH  15  16
ATOM     16  O   UNL     1       7.492   5.769  15.523  0.00  0.00    +0.000 OA
BRANCH  16  17
ATOM     17  C   UNL     1       6.833   5.024  14.584  0.00  0.00    +0.000 A 
ATOM     18  C   UNL     1       7.528   4.827  13.384  0.00  0.00    +0.000 A 
ATOM     19  C   UNL     1       6.992   4.026  12.370  0.00  0.00    +0.000 A 
ATOM     20  C   UNL     1       5.753   3.410  12.566  0.00  0.00    +0.000 A 
ATOM     21  C   UNL     1       5.050   3.599  13.765  0.00  0.00    +0.000 A 
ATOM     22  C   UNL     1       5.593   4.411  14.771  0.00  0.00    +0.000 A 
BRANCH  20  23
ATOM     23  N   UNL     1       5.189   2.551  11.516  0.00  0.00    +0.000 N 
ATOM     24  O   UNL     1       5.834   1.547  11.182  0.00  0.00    +0.000 OA
ATOM     25  O   UNL     1       4.098   2.881  11.028  0.00  0.00    +0.000 OA
ENDBRANCH  20  23
ENDBRANCH  16  17
ENDBRANCH  15  16
ENDBRANCH   4  15
TORSDOF 6
ENDMDL
MODEL 3
REMARK VINA RESULT:      -7.6      1.318      1.795
REMARK  Name = 
REMARK  7 active torsions:
REMARK  status: ('A' for Active; 'I' for Inactive)
REMARK    1  A    between atoms: C_1  and  O_2
REMARK    2  A    between atoms: O_2  and  C_3
REMARK    3  A    between atoms: C_8  and  C_9
REMARK    4  A    between atoms: C_12  and  C_14
REMARK    5  A    between atoms: C_14  and  O_15
REMARK    6  A    between atoms: O_15  and  C_16
REMARK    7  A    between atoms: C_19  and  N_20
REMARK                            x       y       z     vdW  Elec       q    Type
REMARK                         _______ _______ _______ _____ _____    ______ ____
ROOT
ATOM      1  C   UNL     1       5.048   4.609  19.257  0.00  0.00    +0.000 C 
ATOM      2  O   UNL     1       5.926   4.188  20.001  0.00  0.00    +0.000 OA
ATOM      3  N   UNL     1       5.313   5.277  18.077  0.00  0.00    +0.000 N 
ATOM      4  C   UNL     1       6.600   5.662  17.697  0.00  0.00    +0.000 C 
ATOM      5  O   UNL     1       7.639   5.350  18.276  0.00  0.00    +0.000 OA
ATOM      6  H   UNL     1       4.525   5.553  17.507  0.00  0.00    +0.000 HD
ENDROOT
BRANCH   1  12
ATOM      7  C   UNL     1       2.941   3.138  19.693  0.00  0.00    +0.000 A 
ATOM      8  C   UNL     1       1.582   3.119  20.075  0.00  0.00    +0.000 A 
ATOM      9  C   UNL     1       0.913   4.280  20.470  0.00  0.00    +0.000 A 
ATOM     10  C   UNL     1       1.587   5.488  20.478  0.00  0.00    +0.000 A 
ATOM     11  C   UNL     1       2.921   5.529  20.078  0.00  0.00    +0.000 A 
ATOM     12  C   UNL     1       3.621   4.367  19.673  0.00  0.00    +0.000 A 
BRANCH   7  14
ATOM     13  C   UNL     1       3.522   1.666  17.932  0.00  0.00    +0.000 C 
ATOM     14  O   UNL     1       3.613   1.995  19.324  0.00  0.00    +0.000 OA
ENDBRANCH   7  14
ENDBRANCH   1  12
BRANCH   4  15
ATOM     15  C   UNL     1       6.664   6.535  16.451  0.00  0.00    +0.000 C 
BRANCH  15  16
ATOM     16  O   UNL     1       7.478   5.879  15.484  0.00  0.00    +0.000 OA
BRANCH  16  17
ATOM     17  C   UNL     1       6.825   5.121  14.552  0.00  0.00    +0.000 A 
ATOM     18  C   UNL     1       7.536   4.886  13.369  0.00  0.00    +0.000 A 
ATOM     19  C   UNL     1       7.006   4.070  12.364  0.00  0.00    +0.000 A 
ATOM     20  C   UNL     1       5.756   3.475  12.554  0.00  0.00    +0.000 A 
ATOM     21  C   UNL     1       5.036   3.702  13.736  0.00  0.00    +0.000 A 
ATOM     22  C   UNL     1       5.573   4.529  14.732  0.00  0.00    +0.000 A 
BRANCH  20  23
ATOM     23  N   UNL     1       5.197   2.599  11.515  0.00  0.00    +0.000 N 
ATOM     24  O   UNL     1       4.119   2.928  11.000  0.00  0.00    +0.000 OA
ATOM     25  O   UNL     1       5.841   1.584  11.212  0.00  0.00    +0.000 OA
ENDBRANCH  20  23
ENDBRANCH  16  17
ENDBRANCH  15  16
ENDBRANCH   4  15
TORSDOF 6
ENDMDL
MODEL 4
REMARK VINA RESULT:      -7.5      5.038      7.999
REMARK  Name = 
REMARK  7 active torsions:
REMARK  status: ('A' for Active; 'I' for Inactive)
REMARK    1  A    between atoms: C_1  and  O_2
REMARK    2  A    between atoms: O_2  and  C_3
REMARK    3  A    between atoms: C_8  and  C_9
REMARK    4  A    between atoms: C_12  and  C_14
REMARK    5  A    between atoms: C_14  and  O_15
REMARK    6  A    between atoms: O_15  and  C_16
REMARK    7  A    between atoms: C_19  and  N_20
REMARK                            x       y       z     vdW  Elec       q    Type
REMARK                         _______ _______ _______ _____ _____    ______ ____
ROOT
ATOM      1  C   UNL     1       8.900  10.227  18.233  0.00  0.00    +0.000 C 
ATOM      2  O   UNL     1       8.117  10.750  17.449  0.00  0.00    +0.000 OA
ATOM      3  N   UNL     1       8.898   8.874  18.516  0.00  0.00    +0.000 N 
ATOM      4  C   UNL     1       7.911   8.005  18.046  0.00  0.00    +0.000 C 
ATOM      5  O   UNL     1       7.027   8.294  17.243  0.00  0.00    +0.000 OA
ATOM      6  H   UNL     1       9.607   8.526  19.146  0.00  0.00    +0.000 HD
ENDROOT
BRANCH   1  12
ATOM      7  C   UNL     1       9.973  11.455  20.267  0.00  0.00    +0.000 A 
ATOM      8  C   UNL     1      10.969  12.357  20.700  0.00  0.00    +0.000 A 
ATOM      9  C   UNL     1      11.908  12.895  19.818  0.00  0.00    +0.000 A 
ATOM     10  C   UNL     1      11.862  12.552  18.478  0.00  0.00    +0.000 A 
ATOM     11  C   UNL     1      10.868  11.685  18.029  0.00  0.00    +0.000 A 
ATOM     12  C   UNL     1       9.905  11.127  18.902  0.00  0.00    +0.000 A 
BRANCH   7  14
ATOM     13  C   UNL     1       8.538  11.808  22.117  0.00  0.00    +0.000 C 
ATOM     14  O   UNL     1       9.058  10.903  21.134  0.00  0.00    +0.000 OA
ENDBRANCH   7  14
ENDBRANCH   1  12
BRANCH   4  15
ATOM     15  C   UNL     1       7.989   6.590  18.606  0.00  0.00    +0.000 C 
BRANCH  15  16
ATOM     16  O   UNL     1       7.635   5.678  17.572  0.00  0.00    +0.000 OA
BRANCH  16  17
ATOM     17  C   UNL     1       6.447   5.018  17.724  0.00  0.00    +0.000 A 
ATOM     18  C   UNL     1       5.895   4.504  16.544  0.00  0.00    +0.000 A 
ATOM     19  C   UNL     1       4.717   3.750  16.573  0.00  0.00    +0.000 A 
ATOM     20  C   UNL     1       4.094   3.501  17.799  0.00  0.00    +0.000 A 
ATOM     21  C   UNL     1       4.640   4.008  18.987  0.00  0.00    +0.000 A 
ATOM     22  C   UNL     1       5.816   4.770  18.944  0.00  0.00    +0.000 A 
BRANCH  20  23
ATOM     23  N   UNL     1       2.867   2.693  17.846  0.00  0.00    +0.000 N 
ATOM     24  O   UNL     1       1.886   3.095  17.204  0.00  0.00    +0.000 OA
ATOM     25  O   UNL     1       2.888   1.655  18.524  0.00  0.00    +0.000 OA
ENDBRANCH  20  23
ENDBRANCH  16  17
ENDBRANCH  15  16
ENDBRANCH   4  15
TORSDOF 6
ENDMDL
MODEL 5
REMARK VINA RESULT:      -7.5      2.561      4.357
REMARK  Name = 
REMARK  7 active torsions:
REMARK  status: ('A' for Active; 'I' for Inactive)
REMARK    1  A    between atoms: C_1  and  O_2
REMARK    2  A    between atoms: O_2  and  C_3
REMARK    3  A    between atoms: C_8  and  C_9
REMARK    4  A    between atoms: C_12  and  C_14
REMARK    5  A    between atoms: C_14  and  O_15
REMARK    6  A    between atoms: O_15  and  C_16
REMARK    7  A    between atoms: C_19  and  N_20
REMARK                            x       y       z     vdW  Elec       q    Type
REMARK                         _______ _______ _______ _____ _____    ______ ____
ROOT
ATOM      1  C   UNL     1       2.079   5.696  20.219  0.00  0.00    +0.000 C 
ATOM      2  O   UNL     1       1.352   5.384  21.155  0.00  0.00    +0.000 OA
ATOM      3  N   UNL     1       3.010   4.837  19.666  0.00  0.00    +0.000 N 
ATOM      4  C   UNL     1       3.310   3.590  20.217  0.00  0.00    +0.000 C 
ATOM      5  O   UNL     1       2.712   3.059  21.151  0.00  0.00    +0.000 OA
ATOM      6  H   UNL     1       3.537   5.168  18.869  0.00  0.00    +0.000 HD
ENDROOT
BRANCH   1  12
ATOM      7  C   UNL     1       2.422   7.570  18.439  0.00  0.00    +0.000 A 
ATOM      8  C   UNL     1       2.208   8.925  18.107  0.00  0.00    +0.000 A 
ATOM      9  C   UNL     1       1.481   9.780  18.939  0.00  0.00    +0.000 A 
ATOM     10  C   UNL     1       0.964   9.300  20.129  0.00  0.00    +0.000 A 
ATOM     11  C   UNL     1       1.189   7.972  20.485  0.00  0.00    +0.000 A 
ATOM     12  C   UNL     1       1.922   7.086  19.661  0.00  0.00    +0.000 A 
BRANCH   7  14
ATOM     13  C   UNL     1       4.369   7.226  17.137  0.00  0.00    +0.000 C 
ATOM     14  O   UNL     1       3.117   6.715  17.615  0.00  0.00    +0.000 OA
ENDBRANCH   7  14
ENDBRANCH   1  12
BRANCH   4  15
ATOM     15  C   UNL     1       4.482   2.870  19.563  0.00  0.00    +0.000 C 
BRANCH  15  16
ATOM     16  O   UNL     1       5.507   3.823  19.304  0.00  0.00    +0.000 OA
BRANCH  16  17
ATOM     17  C   UNL     1       5.790   4.072  17.989  0.00  0.00    +0.000 A 
ATOM     18  C   UNL     1       7.050   4.630  17.745  0.00  0.00    +0.000 A 
ATOM     19  C   UNL     1       7.486   4.870  16.438  0.00  0.00    +0.000 A 
ATOM     20  C   UNL     1       6.653   4.535  15.366  0.00  0.00    +0.000 A 
ATOM     21  C   UNL     1       5.390   3.972  15.599  0.00  0.00    +0.000 A 
ATOM     22  C   UNL     1       4.960   3.746  16.914  0.00  0.00    +0.000 A 
BRANCH  20  23
ATOM     23  N   UNL     1       7.108   4.763  13.987  0.00  0.00    +0.000 N 
ATOM     24  O   UNL     1       6.599   4.078  13.090  0.00  0.00    +0.000 OA
ATOM     25  O   UNL     1       7.974   5.631  13.804  0.00  0.00    +0.000 OA
ENDBRANCH  20  23
ENDBRANCH  16  17
ENDBRANCH  15  16
ENDBRANCH   4  15
TORSDOF 6
ENDMDL
MODEL 6
REMARK VINA RESULT:      -7.5      1.027      1.933
REMARK  Name = 
REMARK  7 active torsions:
REMARK  status: ('A' for Active; 'I' for Inactive)
REMARK    1  A    between atoms: C_1  and  O_2
REMARK    2  A    between atoms: O_2  and  C_3
REMARK    3  A    between atoms: C_8  and  C_9
REMARK    4  A    between atoms: C_12  and  C_14
REMARK    5  A    between atoms: C_14  and  O_15
REMARK    6  A    between atoms: O_15  and  C_16
REMARK    7  A    between atoms: C_19  and  N_20
REMARK                            x       y       z     vdW  Elec       q    Type
REMARK                         _______ _______ _______ _____ _____    ______ ____
ROOT
ATOM      1  C   UNL     1       3.500   5.760  18.138  0.00  0.00    +0.000 C 
ATOM      2  O   UNL     1       3.115   6.888  17.854  0.00  0.00    +0.000 OA
ATOM      3  N   UNL     1       4.792   5.324  17.916  0.00  0.00    +0.000 N 
ATOM      4  C   UNL     1       5.736   6.078  17.216  0.00  0.00    +0.000 C 
ATOM      5  O   UNL     1       5.586   7.238  16.837  0.00  0.00    +0.000 OA
ATOM      6  H   UNL     1       5.030   4.389  18.220  0.00  0.00    +0.000 HD
ENDROOT
BRANCH   1  12
ATOM      7  C   UNL     1       1.928   4.929  20.044  0.00  0.00    +0.000 A 
ATOM      8  C   UNL     1       1.030   3.927  20.471  0.00  0.00    +0.000 A 
ATOM      9  C   UNL     1       0.663   2.866  19.640  0.00  0.00    +0.000 A 
ATOM     10  C   UNL     1       1.198   2.778  18.367  0.00  0.00    +0.000 A 
ATOM     11  C   UNL     1       2.107   3.744  17.940  0.00  0.00    +0.000 A 
ATOM     12  C   UNL     1       2.495   4.828  18.762  0.00  0.00    +0.000 A 
BRANCH   7  14
ATOM     13  C   UNL     1       1.398   7.119  20.771  0.00  0.00    +0.000 C 
ATOM     14  O   UNL     1       2.277   5.990  20.849  0.00  0.00    +0.000 OA
ENDBRANCH   7  14
ENDBRANCH   1  12
BRANCH   4  15
ATOM     15  C   UNL     1       7.045   5.354  16.930  0.00  0.00    +0.000 C 
BRANCH  15  16
ATOM     16  O   UNL     1       7.488   5.723  15.628  0.00  0.00    +0.000 OA
BRANCH  16  17
ATOM     17  C   UNL     1       7.043   4.950  14.592  0.00  0.00    +0.000 A 
ATOM     18  C   UNL     1       5.937   4.142  14.882  0.00  0.00    +0.000 A 
ATOM     19  C   UNL     1       5.346   3.354  13.888  0.00  0.00    +0.000 A 
ATOM     20  C   UNL     1       5.862   3.388  12.590  0.00  0.00    +0.000 A 
ATOM     21  C   UNL     1       6.968   4.195  12.288  0.00  0.00    +0.000 A 
ATOM     22  C   UNL     1       7.559   4.973  13.294  0.00  0.00    +0.000 A 
BRANCH  20  23
ATOM     23  N   UNL     1       5.237   2.580  11.533  0.00  0.00    +0.000 N 
ATOM     24  O   UNL     1       5.846   1.577  11.136  0.00  0.00    +0.000 OA
ATOM     25  O   UNL     1       4.135   2.951  11.103  0.00  0.00    +0.000 OA
ENDBRANCH  20  23
ENDBRANCH  16  17
ENDBRANCH  15  16
ENDBRANCH   4  15
TORSDOF 6
ENDMDL
MODEL 7
REMARK VINA RESULT:      -7.5      3.211      7.798
REMARK  Name = 
REMARK  7 active torsions:
REMARK  status: ('A' for Active; 'I' for Inactive)
REMARK    1  A    between atoms: C_1  and  O_2
REMARK    2  A    between atoms: O_2  and  C_3
REMARK    3  A    between atoms: C_8  and  C_9
REMARK    4  A    between atoms: C_12  and  C_14
REMARK    5  A    between atoms: C_14  and  O_15
REMARK    6  A    between atoms: O_15  and  C_16
REMARK    7  A    between atoms: C_19  and  N_20
REMARK                            x       y       z     vdW  Elec       q    Type
REMARK                         _______ _______ _______ _____ _____    ______ ____
ROOT
ATOM      1  C   UNL     1       4.066   3.451  18.100  0.00  0.00    +0.000 C 
ATOM      2  O   UNL     1       3.807   2.258  17.993  0.00  0.00    +0.000 OA
ATOM      3  N   UNL     1       3.385   4.300  18.951  0.00  0.00    +0.000 N 
ATOM      4  C   UNL     1       2.246   3.909  19.658  0.00  0.00    +0.000 C 
ATOM      5  O   UNL     1       1.798   2.765  19.715  0.00  0.00    +0.000 OA
ATOM      6  H   UNL     1       3.695   5.261  19.003  0.00  0.00    +0.000 HD
ENDROOT
BRANCH   1  12
ATOM      7  C   UNL     1       6.340   4.660  17.700  0.00  0.00    +0.000 A 
ATOM      8  C   UNL     1       7.266   5.131  16.744  0.00  0.00    +0.000 A 
ATOM      9  C   UNL     1       7.089   4.909  15.376  0.00  0.00    +0.000 A 
ATOM     10  C   UNL     1       5.971   4.223  14.935  0.00  0.00    +0.000 A 
ATOM     11  C   UNL     1       5.033   3.777  15.863  0.00  0.00    +0.000 A 
ATOM     12  C   UNL     1       5.190   3.989  17.253  0.00  0.00    +0.000 A 
BRANCH   7  14
ATOM     13  C   UNL     1       7.674   5.631  19.398  0.00  0.00    +0.000 C 
ATOM     14  O   UNL     1       6.520   4.855  19.050  0.00  0.00    +0.000 OA
ENDBRANCH   7  14
ENDBRANCH   1  12
BRANCH   4  15
ATOM     15  C   UNL     1       1.543   5.033  20.407  0.00  0.00    +0.000 C 
BRANCH  15  16
ATOM     16  O   UNL     1       2.436   6.138  20.499  0.00  0.00    +0.000 OA
BRANCH  16  17
ATOM     17  C   UNL     1       1.998   7.321  19.971  0.00  0.00    +0.000 A 
ATOM     18  C   UNL     1       1.314   8.156  20.863  0.00  0.00    +0.000 A 
ATOM     19  C   UNL     1       0.873   9.422  20.464  0.00  0.00    +0.000 A 
ATOM     20  C   UNL     1       1.132   9.858  19.161  0.00  0.00    +0.000 A 
ATOM     21  C   UNL     1       1.818   9.031  18.260  0.00  0.00    +0.000 A 
ATOM     22  C   UNL     1       2.247   7.760  18.669  0.00  0.00    +0.000 A 
BRANCH  20  23
ATOM     23  N   UNL     1       0.692  11.194  18.736  0.00  0.00    +0.000 N 
ATOM     24  O   UNL     1       1.562  12.053  18.533  0.00  0.00    +0.000 OA
ATOM     25  O   UNL     1      -0.527  11.383  18.604  0.00  0.00    +0.000 OA
ENDBRANCH  20  23
ENDBRANCH  16  17
ENDBRANCH  15  16
ENDBRANCH   4  15
TORSDOF 6
ENDMDL
MODEL 8
REMARK VINA RESULT:      -7.5      3.173      7.855
REMARK  Name = 
REMARK  7 active torsions:
REMARK  status: ('A' for Active; 'I' for Inactive)
REMARK    1  A    between atoms: C_1  and  O_2
REMARK    2  A    between atoms: O_2  and  C_3
REMARK    3  A    between atoms: C_8  and  C_9
REMARK    4  A    between atoms: C_12  and  C_14
REMARK    5  A    between atoms: C_14  and  O_15
REMARK    6  A    between atoms: O_15  and  C_16
REMARK    7  A    between atoms: C_19  and  N_20
REMARK                            x       y       z     vdW  Elec       q    Type
REMARK                         _______ _______ _______ _____ _____    ______ ____
ROOT
ATOM      1  C   UNL     1       4.055   3.468  17.976  0.00  0.00    +0.000 C 
ATOM      2  O   UNL     1       3.750   2.286  17.871  0.00  0.00    +0.000 OA
ATOM      3  N   UNL     1       3.419   4.340  18.839  0.00  0.00    +0.000 N 
ATOM      4  C   UNL     1       2.277   3.990  19.562  0.00  0.00    +0.000 C 
ATOM      5  O   UNL     1       1.787   2.864  19.624  0.00  0.00    +0.000 OA
ATOM      6  H   UNL     1       3.766   5.288  18.887  0.00  0.00    +0.000 HD
ENDROOT
BRANCH   1  12
ATOM      7  C   UNL     1       6.365   4.597  17.543  0.00  0.00    +0.000 A 
ATOM      8  C   UNL     1       7.294   5.033  16.574  0.00  0.00    +0.000 A 
ATOM      9  C   UNL     1       7.090   4.816  15.209  0.00  0.00    +0.000 A 
ATOM     10  C   UNL     1       5.943   4.169  14.784  0.00  0.00    +0.000 A 
ATOM     11  C   UNL     1       5.002   3.757  15.726  0.00  0.00    +0.000 A 
ATOM     12  C   UNL     1       5.185   3.965  17.113  0.00  0.00    +0.000 A 
BRANCH   7  14
ATOM     13  C   UNL     1       7.603   5.725  19.216  0.00  0.00    +0.000 C 
ATOM     14  O   UNL     1       6.569   4.787  18.891  0.00  0.00    +0.000 OA
ENDBRANCH   7  14
ENDBRANCH   1  12
BRANCH   4  15
ATOM     15  C   UNL     1       1.629   5.139  20.324  0.00  0.00    +0.000 C 
BRANCH  15  16
ATOM     16  O   UNL     1       2.530   6.241  20.327  0.00  0.00    +0.000 OA
BRANCH  16  17
ATOM     17  C   UNL     1       2.004   7.459  19.991  0.00  0.00    +0.000 A 
ATOM     18  C   UNL     1       2.156   7.824  18.648  0.00  0.00    +0.000 A 
ATOM     19  C   UNL     1       1.604   9.014  18.163  0.00  0.00    +0.000 A 
ATOM     20  C   UNL     1       0.884   9.839  19.032  0.00  0.00    +0.000 A 
ATOM     21  C   UNL     1       0.723   9.481  20.378  0.00  0.00    +0.000 A 
ATOM     22  C   UNL     1       1.289   8.290  20.855  0.00  0.00    +0.000 A 
BRANCH  20  23
ATOM     23  N   UNL     1       0.282  11.082  18.529  0.00  0.00    +0.000 N 
ATOM     24  O   UNL     1      -0.851  11.016  18.033  0.00  0.00    +0.000 OA
ATOM     25  O   UNL     1       0.945  12.125  18.635  0.00  0.00    +0.000 OA
ENDBRANCH  20  23
ENDBRANCH  16  17
ENDBRANCH  15  16
ENDBRANCH   4  15
TORSDOF 6
ENDMDL
MODEL 9
REMARK VINA RESULT:      -7.4      4.558      7.551
REMARK  Name = 
REMARK  7 active torsions:
REMARK  status: ('A' for Active; 'I' for Inactive)
REMARK    1  A    between atoms: C_1  and  O_2
REMARK    2  A    between atoms: O_2  and  C_3
REMARK    3  A    between atoms: C_8  and  C_9
REMARK    4  A    between atoms: C_12  and  C_14
REMARK    5  A    between atoms: C_14  and  O_15
REMARK    6  A    between atoms: O_15  and  C_16
REMARK    7  A    between atoms: C_19  and  N_20
REMARK                            x       y       z     vdW  Elec       q    Type
REMARK                         _______ _______ _______ _____ _____    ______ ____
ROOT
ATOM      1  C   UNL     1       5.134   5.361  16.820  0.00  0.00    +0.000 C 
ATOM      2  O   UNL     1       5.464   4.867  15.748  0.00  0.00    +0.000 OA
ATOM      3  N   UNL     1       5.891   6.309  17.481  0.00  0.00    +0.000 N 
ATOM      4  C   UNL     1       7.170   6.683  17.062  0.00  0.00    +0.000 C 
ATOM      5  O   UNL     1       7.711   6.330  16.016  0.00  0.00    +0.000 OA
ATOM      6  H   UNL     1       5.520   6.689  18.341  0.00  0.00    +0.000 HD
ENDROOT
BRANCH   1  12
ATOM      7  C   UNL     1       2.949   5.647  18.213  0.00  0.00    +0.000 A 
ATOM      8  C   UNL     1       1.792   5.018  18.722  0.00  0.00    +0.000 A 
ATOM      9  C   UNL     1       1.486   3.688  18.424  0.00  0.00    +0.000 A 
ATOM     10  C   UNL     1       2.339   2.954  17.619  0.00  0.00    +0.000 A 
ATOM     11  C   UNL     1       3.500   3.551  17.131  0.00  0.00    +0.000 A 
ATOM     12  C   UNL     1       3.833   4.896  17.419  0.00  0.00    +0.000 A 
BRANCH   7  14
ATOM     13  C   UNL     1       2.294   7.910  17.985  0.00  0.00    +0.000 C 
ATOM     14  O   UNL     1       3.247   6.963  18.484  0.00  0.00    +0.000 OA
ENDBRANCH   7  14
ENDBRANCH   1  12
BRANCH   4  15
ATOM     15  C   UNL     1       7.907   7.613  18.016  0.00  0.00    +0.000 C 
BRANCH  15  16
ATOM     16  O   UNL     1       7.525   8.953  17.722  0.00  0.00    +0.000 OA
BRANCH  16  17
ATOM     17  C   UNL     1       8.356   9.937  18.182  0.00  0.00    +0.000 A 
ATOM     18  C   UNL     1       8.274  11.155  17.496  0.00  0.00    +0.000 A 
ATOM     19  C   UNL     1       9.022  12.262  17.910  0.00  0.00    +0.000 A 
ATOM     20  C   UNL     1       9.851  12.148  19.029  0.00  0.00    +0.000 A 
ATOM     21  C   UNL     1       9.939  10.934  19.725  0.00  0.00    +0.000 A 
ATOM     22  C   UNL     1       9.191   9.828  19.295  0.00  0.00    +0.000 A 
BRANCH  20  23
ATOM     23  N   UNL     1      10.628  13.309  19.486  0.00  0.00    +0.000 N 
ATOM     24  O   UNL     1      10.173  14.438  19.250  0.00  0.00    +0.000 OA
ATOM     25  O   UNL     1      11.692  13.090  20.084  0.00  0.00    +0.000 OA
ENDBRANCH  20  23
ENDBRANCH  16  17
ENDBRANCH  15  16
ENDBRANCH   4  15
TORSDOF 6
ENDMDL
