MODEL 1
REMARK VINA RESULT:      -8.1      0.000      0.000
REMARK  Name = 
REMARK  8 active torsions:
REMARK  status: ('A' for Active; 'I' for Inactive)
REMARK    1  A    between atoms: C_1  and  C_2
REMARK    2  A    between atoms: C_5  and  C_6
REMARK    3  A    between atoms: C_9  and  C_10
REMARK    4  A    between atoms: N_12  and  C_13
REMARK    5  A    between atoms: N_12  and  C_14
REMARK    6  A    between atoms: N_20  and  C_21
REMARK    7  A    between atoms: N_20  and  C_22
REMARK    8  A    between atoms: N_25  and  C_26
REMARK                            x       y       z     vdW  Elec       q    Type
REMARK                         _______ _______ _______ _____ _____    ______ ____
ROOT
ATOM      1  C   UNL     1       0.806  10.319  19.624  0.00  0.00    +0.000 C 
ATOM      2  O   UNL     1       0.971  11.149  18.726  0.00  0.00    +0.000 OA
ATOM      3  N   UNL     1      -0.054  10.652  20.696  0.00  0.00    +0.000 N 
ATOM      4  C   UNL     1      -0.302   9.817  21.866  0.00  0.00    +0.000 C 
ENDROOT
BRANCH   3   5
ATOM      5  C   UNL     1      -0.757  11.961  20.615  0.00  0.00    +0.000 C 
ATOM      6  C   UNL     1      -2.142  11.918  19.970  0.00  0.00    +0.000 C 
ATOM      7  C   UNL     1      -2.838  13.159  20.485  0.00  0.00    +0.000 C 
ATOM      8  N   UNL     1      -2.325  13.357  21.826  0.00  0.00    +0.000 N 
ATOM      9  C   UNL     1      -2.799  14.091  22.890  0.00  0.00    +0.000 C 
ATOM     10  O   UNL     1      -2.149  14.075  23.950  0.00  0.00    +0.000 OA
ATOM     11  N   UNL     1      -3.979  14.832  22.811  0.00  0.00    +0.000 N 
ATOM     12  C   UNL     1      -4.918  14.834  21.696  0.00  0.00    +0.000 C 
ATOM     13  C   UNL     1      -1.031  12.659  21.965  0.00  0.00    +0.000 C 
BRANCH  11  14
ATOM     14  C   UNL     1      -4.466  15.388  24.108  0.00  0.00    +0.000 C 
ATOM     15  C   UNL     1      -5.942  15.779  24.048  0.00  0.00    +0.000 C 
ATOM     16  C   UNL     1      -5.904  17.259  23.718  0.00  0.00    +0.000 C 
ATOM     17  N   UNL     1      -4.736  17.805  24.428  0.00  0.00    +0.000 NA
ATOM     18  C   UNL     1      -5.136  18.389  25.711  0.00  0.00    +0.000 C 
ATOM     19  C   UNL     1      -3.795  16.675  24.637  0.00  0.00    +0.000 C 
ENDBRANCH  11  14
ENDBRANCH   3   5
BRANCH   1  23
ATOM     20  C   UNL     1       2.760   7.046  18.649  0.00  0.00    +0.000 A 
ATOM     21  C   UNL     1       2.305   6.849  19.939  0.00  0.00    +0.000 A 
ATOM     22  C   UNL     1       1.593   7.974  20.463  0.00  0.00    +0.000 A 
ATOM     23  C   UNL     1       1.440   8.996  19.545  0.00  0.00    +0.000 A 
ATOM     24  S   UNL     1       2.249   8.587  18.077  0.00  0.00    +0.000 S 
BRANCH  20  29
ATOM     25  C   UNL     1       6.003   3.720  15.120  0.00  0.00    +0.000 C 
ATOM     26  C   UNL     1       5.193   4.564  16.062  0.00  0.00    +0.000 A 
ATOM     27  C   UNL     1       5.513   5.900  16.295  0.00  0.00    +0.000 A 
ATOM     28  C   UNL     1       4.720   6.681  17.147  0.00  0.00    +0.000 A 
ATOM     29  C   UNL     1       3.573   6.161  17.782  0.00  0.00    +0.000 A 
ATOM     30  C   UNL     1       3.277   4.803  17.556  0.00  0.00    +0.000 A 
ATOM     31 CL   UNL     1       1.894   4.011  18.237  0.00  0.00    +0.000 Cl
ATOM     32  C   UNL     1       4.083   4.017  16.713  0.00  0.00    +0.000 A 
ENDBRANCH  20  29
ENDBRANCH   1  23
TORSDOF 4
ENDMDL
MODEL 2
REMARK VINA RESULT:      -7.8      1.671      1.998
REMARK  Name = 
REMARK  8 active torsions:
REMARK  status: ('A' for Active; 'I' for Inactive)
REMARK    1  A    between atoms: C_1  and  C_2
REMARK    2  A    between atoms: C_5  and  C_6
REMARK    3  A    between atoms: C_9  and  C_10
REMARK    4  A    between atoms: N_12  and  C_13
REMARK    5  A    between atoms: N_12  and  C_14
REMARK    6  A    between atoms: N_20  and  C_21
REMARK    7  A    between atoms: N_20  and  C_22
REMARK    8  A    between atoms: N_25  and  C_26
REMARK                            x       y       z     vdW  Elec       q    Type
REMARK                         _______ _______ _______ _____ _____    ______ ____
ROOT
ATOM      1  C   UNL     1       1.149   9.007  20.966  0.00  0.00    +0.000 C 
ATOM      2  O   UNL     1       1.420   9.286  22.138  0.00  0.00    +0.000 OA
ATOM      3  N   UNL     1       0.415   9.945  20.205  0.00  0.00    +0.000 N 
ATOM      4  C   UNL     1      -0.046   9.740  18.836  0.00  0.00    +0.000 C 
ENDROOT
BRANCH   3   5
ATOM      5  C   UNL     1       0.090  11.240  20.862  0.00  0.00    +0.000 C 
ATOM      6  C   UNL     1      -0.386  12.347  19.922  0.00  0.00    +0.000 C 
ATOM      7  C   UNL     1      -1.146  13.303  20.816  0.00  0.00    +0.000 C 
ATOM      8  N   UNL     1      -1.759  12.471  21.832  0.00  0.00    +0.000 N 
ATOM      9  C   UNL     1      -2.804  12.702  22.697  0.00  0.00    +0.000 C 
ATOM     10  O   UNL     1      -3.136  11.789  23.474  0.00  0.00    +0.000 OA
ATOM     11  N   UNL     1      -3.497  13.914  22.716  0.00  0.00    +0.000 N 
ATOM     12  C   UNL     1      -3.322  15.015  21.776  0.00  0.00    +0.000 C 
ATOM     13  C   UNL     1      -1.030  11.190  21.924  0.00  0.00    +0.000 C 
BRANCH  11  14
ATOM     14  C   UNL     1      -4.733  13.925  23.551  0.00  0.00    +0.000 C 
ATOM     15  C   UNL     1      -5.834  13.045  22.960  0.00  0.00    +0.000 C 
ATOM     16  C   UNL     1      -6.673  14.019  22.155  0.00  0.00    +0.000 C 
ATOM     17  N   UNL     1      -6.678  15.278  22.916  0.00  0.00    +0.000 NA
ATOM     18  C   UNL     1      -7.878  15.374  23.752  0.00  0.00    +0.000 C 
ATOM     19  C   UNL     1      -5.452  15.277  23.755  0.00  0.00    +0.000 C 
ENDBRANCH  11  14
ENDBRANCH   3   5
BRANCH   1  23
ATOM     20  C   UNL     1       2.842   6.179  18.818  0.00  0.00    +0.000 A 
ATOM     21  C   UNL     1       2.177   5.533  19.842  0.00  0.00    +0.000 A 
ATOM     22  C   UNL     1       1.527   6.432  20.747  0.00  0.00    +0.000 A 
ATOM     23  C   UNL     1       1.633   7.757  20.365  0.00  0.00    +0.000 A 
ATOM     24  S   UNL     1       2.602   7.879  18.943  0.00  0.00    +0.000 S 
BRANCH  20  29
ATOM     25  C   UNL     1       6.085   4.160  14.408  0.00  0.00    +0.000 C 
ATOM     26  C   UNL     1       5.283   4.671  15.570  0.00  0.00    +0.000 A 
ATOM     27  C   UNL     1       5.306   6.018  15.930  0.00  0.00    +0.000 A 
ATOM     28  C   UNL     1       4.518   6.481  16.993  0.00  0.00    +0.000 A 
ATOM     29  C   UNL     1       3.671   5.622  17.722  0.00  0.00    +0.000 A 
ATOM     30  C   UNL     1       3.677   4.261  17.363  0.00  0.00    +0.000 A 
ATOM     31 CL   UNL     1       2.679   3.074  18.138  0.00  0.00    +0.000 Cl
ATOM     32  C   UNL     1       4.479   3.795  16.306  0.00  0.00    +0.000 A 
ENDBRANCH  20  29
ENDBRANCH   1  23
TORSDOF 4
ENDMDL
MODEL 3
REMARK VINA RESULT:      -7.5      3.920     12.278
REMARK  Name = 
REMARK  8 active torsions:
REMARK  status: ('A' for Active; 'I' for Inactive)
REMARK    1  A    between atoms: C_1  and  C_2
REMARK    2  A    between atoms: C_5  and  C_6
REMARK    3  A    between atoms: C_9  and  C_10
REMARK    4  A    between atoms: N_12  and  C_13
REMARK    5  A    between atoms: N_12  and  C_14
REMARK    6  A    between atoms: N_20  and  C_21
REMARK    7  A    between atoms: N_20  and  C_22
REMARK    8  A    between atoms: N_25  and  C_26
REMARK                            x       y       z     vdW  Elec       q    Type
REMARK                         _______ _______ _______ _____ _____    ______ ____
ROOT
ATOM      1  C   UNL     1      -0.960  12.629  19.387  0.00  0.00    +0.000 C 
ATOM      2  O   UNL     1      -1.694  12.172  18.506  0.00  0.00    +0.000 OA
ATOM      3  N   UNL     1       0.199  11.901  19.740  0.00  0.00    +0.000 N 
ATOM      4  C   UNL     1       1.129  12.265  20.803  0.00  0.00    +0.000 C 
ENDROOT
BRANCH   3   5
ATOM      5  C   UNL     1       0.484  10.667  18.958  0.00  0.00    +0.000 C 
ATOM      6  C   UNL     1       1.704  10.743  18.041  0.00  0.00    +0.000 C 
ATOM      7  C   UNL     1       2.097   9.300  17.813  0.00  0.00    +0.000 C 
ATOM      8  N   UNL     1       1.770   8.614  19.047  0.00  0.00    +0.000 N 
ATOM      9  C   UNL     1       2.182   7.406  19.560  0.00  0.00    +0.000 C 
ATOM     10  O   UNL     1       1.740   7.058  20.670  0.00  0.00    +0.000 OA
ATOM     11  N   UNL     1       3.078   6.578  18.881  0.00  0.00    +0.000 N 
ATOM     12  C   UNL     1       3.788   6.911  17.652  0.00  0.00    +0.000 C 
ATOM     13  C   UNL     1       0.763   9.397  19.792  0.00  0.00    +0.000 C 
BRANCH  11  14
ATOM     14  C   UNL     1       3.590   5.418  19.668  0.00  0.00    +0.000 C 
ATOM     15  C   UNL     1       5.008   5.023  19.254  0.00  0.00    +0.000 C 
ATOM     16  C   UNL     1       4.787   3.917  18.242  0.00  0.00    +0.000 C 
ATOM     17  N   UNL     1       3.619   3.158  18.715  0.00  0.00    +0.000 NA
ATOM     18  C   UNL     1       4.041   1.984  19.485  0.00  0.00    +0.000 C 
ATOM     19  C   UNL     1       2.821   4.082  19.562  0.00  0.00    +0.000 C 
ENDBRANCH  11  14
ENDBRANCH   3   5
BRANCH   1  23
ATOM     20  C   UNL     1      -2.217  15.643  21.582  0.00  0.00    +0.000 A 
ATOM     21  C   UNL     1      -1.353  16.184  20.649  0.00  0.00    +0.000 A 
ATOM     22  C   UNL     1      -0.774  15.204  19.782  0.00  0.00    +0.000 A 
ATOM     23  C   UNL     1      -1.257  13.928  20.005  0.00  0.00    +0.000 A 
ATOM     24  S   UNL     1      -2.355  13.944  21.336  0.00  0.00    +0.000 S 
BRANCH  20  29
ATOM     25  C   UNL     1      -5.231  18.371  25.766  0.00  0.00    +0.000 C 
ATOM     26  C   UNL     1      -4.477  17.632  24.698  0.00  0.00    +0.000 A 
ATOM     27  C   UNL     1      -4.928  17.606  23.380  0.00  0.00    +0.000 A 
ATOM     28  C   UNL     1      -4.188  16.944  22.390  0.00  0.00    +0.000 A 
ATOM     29  C   UNL     1      -2.966  16.301  22.678  0.00  0.00    +0.000 A 
ATOM     30  C   UNL     1      -2.536  16.316  24.019  0.00  0.00    +0.000 A 
ATOM     31 CL   UNL     1      -1.048  15.596  24.542  0.00  0.00    +0.000 Cl
ATOM     32  C   UNL     1      -3.287  16.967  25.013  0.00  0.00    +0.000 A 
ENDBRANCH  20  29
ENDBRANCH   1  23
TORSDOF 4
ENDMDL
MODEL 4
REMARK VINA RESULT:      -7.4      3.718     11.989
REMARK  Name = 
REMARK  8 active torsions:
REMARK  status: ('A' for Active; 'I' for Inactive)
REMARK    1  A    between atoms: C_1  and  C_2
REMARK    2  A    between atoms: C_5  and  C_6
REMARK    3  A    between atoms: C_9  and  C_10
REMARK    4  A    between atoms: N_12  and  C_13
REMARK    5  A    between atoms: N_12  and  C_14
REMARK    6  A    between atoms: N_20  and  C_21
REMARK    7  A    between atoms: N_20  and  C_22
REMARK    8  A    between atoms: N_25  and  C_26
REMARK                            x       y       z     vdW  Elec       q    Type
REMARK                         _______ _______ _______ _____ _____    ______ ____
ROOT
ATOM      1  C   UNL     1      -1.035  11.364  22.108  0.00  0.00    +0.000 C 
ATOM      2  O   UNL     1      -0.394  11.169  23.145  0.00  0.00    +0.000 OA
ATOM      3  N   UNL     1      -0.593  10.740  20.919  0.00  0.00    +0.000 N 
ATOM      4  C   UNL     1      -1.193  10.922  19.602  0.00  0.00    +0.000 C 
ENDROOT
BRANCH   3   5
ATOM      5  C   UNL     1       0.578   9.830  21.030  0.00  0.00    +0.000 C 
ATOM      6  C   UNL     1       0.274   8.442  21.594  0.00  0.00    +0.000 C 
ATOM      7  C   UNL     1       1.416   7.577  21.106  0.00  0.00    +0.000 C 
ATOM      8  N   UNL     1       1.776   8.112  19.808  0.00  0.00    +0.000 N 
ATOM      9  C   UNL     1       2.487   7.574  18.760  0.00  0.00    +0.000 C 
ATOM     10  O   UNL     1       2.640   8.266  17.738  0.00  0.00    +0.000 OA
ATOM     11  N   UNL     1       3.023   6.286  18.812  0.00  0.00    +0.000 N 
ATOM     12  C   UNL     1       2.805   5.309  19.872  0.00  0.00    +0.000 C 
ATOM     13  C   UNL     1       1.304   9.508  19.705  0.00  0.00    +0.000 C 
BRANCH  11  14
ATOM     14  C   UNL     1       3.570   5.775  17.521  0.00  0.00    +0.000 C 
ATOM     15  C   UNL     1       3.416   4.260  17.390  0.00  0.00    +0.000 C 
ATOM     16  C   UNL     1       4.748   3.724  17.876  0.00  0.00    +0.000 C 
ATOM     17  N   UNL     1       5.765   4.685  17.420  0.00  0.00    +0.000 NA
ATOM     18  C   UNL     1       6.368   4.242  16.160  0.00  0.00    +0.000 C 
ATOM     19  C   UNL     1       5.076   5.988  17.243  0.00  0.00    +0.000 C 
ENDBRANCH  11  14
ENDBRANCH   3   5
BRANCH   1  23
ATOM     20  C   UNL     1      -4.122  13.683  21.354  0.00  0.00    +0.000 A 
ATOM     21  C   UNL     1      -4.285  13.241  22.653  0.00  0.00    +0.000 A 
ATOM     22  C   UNL     1      -3.251  12.348  23.079  0.00  0.00    +0.000 A 
ATOM     23  C   UNL     1      -2.261  12.172  22.130  0.00  0.00    +0.000 A 
ATOM     24  S   UNL     1      -2.664  13.047  20.698  0.00  0.00    +0.000 S 
BRANCH  20  29
ATOM     25  C   UNL     1      -7.519  17.281  18.263  0.00  0.00    +0.000 C 
ATOM     26  C   UNL     1      -6.618  16.353  19.025  0.00  0.00    +0.000 A 
ATOM     27  C   UNL     1      -5.594  16.840  19.836  0.00  0.00    +0.000 A 
ATOM     28  C   UNL     1      -4.790  15.957  20.570  0.00  0.00    +0.000 A 
ATOM     29  C   UNL     1      -4.988  14.562  20.533  0.00  0.00    +0.000 A 
ATOM     30  C   UNL     1      -6.011  14.083  19.691  0.00  0.00    +0.000 A 
ATOM     31 CL   UNL     1      -6.406  12.401  19.545  0.00  0.00    +0.000 Cl
ATOM     32  C   UNL     1      -6.807  14.969  18.943  0.00  0.00    +0.000 A 
ENDBRANCH  20  29
ENDBRANCH   1  23
TORSDOF 4
ENDMDL
MODEL 5
REMARK VINA RESULT:      -7.3      1.679      2.294
REMARK  Name = 
REMARK  8 active torsions:
REMARK  status: ('A' for Active; 'I' for Inactive)
REMARK    1  A    between atoms: C_1  and  C_2
REMARK    2  A    between atoms: C_5  and  C_6
REMARK    3  A    between atoms: C_9  and  C_10
REMARK    4  A    between atoms: N_12  and  C_13
REMARK    5  A    between atoms: N_12  and  C_14
REMARK    6  A    between atoms: N_20  and  C_21
REMARK    7  A    between atoms: N_20  and  C_22
REMARK    8  A    between atoms: N_25  and  C_26
REMARK                            x       y       z     vdW  Elec       q    Type
REMARK                         _______ _______ _______ _____ _____    ______ ____
ROOT
ATOM      1  C   UNL     1       1.380   8.611  20.827  0.00  0.00    +0.000 C 
ATOM      2  O   UNL     1       1.432   8.714  22.056  0.00  0.00    +0.000 OA
ATOM      3  N   UNL     1       0.925   9.721  20.080  0.00  0.00    +0.000 N 
ATOM      4  C   UNL     1       0.737   9.740  18.633  0.00  0.00    +0.000 C 
ENDROOT
BRANCH   3   5
ATOM      5  C   UNL     1       0.614  10.963  20.838  0.00  0.00    +0.000 C 
ATOM      6  C   UNL     1       1.114  12.259  20.200  0.00  0.00    +0.000 C 
ATOM      7  C   UNL     1       0.245  13.339  20.807  0.00  0.00    +0.000 C 
ATOM      8  N   UNL     1      -1.048  12.718  21.016  0.00  0.00    +0.000 N 
ATOM      9  C   UNL     1      -2.299  13.253  21.219  0.00  0.00    +0.000 C 
ATOM     10  O   UNL     1      -3.256  12.472  21.364  0.00  0.00    +0.000 OA
ATOM     11  N   UNL     1      -2.519  14.632  21.254  0.00  0.00    +0.000 N 
ATOM     12  C   UNL     1      -1.534  15.664  20.958  0.00  0.00    +0.000 C 
ATOM     13  C   UNL     1      -0.886  11.251  21.066  0.00  0.00    +0.000 C 
BRANCH  11  14
ATOM     14  C   UNL     1      -3.953  15.045  21.261  0.00  0.00    +0.000 C 
ATOM     15  C   UNL     1      -4.129  16.520  20.902  0.00  0.00    +0.000 C 
ATOM     16  C   UNL     1      -4.185  17.210  22.251  0.00  0.00    +0.000 C 
ATOM     17  N   UNL     1      -4.903  16.290  23.149  0.00  0.00    +0.000 NA
ATOM     18  C   UNL     1      -6.323  16.644  23.225  0.00  0.00    +0.000 C 
ATOM     19  C   UNL     1      -4.730  14.925  22.591  0.00  0.00    +0.000 C 
ENDBRANCH  11  14
ENDBRANCH   3   5
BRANCH   1  23
ATOM     20  C   UNL     1       3.040   5.867  18.547  0.00  0.00    +0.000 A 
ATOM     21  C   UNL     1       2.323   5.181  19.509  0.00  0.00    +0.000 A 
ATOM     22  C   UNL     1       1.677   6.043  20.452  0.00  0.00    +0.000 A 
ATOM     23  C   UNL     1       1.839   7.385  20.160  0.00  0.00    +0.000 A 
ATOM     24  S   UNL     1       2.854   7.563  18.777  0.00  0.00    +0.000 S 
BRANCH  20  29
ATOM     25  C   UNL     1       6.325   4.012  14.098  0.00  0.00    +0.000 C 
ATOM     26  C   UNL     1       5.513   4.482  15.270  0.00  0.00    +0.000 A 
ATOM     27  C   UNL     1       5.476   5.828  15.632  0.00  0.00    +0.000 A 
ATOM     28  C   UNL     1       4.679   6.251  16.705  0.00  0.00    +0.000 A 
ATOM     29  C   UNL     1       3.881   5.352  17.442  0.00  0.00    +0.000 A 
ATOM     30  C   UNL     1       3.948   3.993  17.079  0.00  0.00    +0.000 A 
ATOM     31 CL   UNL     1       3.016   2.759  17.863  0.00  0.00    +0.000 Cl
ATOM     32  C   UNL     1       4.760   3.567  16.013  0.00  0.00    +0.000 A 
ENDBRANCH  20  29
ENDBRANCH   1  23
TORSDOF 4
ENDMDL
MODEL 6
REMARK VINA RESULT:      -7.2      1.260      1.503
REMARK  Name = 
REMARK  8 active torsions:
REMARK  status: ('A' for Active; 'I' for Inactive)
REMARK    1  A    between atoms: C_1  and  C_2
REMARK    2  A    between atoms: C_5  and  C_6
REMARK    3  A    between atoms: C_9  and  C_10
REMARK    4  A    between atoms: N_12  and  C_13
REMARK    5  A    between atoms: N_12  and  C_14
REMARK    6  A    between atoms: N_20  and  C_21
REMARK    7  A    between atoms: N_20  and  C_22
REMARK    8  A    between atoms: N_25  and  C_26
REMARK                            x       y       z     vdW  Elec       q    Type
REMARK                         _______ _______ _______ _____ _____    ______ ____
ROOT
ATOM      1  C   UNL     1       0.737  10.295  19.879  0.00  0.00    +0.000 C 
ATOM      2  O   UNL     1       0.783  11.113  18.955  0.00  0.00    +0.000 OA
ATOM      3  N   UNL     1       0.037  10.649  21.055  0.00  0.00    +0.000 N 
ATOM      4  C   UNL     1      -0.051   9.831  22.259  0.00  0.00    +0.000 C 
ENDROOT
BRANCH   3   5
ATOM      5  C   UNL     1      -0.660  11.964  21.055  0.00  0.00    +0.000 C 
ATOM      6  C   UNL     1      -2.184  11.894  20.963  0.00  0.00    +0.000 C 
ATOM      7  C   UNL     1      -2.658  13.218  21.521  0.00  0.00    +0.000 C 
ATOM      8  N   UNL     1      -1.697  13.568  22.547  0.00  0.00    +0.000 N 
ATOM      9  C   UNL     1      -1.761  14.452  23.599  0.00  0.00    +0.000 C 
ATOM     10  O   UNL     1      -0.771  14.548  24.347  0.00  0.00    +0.000 OA
ATOM     11  N   UNL     1      -2.897  15.224  23.851  0.00  0.00    +0.000 N 
ATOM     12  C   UNL     1      -4.175  15.118  23.158  0.00  0.00    +0.000 C 
ATOM     13  C   UNL     1      -0.434  12.842  22.305  0.00  0.00    +0.000 C 
BRANCH  11  14
ATOM     14  C   UNL     1      -2.888  15.963  25.147  0.00  0.00    +0.000 C 
ATOM     15  C   UNL     1      -3.712  17.248  25.084  0.00  0.00    +0.000 C 
ATOM     16  C   UNL     1      -2.683  18.314  24.759  0.00  0.00    +0.000 C 
ATOM     17  N   UNL     1      -1.456  17.928  25.475  0.00  0.00    +0.000 NA
ATOM     18  C   UNL     1      -1.363  18.629  26.758  0.00  0.00    +0.000 C 
ATOM     19  C   UNL     1      -1.525  16.459  25.683  0.00  0.00    +0.000 C 
ENDBRANCH  11  14
ENDBRANCH   3   5
BRANCH   1  23
ATOM     20  C   UNL     1       2.641   7.046  18.741  0.00  0.00    +0.000 A 
ATOM     21  C   UNL     1       2.152   6.778  20.005  0.00  0.00    +0.000 A 
ATOM     22  C   UNL     1       1.453   7.884  20.584  0.00  0.00    +0.000 A 
ATOM     23  C   UNL     1       1.344   8.966  19.729  0.00  0.00    +0.000 A 
ATOM     24  S   UNL     1       2.177   8.631  18.256  0.00  0.00    +0.000 S 
BRANCH  20  29
ATOM     25  C   UNL     1       5.858   3.864  15.057  0.00  0.00    +0.000 C 
ATOM     26  C   UNL     1       5.059   4.675  16.036  0.00  0.00    +0.000 A 
ATOM     27  C   UNL     1       5.255   6.048  16.170  0.00  0.00    +0.000 A 
ATOM     28  C   UNL     1       4.471   6.793  17.062  0.00  0.00    +0.000 A 
ATOM     29  C   UNL     1       3.455   6.198  17.837  0.00  0.00    +0.000 A 
ATOM     30  C   UNL     1       3.284   4.806  17.709  0.00  0.00    +0.000 A 
ATOM     31 CL   UNL     1       2.068   3.920  18.568  0.00  0.00    +0.000 Cl
ATOM     32  C   UNL     1       4.083   4.058  16.825  0.00  0.00    +0.000 A 
ENDBRANCH  20  29
ENDBRANCH   1  23
TORSDOF 4
ENDMDL
MODEL 7
REMARK VINA RESULT:      -7.2      1.788      2.482
REMARK  Name = 
REMARK  8 active torsions:
REMARK  status: ('A' for Active; 'I' for Inactive)
REMARK    1  A    between atoms: C_1  and  C_2
REMARK    2  A    between atoms: C_5  and  C_6
REMARK    3  A    between atoms: C_9  and  C_10
REMARK    4  A    between atoms: N_12  and  C_13
REMARK    5  A    between atoms: N_12  and  C_14
REMARK    6  A    between atoms: N_20  and  C_21
REMARK    7  A    between atoms: N_20  and  C_22
REMARK    8  A    between atoms: N_25  and  C_26
REMARK                            x       y       z     vdW  Elec       q    Type
REMARK                         _______ _______ _______ _____ _____    ______ ____
ROOT
ATOM      1  C   UNL     1       0.869  10.189  20.723  0.00  0.00    +0.000 C 
ATOM      2  O   UNL     1       0.916   9.902  21.922  0.00  0.00    +0.000 OA
ATOM      3  N   UNL     1       0.370  11.460  20.356  0.00  0.00    +0.000 N 
ATOM      4  C   UNL     1       0.183  11.927  18.987  0.00  0.00    +0.000 C 
ENDROOT
BRANCH   3   5
ATOM      5  C   UNL     1       0.007  12.387  21.463  0.00  0.00    +0.000 C 
ATOM      6  C   UNL     1       0.219  13.871  21.166  0.00  0.00    +0.000 C 
ATOM      7  C   UNL     1      -0.690  14.586  22.142  0.00  0.00    +0.000 C 
ATOM      8  N   UNL     1      -1.837  13.715  22.305  0.00  0.00    +0.000 N 
ATOM      9  C   UNL     1      -3.106  13.951  22.783  0.00  0.00    +0.000 C 
ATOM     10  O   UNL     1      -3.911  13.003  22.803  0.00  0.00    +0.000 OA
ATOM     11  N   UNL     1      -3.508  15.212  23.228  0.00  0.00    +0.000 N 
ATOM     12  C   UNL     1      -2.732  16.442  23.131  0.00  0.00    +0.000 C 
ATOM     13  C   UNL     1      -1.467  12.338  21.921  0.00  0.00    +0.000 C 
BRANCH  11  14
ATOM     14  C   UNL     1      -4.968  15.351  23.504  0.00  0.00    +0.000 C 
ATOM     15  C   UNL     1      -5.804  15.290  22.227  0.00  0.00    +0.000 C 
ATOM     16  C   UNL     1      -5.992  16.748  21.856  0.00  0.00    +0.000 C 
ATOM     17  N   UNL     1      -6.131  17.477  23.127  0.00  0.00    +0.000 NA
ATOM     18  C   UNL     1      -7.544  17.672  23.461  0.00  0.00    +0.000 C 
ATOM     19  C   UNL     1      -5.453  16.660  24.166  0.00  0.00    +0.000 C 
ENDBRANCH  11  14
ENDBRANCH   3   5
BRANCH   1  23
ATOM     20  C   UNL     1       2.204   7.126  18.647  0.00  0.00    +0.000 A 
ATOM     21  C   UNL     1       2.101   8.175  17.754  0.00  0.00    +0.000 A 
ATOM     22  C   UNL     1       1.591   9.373  18.349  0.00  0.00    +0.000 A 
ATOM     23  C   UNL     1       1.380   9.255  19.710  0.00  0.00    +0.000 A 
ATOM     24  S   UNL     1       1.735   7.645  20.219  0.00  0.00    +0.000 S 
BRANCH  20  29
ATOM     25  C   UNL     1       3.773   1.554  17.918  0.00  0.00    +0.000 C 
ATOM     26  C   UNL     1       3.353   2.988  18.065  0.00  0.00    +0.000 A 
ATOM     27  C   UNL     1       2.107   3.328  18.588  0.00  0.00    +0.000 A 
ATOM     28  C   UNL     1       1.750   4.674  18.754  0.00  0.00    +0.000 A 
ATOM     29  C   UNL     1       2.630   5.724  18.421  0.00  0.00    +0.000 A 
ATOM     30  C   UNL     1       3.876   5.365  17.871  0.00  0.00    +0.000 A 
ATOM     31 CL   UNL     1       5.084   6.527  17.428  0.00  0.00    +0.000 Cl
ATOM     32  C   UNL     1       4.225   4.015  17.691  0.00  0.00    +0.000 A 
ENDBRANCH  20  29
ENDBRANCH   1  23
TORSDOF 4
ENDMDL
MODEL 8
REMARK VINA RESULT:      -7.2      2.292      3.033
REMARK  Name = 
REMARK  8 active torsions:
REMARK  status: ('A' for Active; 'I' for Inactive)
REMARK    1  A    between atoms: C_1  and  C_2
REMARK    2  A    between atoms: C_5  and  C_6
REMARK    3  A    between atoms: C_9  and  C_10
REMARK    4  A    between atoms: N_12  and  C_13
REMARK    5  A    between atoms: N_12  and  C_14
REMARK    6  A    between atoms: N_20  and  C_21
REMARK    7  A    between atoms: N_20  and  C_22
REMARK    8  A    between atoms: N_25  and  C_26
REMARK                            x       y       z     vdW  Elec       q    Type
REMARK                         _______ _______ _______ _____ _____    ______ ____
ROOT
ATOM      1  C   UNL     1       0.824  10.282  20.169  0.00  0.00    +0.000 C 
ATOM      2  O   UNL     1       1.154  10.405  21.353  0.00  0.00    +0.000 OA
ATOM      3  N   UNL     1      -0.139  11.175  19.645  0.00  0.00    +0.000 N 
ATOM      4  C   UNL     1      -0.688  11.121  18.295  0.00  0.00    +0.000 C 
ENDROOT
BRANCH   3   5
ATOM      5  C   UNL     1      -0.627  12.249  20.552  0.00  0.00    +0.000 C 
ATOM      6  C   UNL     1      -0.229  13.670  20.152  0.00  0.00    +0.000 C 
ATOM      7  C   UNL     1      -1.244  14.555  20.842  0.00  0.00    +0.000 C 
ATOM      8  N   UNL     1      -2.474  13.789  20.856  0.00  0.00    +0.000 N 
ATOM      9  C   UNL     1      -3.785  14.165  21.037  0.00  0.00    +0.000 C 
ATOM     10  O   UNL     1      -4.661  13.282  20.991  0.00  0.00    +0.000 OA
ATOM     11  N   UNL     1      -4.152  15.494  21.258  0.00  0.00    +0.000 N 
ATOM     12  C   UNL     1      -3.265  16.649  21.195  0.00  0.00    +0.000 C 
ATOM     13  C   UNL     1      -2.161  12.354  20.702  0.00  0.00    +0.000 C 
BRANCH  11  14
ATOM     14  C   UNL     1      -5.619  15.762  21.214  0.00  0.00    +0.000 C 
ATOM     15  C   UNL     1      -6.161  15.765  19.785  0.00  0.00    +0.000 C 
ATOM     16  C   UNL     1      -6.137  17.231  19.398  0.00  0.00    +0.000 C 
ATOM     17  N   UNL     1      -6.483  17.979  20.617  0.00  0.00    +0.000 NA
ATOM     18  C   UNL     1      -7.913  18.299  20.640  0.00  0.00    +0.000 C 
ATOM     19  C   UNL     1      -6.121  17.114  21.769  0.00  0.00    +0.000 C 
ENDBRANCH  11  14
ENDBRANCH   3   5
BRANCH   1  23
ATOM     20  C   UNL     1       2.353   7.053  18.523  0.00  0.00    +0.000 A 
ATOM     21  C   UNL     1       2.489   8.060  17.586  0.00  0.00    +0.000 A 
ATOM     22  C   UNL     1       1.946   9.310  18.020  0.00  0.00    +0.000 A 
ATOM     23  C   UNL     1       1.465   9.273  19.316  0.00  0.00    +0.000 A 
ATOM     24  S   UNL     1       1.617   7.675  19.949  0.00  0.00    +0.000 S 
BRANCH  20  29
ATOM     25  C   UNL     1       3.704   1.380  18.350  0.00  0.00    +0.000 C 
ATOM     26  C   UNL     1       3.346   2.838  18.352  0.00  0.00    +0.000 A 
ATOM     27  C   UNL     1       2.059   3.268  18.670  0.00  0.00    +0.000 A 
ATOM     28  C   UNL     1       1.756   4.636  18.706  0.00  0.00    +0.000 A 
ATOM     29  C   UNL     1       2.729   5.622  18.442  0.00  0.00    +0.000 A 
ATOM     30  C   UNL     1       4.019   5.172  18.098  0.00  0.00    +0.000 A 
ATOM     31 CL   UNL     1       5.338   6.247  17.767  0.00  0.00    +0.000 Cl
ATOM     32  C   UNL     1       4.317   3.798  18.048  0.00  0.00    +0.000 A 
ENDBRANCH  20  29
ENDBRANCH   1  23
TORSDOF 4
ENDMDL
MODEL 9
REMARK VINA RESULT:      -7.1      2.420      4.090
REMARK  Name = 
REMARK  8 active torsions:
REMARK  status: ('A' for Active; 'I' for Inactive)
REMARK    1  A    between atoms: C_1  and  C_2
REMARK    2  A    between atoms: C_5  and  C_6
REMARK    3  A    between atoms: C_9  and  C_10
REMARK    4  A    between atoms: N_12  and  C_13
REMARK    5  A    between atoms: N_12  and  C_14
REMARK    6  A    between atoms: N_20  and  C_21
REMARK    7  A    between atoms: N_20  and  C_22
REMARK    8  A    between atoms: N_25  and  C_26
REMARK                            x       y       z     vdW  Elec       q    Type
REMARK                         _______ _______ _______ _____ _____    ______ ____
ROOT
ATOM      1  C   UNL     1       2.057   6.465  20.114  0.00  0.00    +0.000 C 
ATOM      2  O   UNL     1       1.408   5.885  20.989  0.00  0.00    +0.000 OA
ATOM      3  N   UNL     1       1.750   7.816  19.834  0.00  0.00    +0.000 N 
ATOM      4  C   UNL     1       2.370   8.620  18.788  0.00  0.00    +0.000 C 
ENDROOT
BRANCH   3   5
ATOM      5  C   UNL     1       0.708   8.460  20.680  0.00  0.00    +0.000 C 
ATOM      6  C   UNL     1       1.231   9.190  21.916  0.00  0.00    +0.000 C 
ATOM      7  C   UNL     1       0.135  10.172  22.268  0.00  0.00    +0.000 C 
ATOM      8  N   UNL     1      -0.448  10.566  21.001  0.00  0.00    +0.000 N 
ATOM      9  C   UNL     1      -1.229  11.642  20.647  0.00  0.00    +0.000 C 
ATOM     10  O   UNL     1      -1.590  11.741  19.461  0.00  0.00    +0.000 OA
ATOM     11  N   UNL     1      -1.612  12.616  21.571  0.00  0.00    +0.000 N 
ATOM     12  C   UNL     1      -1.153  12.715  22.951  0.00  0.00    +0.000 C 
ATOM     13  C   UNL     1      -0.147   9.540  19.982  0.00  0.00    +0.000 C 
BRANCH  11  14
ATOM     14  C   UNL     1      -2.267  13.822  20.986  0.00  0.00    +0.000 C 
ATOM     15  C   UNL     1      -1.249  14.873  20.545  0.00  0.00    +0.000 C 
ATOM     16  C   UNL     1      -1.165  15.808  21.737  0.00  0.00    +0.000 C 
ATOM     17  N   UNL     1      -2.525  15.882  22.293  0.00  0.00    +0.000 NA
ATOM     18  C   UNL     1      -3.232  17.058  21.778  0.00  0.00    +0.000 C 
ATOM     19  C   UNL     1      -3.222  14.633  21.891  0.00  0.00    +0.000 C 
ENDBRANCH  11  14
ENDBRANCH   3   5
BRANCH   1  23
ATOM     20  C   UNL     1       4.743   5.070  17.600  0.00  0.00    +0.000 A 
ATOM     21  C   UNL     1       5.054   4.526  18.831  0.00  0.00    +0.000 A 
ATOM     22  C   UNL     1       4.182   4.965  19.878  0.00  0.00    +0.000 A 
ATOM     23  C   UNL     1       3.161   5.781  19.427  0.00  0.00    +0.000 A 
ATOM     24  S   UNL     1       3.341   6.061  17.734  0.00  0.00    +0.000 S 
BRANCH  20  29
ATOM     25  C   UNL     1       7.351   4.274  12.443  0.00  0.00    +0.000 C 
ATOM     26  C   UNL     1       6.660   4.513  13.753  0.00  0.00    +0.000 A 
ATOM     27  C   UNL     1       5.444   3.902  14.053  0.00  0.00    +0.000 A 
ATOM     28  C   UNL     1       4.834   4.108  15.299  0.00  0.00    +0.000 A 
ATOM     29  C   UNL     1       5.424   4.915  16.293  0.00  0.00    +0.000 A 
ATOM     30  C   UNL     1       6.640   5.545  15.967  0.00  0.00    +0.000 A 
ATOM     31 CL   UNL     1       7.512   6.551  17.078  0.00  0.00    +0.000 Cl
ATOM     32  C   UNL     1       7.242   5.350  14.711  0.00  0.00    +0.000 A 
ENDBRANCH  20  29
ENDBRANCH   1  23
TORSDOF 4
ENDMDL
