MODEL 1
REMARK VINA RESULT:      -8.2      0.000      0.000
REMARK  Name = 
REMARK  10 active torsions:
REMARK  status: ('A' for Active; 'I' for Inactive)
REMARK    1  A    between atoms: C_1  and  O_2
REMARK    2  A    between atoms: O_2  and  C_3
REMARK    3  A    between atoms: C_9  and  C_10
REMARK    4  A    between atoms: C_13  and  N_14
REMARK    5  A    between atoms: C_17  and  C_18
REMARK    6  A    between atoms: C_18  and  C_19
REMARK    7  A    between atoms: C_18  and  C_20
REMARK    8  A    between atoms: C_18  and  O_21
REMARK    9  A    between atoms: C_24  and  C_25
REMARK   10  A    between atoms: C_29  and  C_30
REMARK                            x       y       z     vdW  Elec       q    Type
REMARK                         _______ _______ _______ _____ _____    ______ ____
ROOT
ATOM      1  C   UNL     1       2.063   7.318  18.553  0.00  0.00    +0.000 A 
ATOM      2  C   UNL     1       1.821   8.368  17.682  0.00  0.00    +0.000 A 
ATOM      3  N   UNL     1       1.394   9.595  18.054  0.00  0.00    +0.000 NA
ATOM      4  C   UNL     1       1.119   9.848  19.353  0.00  0.00    +0.000 A 
ATOM      5  C   UNL     1       1.274   8.838  20.306  0.00  0.00    +0.000 A 
ATOM      6  C   UNL     1       0.800   8.903  21.732  0.00  0.00    +0.000 C 
ATOM      7  C   UNL     1       1.839   7.616  19.899  0.00  0.00    +0.000 A 
ENDROOT
BRANCH   1  14
ATOM      8  C   UNL     1       6.338   5.080  16.488  0.00  0.00    +0.000 A 
ATOM      9  C   UNL     1       5.313   4.131  16.560  0.00  0.00    +0.000 A 
ATOM     10  C   UNL     1       4.073   4.422  17.109  0.00  0.00    +0.000 A 
ATOM     11  N   UNL     1       3.134   3.465  17.102  0.00  0.00    +0.000 NA
ATOM     12  N   UNL     1       1.892   3.704  17.584  0.00  0.00    +0.000 NA
ATOM     13  C   UNL     1       1.596   4.935  18.041  0.00  0.00    +0.000 A 
ATOM     14  C   UNL     1       2.508   5.987  18.088  0.00  0.00    +0.000 A 
ATOM     15  C   UNL     1       3.829   5.702  17.637  0.00  0.00    +0.000 A 
ATOM     16  C   UNL     1       4.923   6.607  17.678  0.00  0.00    +0.000 A 
ATOM     17  C   UNL     1       6.152   6.331  17.068  0.00  0.00    +0.000 A 
ATOM     18  C   UNL     1       7.226   7.386  17.072  0.00  0.00    +0.000 C 
BRANCH   8  20
ATOM     19  C   UNL     1       7.530   4.790  14.468  0.00  0.00    +0.000 C 
ATOM     20  O   UNL     1       7.549   4.844  15.893  0.00  0.00    +0.000 OA
ENDBRANCH   8  20
ENDBRANCH   1  14
BRANCH   4  21
ATOM     21  N   UNL     1       0.695  11.128  19.644  0.00  0.00    +0.000 N 
ATOM     22  C   UNL     1      -0.690  11.467  19.332  0.00  0.00    +0.000 C 
ATOM     23  C   UNL     1      -0.806  12.788  18.583  0.00  0.00    +0.000 C 
ATOM     24  C   UNL     1       0.029  13.934  19.178  0.00  0.00    +0.000 C 
ATOM     25  C   UNL     1       1.477  13.442  19.296  0.00  0.00    +0.000 C 
ATOM     26  C   UNL     1       1.627  12.153  20.087  0.00  0.00    +0.000 C 
BRANCH  24  27
ATOM     27  C   UNL     1      -0.581  14.649  20.428  0.00  0.00    +0.000 C 
ATOM     28  C   UNL     1      -0.505  13.940  21.782  0.00  0.00    +0.000 C 
ATOM     29  C   UNL     1       0.016  16.055  20.594  0.00  0.00    +0.000 C 
BRANCH  27  30
ATOM     30  O   UNL     1      -1.978  14.858  20.157  0.00  0.00    +0.000 OA
ATOM     31  H   UNL     1      -2.385  15.271  20.937  0.00  0.00    +0.000 HD
ENDBRANCH  27  30
ENDBRANCH  24  27
ENDBRANCH   4  21
TORSDOF 5
ENDMDL
MODEL 2
REMARK VINA RESULT:      -8.1      0.776      1.411
REMARK  Name = 
REMARK  10 active torsions:
REMARK  status: ('A' for Active; 'I' for Inactive)
REMARK    1  A    between atoms: C_1  and  O_2
REMARK    2  A    between atoms: O_2  and  C_3
REMARK    3  A    between atoms: C_9  and  C_10
REMARK    4  A    between atoms: C_13  and  N_14
REMARK    5  A    between atoms: C_17  and  C_18
REMARK    6  A    between atoms: C_18  and  C_19
REMARK    7  A    between atoms: C_18  and  C_20
REMARK    8  A    between atoms: C_18  and  O_21
REMARK    9  A    between atoms: C_24  and  C_25
REMARK   10  A    between atoms: C_29  and  C_30
REMARK                            x       y       z     vdW  Elec       q    Type
REMARK                         _______ _______ _______ _____ _____    ______ ____
ROOT
ATOM      1  C   UNL     1       2.074   7.273  18.588  0.00  0.00    +0.000 A 
ATOM      2  C   UNL     1       1.713   8.305  17.736  0.00  0.00    +0.000 A 
ATOM      3  N   UNL     1       1.292   9.524  18.139  0.00  0.00    +0.000 NA
ATOM      4  C   UNL     1       1.145   9.785  19.458  0.00  0.00    +0.000 A 
ATOM      5  C   UNL     1       1.425   8.791  20.399  0.00  0.00    +0.000 A 
ATOM      6  C   UNL     1       1.099   8.860  21.865  0.00  0.00    +0.000 C 
ATOM      7  C   UNL     1       1.981   7.581  19.947  0.00  0.00    +0.000 A 
ENDROOT
BRANCH   1  14
ATOM      8  C   UNL     1       6.326   5.046  16.467  0.00  0.00    +0.000 A 
ATOM      9  C   UNL     1       5.294   4.104  16.518  0.00  0.00    +0.000 A 
ATOM     10  C   UNL     1       4.057   4.393  17.074  0.00  0.00    +0.000 A 
ATOM     11  N   UNL     1       3.110   3.445  17.047  0.00  0.00    +0.000 NA
ATOM     12  N   UNL     1       1.870   3.684  17.536  0.00  0.00    +0.000 NA
ATOM     13  C   UNL     1       1.586   4.906  18.022  0.00  0.00    +0.000 A 
ATOM     14  C   UNL     1       2.507   5.949  18.091  0.00  0.00    +0.000 A 
ATOM     15  C   UNL     1       3.825   5.663  17.632  0.00  0.00    +0.000 A 
ATOM     16  C   UNL     1       4.926   6.558  17.693  0.00  0.00    +0.000 A 
ATOM     17  C   UNL     1       6.152   6.284  17.075  0.00  0.00    +0.000 A 
ATOM     18  C   UNL     1       7.235   7.330  17.103  0.00  0.00    +0.000 C 
BRANCH   8  20
ATOM     19  C   UNL     1       7.512   4.783  14.438  0.00  0.00    +0.000 C 
ATOM     20  O   UNL     1       7.535   4.813  15.864  0.00  0.00    +0.000 OA
ENDBRANCH   8  20
ENDBRANCH   1  14
BRANCH   4  21
ATOM     21  N   UNL     1       0.716  11.056  19.779  0.00  0.00    +0.000 N 
ATOM     22  C   UNL     1       1.669  12.150  19.625  0.00  0.00    +0.000 C 
ATOM     23  C   UNL     1       1.714  13.054  20.849  0.00  0.00    +0.000 C 
ATOM     24  C   UNL     1       0.335  13.461  21.393  0.00  0.00    +0.000 C 
ATOM     25  C   UNL     1      -0.470  12.177  21.631  0.00  0.00    +0.000 C 
ATOM     26  C   UNL     1      -0.577  11.283  20.407  0.00  0.00    +0.000 C 
BRANCH  24  27
ATOM     27  C   UNL     1      -0.387  14.619  20.631  0.00  0.00    +0.000 C 
ATOM     28  C   UNL     1      -0.308  14.647  19.102  0.00  0.00    +0.000 C 
ATOM     29  C   UNL     1      -1.869  14.690  21.030  0.00  0.00    +0.000 C 
BRANCH  27  30
ATOM     30  O   UNL     1       0.190  15.854  21.089  0.00  0.00    +0.000 OA
ATOM     31  H   UNL     1       1.072  15.949  20.691  0.00  0.00    +0.000 HD
ENDBRANCH  27  30
ENDBRANCH  24  27
ENDBRANCH   4  21
TORSDOF 5
ENDMDL
MODEL 3
REMARK VINA RESULT:      -7.8      2.126      3.181
REMARK  Name = 
REMARK  10 active torsions:
REMARK  status: ('A' for Active; 'I' for Inactive)
REMARK    1  A    between atoms: C_1  and  O_2
REMARK    2  A    between atoms: O_2  and  C_3
REMARK    3  A    between atoms: C_9  and  C_10
REMARK    4  A    between atoms: C_13  and  N_14
REMARK    5  A    between atoms: C_17  and  C_18
REMARK    6  A    between atoms: C_18  and  C_19
REMARK    7  A    between atoms: C_18  and  C_20
REMARK    8  A    between atoms: C_18  and  O_21
REMARK    9  A    between atoms: C_24  and  C_25
REMARK   10  A    between atoms: C_29  and  C_30
REMARK                            x       y       z     vdW  Elec       q    Type
REMARK                         _______ _______ _______ _____ _____    ______ ____
ROOT
ATOM      1  C   UNL     1       2.457   7.982  18.414  0.00  0.00    +0.000 A 
ATOM      2  C   UNL     1       1.948   9.087  17.750  0.00  0.00    +0.000 A 
ATOM      3  N   UNL     1       1.128  10.008  18.303  0.00  0.00    +0.000 NA
ATOM      4  C   UNL     1       0.703   9.854  19.578  0.00  0.00    +0.000 A 
ATOM      5  C   UNL     1       1.112   8.741  20.317  0.00  0.00    +0.000 A 
ATOM      6  C   UNL     1       0.551   8.324  21.649  0.00  0.00    +0.000 C 
ATOM      7  C   UNL     1       2.063   7.874  19.749  0.00  0.00    +0.000 A 
ENDROOT
BRANCH   1  14
ATOM      8  C   UNL     1       2.988   2.772  18.085  0.00  0.00    +0.000 A 
ATOM      9  C   UNL     1       4.025   3.383  17.373  0.00  0.00    +0.000 A 
ATOM     10  C   UNL     1       4.119   4.761  17.242  0.00  0.00    +0.000 A 
ATOM     11  N   UNL     1       5.167   5.266  16.576  0.00  0.00    +0.000 NA
ATOM     12  N   UNL     1       5.335   6.605  16.453  0.00  0.00    +0.000 NA
ATOM     13  C   UNL     1       4.451   7.429  17.043  0.00  0.00    +0.000 A 
ATOM     14  C   UNL     1       3.334   6.992  17.752  0.00  0.00    +0.000 A 
ATOM     15  C   UNL     1       3.135   5.583  17.818  0.00  0.00    +0.000 A 
ATOM     16  C   UNL     1       2.020   4.940  18.419  0.00  0.00    +0.000 A 
ATOM     17  C   UNL     1       1.961   3.554  18.603  0.00  0.00    +0.000 A 
ATOM     18  C   UNL     1       0.788   2.962  19.338  0.00  0.00    +0.000 C 
BRANCH   8  20
ATOM     19  C   UNL     1       4.054   0.817  18.881  0.00  0.00    +0.000 C 
ATOM     20  O   UNL     1       2.904   1.419  18.289  0.00  0.00    +0.000 OA
ENDBRANCH   8  20
ENDBRANCH   1  14
BRANCH   4  21
ATOM     21  N   UNL     1      -0.126  10.843  20.063  0.00  0.00    +0.000 N 
ATOM     22  C   UNL     1      -1.450  10.970  19.460  0.00  0.00    +0.000 C 
ATOM     23  C   UNL     1      -1.781  12.410  19.094  0.00  0.00    +0.000 C 
ATOM     24  C   UNL     1      -1.463  13.438  20.192  0.00  0.00    +0.000 C 
ATOM     25  C   UNL     1       0.006  13.250  20.594  0.00  0.00    +0.000 C 
ATOM     26  C   UNL     1       0.351  11.832  21.018  0.00  0.00    +0.000 C 
BRANCH  24  27
ATOM     27  C   UNL     1      -2.507  13.548  21.351  0.00  0.00    +0.000 C 
ATOM     28  C   UNL     1      -2.373  12.599  22.545  0.00  0.00    +0.000 C 
ATOM     29  C   UNL     1      -2.568  14.985  21.892  0.00  0.00    +0.000 C 
BRANCH  27  30
ATOM     30  O   UNL     1      -3.803  13.300  20.779  0.00  0.00    +0.000 OA
ATOM     31  H   UNL     1      -3.772  13.528  19.835  0.00  0.00    +0.000 HD
ENDBRANCH  27  30
ENDBRANCH  24  27
ENDBRANCH   4  21
TORSDOF 5
ENDMDL
MODEL 4
REMARK VINA RESULT:      -7.8      1.293      1.427
REMARK  Name = 
REMARK  10 active torsions:
REMARK  status: ('A' for Active; 'I' for Inactive)
REMARK    1  A    between atoms: C_1  and  O_2
REMARK    2  A    between atoms: O_2  and  C_3
REMARK    3  A    between atoms: C_9  and  C_10
REMARK    4  A    between atoms: C_13  and  N_14
REMARK    5  A    between atoms: C_17  and  C_18
REMARK    6  A    between atoms: C_18  and  C_19
REMARK    7  A    between atoms: C_18  and  C_20
REMARK    8  A    between atoms: C_18  and  O_21
REMARK    9  A    between atoms: C_24  and  C_25
REMARK   10  A    between atoms: C_29  and  C_30
REMARK                            x       y       z     vdW  Elec       q    Type
REMARK                         _______ _______ _______ _____ _____    ______ ____
ROOT
ATOM      1  C   UNL     1       1.849   7.357  20.009  0.00  0.00    +0.000 A 
ATOM      2  C   UNL     1       1.814   8.206  18.915  0.00  0.00    +0.000 A 
ATOM      3  N   UNL     1       1.377   9.484  18.945  0.00  0.00    +0.000 NA
ATOM      4  C   UNL     1       0.880  10.000  20.091  0.00  0.00    +0.000 A 
ATOM      5  C   UNL     1       0.815   9.208  21.240  0.00  0.00    +0.000 A 
ATOM      6  C   UNL     1       0.091   9.566  22.509  0.00  0.00    +0.000 C 
ATOM      7  C   UNL     1       1.394   7.926  21.201  0.00  0.00    +0.000 A 
ENDROOT
BRANCH   1  14
ATOM      8  C   UNL     1       5.552   4.589  17.526  0.00  0.00    +0.000 A 
ATOM      9  C   UNL     1       4.749   3.717  18.269  0.00  0.00    +0.000 A 
ATOM     10  C   UNL     1       3.711   4.169  19.070  0.00  0.00    +0.000 A 
ATOM     11  N   UNL     1       2.965   3.262  19.717  0.00  0.00    +0.000 NA
ATOM     12  N   UNL     1       1.912   3.642  20.479  0.00  0.00    +0.000 NA
ATOM     13  C   UNL     1       1.598   4.948  20.551  0.00  0.00    +0.000 A 
ATOM     14  C   UNL     1       2.316   5.957  19.914  0.00  0.00    +0.000 A 
ATOM     15  C   UNL     1       3.459   5.548  19.169  0.00  0.00    +0.000 A 
ATOM     16  C   UNL     1       4.369   6.424  18.517  0.00  0.00    +0.000 A 
ATOM     17  C   UNL     1       5.375   5.961  17.661  0.00  0.00    +0.000 A 
ATOM     18  C   UNL     1       6.233   6.961  16.932  0.00  0.00    +0.000 C 
BRANCH   8  20
ATOM     19  C   UNL     1       6.095   3.713  15.399  0.00  0.00    +0.000 C 
ATOM     20  O   UNL     1       6.540   4.169  16.675  0.00  0.00    +0.000 OA
ENDBRANCH   8  20
ENDBRANCH   1  14
BRANCH   4  21
ATOM     21  N   UNL     1       0.462  11.313  20.033  0.00  0.00    +0.000 N 
ATOM     22  C   UNL     1      -0.919  11.566  19.635  0.00  0.00    +0.000 C 
ATOM     23  C   UNL     1      -1.025  12.643  18.565  0.00  0.00    +0.000 C 
ATOM     24  C   UNL     1      -0.184  13.901  18.841  0.00  0.00    +0.000 C 
ATOM     25  C   UNL     1       1.260  13.451  19.092  0.00  0.00    +0.000 C 
ATOM     26  C   UNL     1       1.399  12.414  20.195  0.00  0.00    +0.000 C 
BRANCH  24  27
ATOM     27  C   UNL     1      -0.794  14.923  19.856  0.00  0.00    +0.000 C 
ATOM     28  C   UNL     1      -0.279  14.915  21.297  0.00  0.00    +0.000 C 
ATOM     29  C   UNL     1      -0.677  16.357  19.318  0.00  0.00    +0.000 C 
BRANCH  27  30
ATOM     30  O   UNL     1      -2.206  14.657  19.929  0.00  0.00    +0.000 OA
ATOM     31  H   UNL     1      -2.436  14.020  19.232  0.00  0.00    +0.000 HD
ENDBRANCH  27  30
ENDBRANCH  24  27
ENDBRANCH   4  21
TORSDOF 5
ENDMDL
MODEL 5
REMARK VINA RESULT:      -7.6      1.470      2.123
REMARK  Name = 
REMARK  10 active torsions:
REMARK  status: ('A' for Active; 'I' for Inactive)
REMARK    1  A    between atoms: C_1  and  O_2
REMARK    2  A    between atoms: O_2  and  C_3
REMARK    3  A    between atoms: C_9  and  C_10
REMARK    4  A    between atoms: C_13  and  N_14
REMARK    5  A    between atoms: C_17  and  C_18
REMARK    6  A    between atoms: C_18  and  C_19
REMARK    7  A    between atoms: C_18  and  C_20
REMARK    8  A    between atoms: C_18  and  O_21
REMARK    9  A    between atoms: C_24  and  C_25
REMARK   10  A    between atoms: C_29  and  C_30
REMARK                            x       y       z     vdW  Elec       q    Type
REMARK                         _______ _______ _______ _____ _____    ______ ____
ROOT
ATOM      1  C   UNL     1       2.080   6.809  18.995  0.00  0.00    +0.000 A 
ATOM      2  C   UNL     1       1.609   6.989  20.286  0.00  0.00    +0.000 A 
ATOM      3  N   UNL     1       1.121   8.151  20.772  0.00  0.00    +0.000 NA
ATOM      4  C   UNL     1       1.122   9.260  19.998  0.00  0.00    +0.000 A 
ATOM      5  C   UNL     1       1.631   9.200  18.699  0.00  0.00    +0.000 A 
ATOM      6  C   UNL     1       1.902  10.384  17.811  0.00  0.00    +0.000 C 
ATOM      7  C   UNL     1       2.012   7.946  18.188  0.00  0.00    +0.000 A 
ENDROOT
BRANCH   1  14
ATOM      8  C   UNL     1       6.363   4.978  16.577  0.00  0.00    +0.000 A 
ATOM      9  C   UNL     1       5.463   3.926  16.773  0.00  0.00    +0.000 A 
ATOM     10  C   UNL     1       4.256   4.100  17.433  0.00  0.00    +0.000 A 
ATOM     11  N   UNL     1       3.433   3.046  17.543  0.00  0.00    +0.000 NA
ATOM     12  N   UNL     1       2.223   3.166  18.139  0.00  0.00    +0.000 NA
ATOM     13  C   UNL     1       1.837   4.372  18.592  0.00  0.00    +0.000 A 
ATOM     14  C   UNL     1       2.625   5.518  18.522  0.00  0.00    +0.000 A 
ATOM     15  C   UNL     1       3.921   5.363  17.951  0.00  0.00    +0.000 A 
ATOM     16  C   UNL     1       4.905   6.383  17.861  0.00  0.00    +0.000 A 
ATOM     17  C   UNL     1       6.094   6.221  17.140  0.00  0.00    +0.000 A 
ATOM     18  C   UNL     1       7.038   7.386  17.013  0.00  0.00    +0.000 C 
BRANCH   8  20
ATOM     19  C   UNL     1       7.384   4.773  14.455  0.00  0.00    +0.000 C 
ATOM     20  O   UNL     1       7.531   4.854  15.871  0.00  0.00    +0.000 OA
ENDBRANCH   8  20
ENDBRANCH   1  14
BRANCH   4  21
ATOM     21  N   UNL     1       0.601  10.400  20.573  0.00  0.00    +0.000 N 
ATOM     22  C   UNL     1       0.623  10.493  22.029  0.00  0.00    +0.000 C 
ATOM     23  C   UNL     1      -0.720  10.926  22.601  0.00  0.00    +0.000 C 
ATOM     24  C   UNL     1      -1.365  12.121  21.880  0.00  0.00    +0.000 C 
ATOM     25  C   UNL     1      -1.436  11.781  20.386  0.00  0.00    +0.000 C 
ATOM     26  C   UNL     1      -0.097  11.399  19.777  0.00  0.00    +0.000 C 
BRANCH  24  27
ATOM     27  C   UNL     1      -0.808  13.532  22.260  0.00  0.00    +0.000 C 
ATOM     28  C   UNL     1       0.573  13.936  21.738  0.00  0.00    +0.000 C 
ATOM     29  C   UNL     1      -1.804  14.633  21.866  0.00  0.00    +0.000 C 
BRANCH  27  30
ATOM     30  O   UNL     1      -0.730  13.585  23.695  0.00  0.00    +0.000 OA
ATOM     31  H   UNL     1      -0.639  14.514  23.965  0.00  0.00    +0.000 HD
ENDBRANCH  27  30
ENDBRANCH  24  27
ENDBRANCH   4  21
TORSDOF 5
ENDMDL
MODEL 6
REMARK VINA RESULT:      -7.6      1.185      1.645
REMARK  Name = 
REMARK  10 active torsions:
REMARK  status: ('A' for Active; 'I' for Inactive)
REMARK    1  A    between atoms: C_1  and  O_2
REMARK    2  A    between atoms: O_2  and  C_3
REMARK    3  A    between atoms: C_9  and  C_10
REMARK    4  A    between atoms: C_13  and  N_14
REMARK    5  A    between atoms: C_17  and  C_18
REMARK    6  A    between atoms: C_18  and  C_19
REMARK    7  A    between atoms: C_18  and  C_20
REMARK    8  A    between atoms: C_18  and  O_21
REMARK    9  A    between atoms: C_24  and  C_25
REMARK   10  A    between atoms: C_29  and  C_30
REMARK                            x       y       z     vdW  Elec       q    Type
REMARK                         _______ _______ _______ _____ _____    ______ ____
ROOT
ATOM      1  C   UNL     1       2.142   6.728  19.076  0.00  0.00    +0.000 A 
ATOM      2  C   UNL     1       1.655   6.937  20.356  0.00  0.00    +0.000 A 
ATOM      3  N   UNL     1       1.136   8.102  20.802  0.00  0.00    +0.000 NA
ATOM      4  C   UNL     1       1.119   9.186  19.994  0.00  0.00    +0.000 A 
ATOM      5  C   UNL     1       1.642   9.098  18.702  0.00  0.00    +0.000 A 
ATOM      6  C   UNL     1       1.894  10.260  17.780  0.00  0.00    +0.000 C 
ATOM      7  C   UNL     1       2.056   7.839  18.233  0.00  0.00    +0.000 A 
ENDROOT
BRANCH   1  14
ATOM      8  C   UNL     1       6.437   4.934  16.651  0.00  0.00    +0.000 A 
ATOM      9  C   UNL     1       5.576   3.863  16.910  0.00  0.00    +0.000 A 
ATOM     10  C   UNL     1       4.376   4.026  17.587  0.00  0.00    +0.000 A 
ATOM     11  N   UNL     1       3.592   2.952  17.758  0.00  0.00    +0.000 NA
ATOM     12  N   UNL     1       2.390   3.058  18.372  0.00  0.00    +0.000 NA
ATOM     13  C   UNL     1       1.972   4.270  18.781  0.00  0.00    +0.000 A 
ATOM     14  C   UNL     1       2.721   5.437  18.647  0.00  0.00    +0.000 A 
ATOM     15  C   UNL     1       4.010   5.299  18.057  0.00  0.00    +0.000 A 
ATOM     16  C   UNL     1       4.958   6.346  17.904  0.00  0.00    +0.000 A 
ATOM     17  C   UNL     1       6.137   6.190  17.167  0.00  0.00    +0.000 A 
ATOM     18  C   UNL     1       7.040   7.379  16.971  0.00  0.00    +0.000 C 
BRANCH   8  20
ATOM     19  C   UNL     1       7.431   4.793  14.512  0.00  0.00    +0.000 C 
ATOM     20  O   UNL     1       7.595   4.818  15.928  0.00  0.00    +0.000 OA
ENDBRANCH   8  20
ENDBRANCH   1  14
BRANCH   4  21
ATOM     21  N   UNL     1       0.567  10.332  20.529  0.00  0.00    +0.000 N 
ATOM     22  C   UNL     1      -0.832  10.613  20.226  0.00  0.00    +0.000 C 
ATOM     23  C   UNL     1      -1.048  12.050  19.772  0.00  0.00    +0.000 C 
ATOM     24  C   UNL     1      -0.343  13.105  20.640  0.00  0.00    +0.000 C 
ATOM     25  C   UNL     1       1.140  12.724  20.725  0.00  0.00    +0.000 C 
ATOM     26  C   UNL     1       1.385  11.311  21.228  0.00  0.00    +0.000 C 
BRANCH  24  27
ATOM     27  C   UNL     1      -1.057  13.477  21.981  0.00  0.00    +0.000 C 
ATOM     28  C   UNL     1      -1.328  12.363  22.996  0.00  0.00    +0.000 C 
ATOM     29  C   UNL     1      -0.303  14.604  22.703  0.00  0.00    +0.000 C 
BRANCH  27  30
ATOM     30  O   UNL     1      -2.338  14.035  21.639  0.00  0.00    +0.000 OA
ATOM     31  H   UNL     1      -2.672  14.533  22.403  0.00  0.00    +0.000 HD
ENDBRANCH  27  30
ENDBRANCH  24  27
ENDBRANCH   4  21
TORSDOF 5
ENDMDL
MODEL 7
REMARK VINA RESULT:      -7.5      2.373      9.396
REMARK  Name = 
REMARK  10 active torsions:
REMARK  status: ('A' for Active; 'I' for Inactive)
REMARK    1  A    between atoms: C_1  and  O_2
REMARK    2  A    between atoms: O_2  and  C_3
REMARK    3  A    between atoms: C_9  and  C_10
REMARK    4  A    between atoms: C_13  and  N_14
REMARK    5  A    between atoms: C_17  and  C_18
REMARK    6  A    between atoms: C_18  and  C_19
REMARK    7  A    between atoms: C_18  and  C_20
REMARK    8  A    between atoms: C_18  and  O_21
REMARK    9  A    between atoms: C_24  and  C_25
REMARK   10  A    between atoms: C_29  and  C_30
REMARK                            x       y       z     vdW  Elec       q    Type
REMARK                         _______ _______ _______ _____ _____    ______ ____
ROOT
ATOM      1  C   UNL     1       0.941   9.312  19.083  0.00  0.00    +0.000 A 
ATOM      2  C   UNL     1       1.745   9.530  17.976  0.00  0.00    +0.000 A 
ATOM      3  N   UNL     1       2.708   8.686  17.544  0.00  0.00    +0.000 NA
ATOM      4  C   UNL     1       2.979   7.560  18.242  0.00  0.00    +0.000 A 
ATOM      5  C   UNL     1       2.265   7.276  19.408  0.00  0.00    +0.000 A 
ATOM      6  C   UNL     1       2.603   6.194  20.397  0.00  0.00    +0.000 C 
ATOM      7  C   UNL     1       1.189   8.112  19.753  0.00  0.00    +0.000 A 
ENDROOT
BRANCH   1  14
ATOM      8  C   UNL     1      -3.516  11.433  17.301  0.00  0.00    +0.000 A 
ATOM      9  C   UNL     1      -3.195  12.011  18.533  0.00  0.00    +0.000 A 
ATOM     10  C   UNL     1      -2.089  11.614  19.269  0.00  0.00    +0.000 A 
ATOM     11  N   UNL     1      -1.831  12.248  20.422  0.00  0.00    +0.000 NA
ATOM     12  N   UNL     1      -0.742  11.933  21.163  0.00  0.00    +0.000 NA
ATOM     13  C   UNL     1       0.105  10.993  20.707  0.00  0.00    +0.000 A 
ATOM     14  C   UNL     1      -0.084  10.283  19.524  0.00  0.00    +0.000 A 
ATOM     15  C   UNL     1      -1.267  10.580  18.788  0.00  0.00    +0.000 A 
ATOM     16  C   UNL     1      -1.686   9.914  17.605  0.00  0.00    +0.000 A 
ATOM     17  C   UNL     1      -2.766  10.359  16.834  0.00  0.00    +0.000 A 
ATOM     18  C   UNL     1      -3.082   9.655  15.541  0.00  0.00    +0.000 C 
BRANCH   8  20
ATOM     19  C   UNL     1      -5.720  12.286  17.228  0.00  0.00    +0.000 C 
ATOM     20  O   UNL     1      -4.562  11.849  16.519  0.00  0.00    +0.000 OA
ENDBRANCH   8  20
ENDBRANCH   1  14
BRANCH   4  21
ATOM     21  N   UNL     1       3.973   6.754  17.727  0.00  0.00    +0.000 N 
ATOM     22  C   UNL     1       3.603   5.402  17.320  0.00  0.00    +0.000 C 
ATOM     23  C   UNL     1       4.564   4.352  17.861  0.00  0.00    +0.000 C 
ATOM     24  C   UNL     1       6.052   4.701  17.693  0.00  0.00    +0.000 C 
ATOM     25  C   UNL     1       6.278   6.088  18.308  0.00  0.00    +0.000 C 
ATOM     26  C   UNL     1       5.368   7.167  17.744  0.00  0.00    +0.000 C 
BRANCH  24  27
ATOM     27  C   UNL     1       6.658   4.448  16.274  0.00  0.00    +0.000 C 
ATOM     28  C   UNL     1       5.955   3.453  15.347  0.00  0.00    +0.000 C 
ATOM     29  C   UNL     1       6.824   5.771  15.511  0.00  0.00    +0.000 C 
BRANCH  27  30
ATOM     30  O   UNL     1       7.993   3.949  16.466  0.00  0.00    +0.000 OA
ATOM     31  H   UNL     1       8.301   4.224  17.346  0.00  0.00    +0.000 HD
ENDBRANCH  27  30
ENDBRANCH  24  27
ENDBRANCH   4  21
TORSDOF 5
ENDMDL
MODEL 8
REMARK VINA RESULT:      -7.5      0.716      1.362
REMARK  Name = 
REMARK  10 active torsions:
REMARK  status: ('A' for Active; 'I' for Inactive)
REMARK    1  A    between atoms: C_1  and  O_2
REMARK    2  A    between atoms: O_2  and  C_3
REMARK    3  A    between atoms: C_9  and  C_10
REMARK    4  A    between atoms: C_13  and  N_14
REMARK    5  A    between atoms: C_17  and  C_18
REMARK    6  A    between atoms: C_18  and  C_19
REMARK    7  A    between atoms: C_18  and  C_20
REMARK    8  A    between atoms: C_18  and  O_21
REMARK    9  A    between atoms: C_24  and  C_25
REMARK   10  A    between atoms: C_29  and  C_30
REMARK                            x       y       z     vdW  Elec       q    Type
REMARK                         _______ _______ _______ _____ _____    ______ ____
ROOT
ATOM      1  C   UNL     1       2.086   7.255  19.026  0.00  0.00    +0.000 A 
ATOM      2  C   UNL     1       1.993   8.257  18.074  0.00  0.00    +0.000 A 
ATOM      3  N   UNL     1       1.502   9.495  18.304  0.00  0.00    +0.000 NA
ATOM      4  C   UNL     1       1.005   9.809  19.522  0.00  0.00    +0.000 A 
ATOM      5  C   UNL     1       0.998   8.849  20.537  0.00  0.00    +0.000 A 
ATOM      6  C   UNL     1       0.285   8.978  21.855  0.00  0.00    +0.000 C 
ATOM      7  C   UNL     1       1.631   7.617  20.297  0.00  0.00    +0.000 A 
ENDROOT
BRANCH   1  14
ATOM      8  C   UNL     1       6.350   5.080  16.874  0.00  0.00    +0.000 A 
ATOM      9  C   UNL     1       5.431   4.074  17.187  0.00  0.00    +0.000 A 
ATOM     10  C   UNL     1       4.223   4.344  17.813  0.00  0.00    +0.000 A 
ATOM     11  N   UNL     1       3.382   3.325  18.041  0.00  0.00    +0.000 NA
ATOM     12  N   UNL     1       2.171   3.534  18.609  0.00  0.00    +0.000 NA
ATOM     13  C   UNL     1       1.803   4.792  18.913  0.00  0.00    +0.000 A 
ATOM     14  C   UNL     1       2.611   5.909  18.714  0.00  0.00    +0.000 A 
ATOM     15  C   UNL     1       3.907   5.666  18.174  0.00  0.00    +0.000 A 
ATOM     16  C   UNL     1       4.909   6.652  17.972  0.00  0.00    +0.000 A 
ATOM     17  C   UNL     1       6.099   6.385  17.284  0.00  0.00    +0.000 A 
ATOM     18  C   UNL     1       7.064   7.512  17.027  0.00  0.00    +0.000 C 
BRANCH   8  20
ATOM     19  C   UNL     1       7.403   4.800  14.776  0.00  0.00    +0.000 C 
ATOM     20  O   UNL     1       7.519   4.854  16.197  0.00  0.00    +0.000 OA
ENDBRANCH   8  20
ENDBRANCH   1  14
BRANCH   4  21
ATOM     21  N   UNL     1       0.530  11.095  19.669  0.00  0.00    +0.000 N 
ATOM     22  C   UNL     1       1.214  11.963  20.622  0.00  0.00    +0.000 C 
ATOM     23  C   UNL     1       0.244  12.681  21.550  0.00  0.00    +0.000 C 
ATOM     24  C   UNL     1      -0.965  13.314  20.841  0.00  0.00    +0.000 C 
ATOM     25  C   UNL     1      -1.640  12.220  20.005  0.00  0.00    +0.000 C 
ATOM     26  C   UNL     1      -0.705  11.524  19.030  0.00  0.00    +0.000 C 
BRANCH  24  27
ATOM     27  C   UNL     1      -0.705  14.686  20.137  0.00  0.00    +0.000 C 
ATOM     28  C   UNL     1       0.236  15.686  20.813  0.00  0.00    +0.000 C 
ATOM     29  C   UNL     1      -0.214  14.472  18.697  0.00  0.00    +0.000 C 
BRANCH  27  30
ATOM     30  O   UNL     1      -1.977  15.346  20.011  0.00  0.00    +0.000 OA
ATOM     31  H   UNL     1      -2.541  15.071  20.752  0.00  0.00    +0.000 HD
ENDBRANCH  27  30
ENDBRANCH  24  27
ENDBRANCH   4  21
TORSDOF 5
ENDMDL
MODEL 9
REMARK VINA RESULT:      -7.4      2.174      3.393
REMARK  Name = 
REMARK  10 active torsions:
REMARK  status: ('A' for Active; 'I' for Inactive)
REMARK    1  A    between atoms: C_1  and  O_2
REMARK    2  A    between atoms: O_2  and  C_3
REMARK    3  A    between atoms: C_9  and  C_10
REMARK    4  A    between atoms: C_13  and  N_14
REMARK    5  A    between atoms: C_17  and  C_18
REMARK    6  A    between atoms: C_18  and  C_19
REMARK    7  A    between atoms: C_18  and  C_20
REMARK    8  A    between atoms: C_18  and  O_21
REMARK    9  A    between atoms: C_24  and  C_25
REMARK   10  A    between atoms: C_29  and  C_30
REMARK                            x       y       z     vdW  Elec       q    Type
REMARK                         _______ _______ _______ _____ _____    ______ ____
ROOT
ATOM      1  C   UNL     1       2.378   8.264  18.424  0.00  0.00    +0.000 A 
ATOM      2  C   UNL     1       2.088   9.442  17.754  0.00  0.00    +0.000 A 
ATOM      3  N   UNL     1       1.332  10.445  18.253  0.00  0.00    +0.000 NA
ATOM      4  C   UNL     1       0.752  10.314  19.467  0.00  0.00    +0.000 A 
ATOM      5  C   UNL     1       0.934   9.139  20.201  0.00  0.00    +0.000 A 
ATOM      6  C   UNL     1       0.181   8.762  21.447  0.00  0.00    +0.000 C 
ATOM      7  C   UNL     1       1.827   8.173  19.704  0.00  0.00    +0.000 A 
ENDROOT
BRANCH   1  14
ATOM      8  C   UNL     1       2.811   3.039  18.648  0.00  0.00    +0.000 A 
ATOM      9  C   UNL     1       3.805   3.545  17.804  0.00  0.00    +0.000 A 
ATOM     10  C   UNL     1       3.910   4.897  17.514  0.00  0.00    +0.000 A 
ATOM     11  N   UNL     1       4.917   5.302  16.727  0.00  0.00    +0.000 NA
ATOM     12  N   UNL     1       5.095   6.615  16.444  0.00  0.00    +0.000 NA
ATOM     13  C   UNL     1       4.265   7.518  16.995  0.00  0.00    +0.000 A 
ATOM     14  C   UNL     1       3.194   7.188  17.821  0.00  0.00    +0.000 A 
ATOM     15  C   UNL     1       2.980   5.800  18.058  0.00  0.00    +0.000 A 
ATOM     16  C   UNL     1       1.900   5.252  18.800  0.00  0.00    +0.000 A 
ATOM     17  C   UNL     1       1.833   3.896  19.142  0.00  0.00    +0.000 A 
ATOM     18  C   UNL     1       0.705   3.415  20.015  0.00  0.00    +0.000 C 
BRANCH   8  20
ATOM     19  C   UNL     1       3.902   0.947  18.796  0.00  0.00    +0.000 C 
ATOM     20  O   UNL     1       2.722   1.720  19.007  0.00  0.00    +0.000 OA
ENDBRANCH   8  20
ENDBRANCH   1  14
BRANCH   4  21
ATOM     21  N   UNL     1       0.003  11.388  19.900  0.00  0.00    +0.000 N 
ATOM     22  C   UNL     1       0.581  12.242  20.932  0.00  0.00    +0.000 C 
ATOM     23  C   UNL     1      -0.397  12.521  22.066  0.00  0.00    +0.000 C 
ATOM     24  C   UNL     1      -1.811  12.916  21.606  0.00  0.00    +0.000 C 
ATOM     25  C   UNL     1      -2.308  11.830  20.644  0.00  0.00    +0.000 C 
ATOM     26  C   UNL     1      -1.376  11.571  19.472  0.00  0.00    +0.000 C 
BRANCH  24  27
ATOM     27  C   UNL     1      -1.993  14.401  21.154  0.00  0.00    +0.000 C 
ATOM     28  C   UNL     1      -3.401  15.002  21.175  0.00  0.00    +0.000 C 
ATOM     29  C   UNL     1      -1.070  15.330  21.957  0.00  0.00    +0.000 C 
BRANCH  27  30
ATOM     30  O   UNL     1      -1.535  14.490  19.794  0.00  0.00    +0.000 OA
ATOM     31  H   UNL     1      -2.236  14.156  19.210  0.00  0.00    +0.000 HD
ENDBRANCH  27  30
ENDBRANCH  24  27
ENDBRANCH   4  21
TORSDOF 5
ENDMDL
