MODEL 1
REMARK VINA RESULT:      -7.8      0.000      0.000
REMARK  Name = 
REMARK  1 active torsions:
REMARK  status: ('A' for Active; 'I' for Inactive)
REMARK    1  A    between atoms: C_11  and  C_12
REMARK                            x       y       z     vdW  Elec       q    Type
REMARK                         _______ _______ _______ _____ _____    ______ ____
ROOT
ATOM      1  O   UNL     1       2.129   8.041  19.425  0.00  0.00    +0.000 OA
ATOM      2  C   UNL     1       2.383   6.881  19.684  0.00  0.00    +0.000 C 
ATOM      3  N   UNL     1       1.739   6.058  20.592  0.00  0.00    +0.000 N 
ATOM      4  C   UNL     1       2.315   4.792  20.626  0.00  0.00    +0.000 A 
ATOM      5  C   UNL     1       1.926   3.730  21.422  0.00  0.00    +0.000 A 
ATOM      6  C   UNL     1       2.663   2.545  21.315  0.00  0.00    +0.000 A 
ATOM      7  C   UNL     1       3.761   2.459  20.444  0.00  0.00    +0.000 A 
ATOM      8  C   UNL     1       4.136   3.549  19.648  0.00  0.00    +0.000 A 
ATOM      9  C   UNL     1       3.389   4.711  19.731  0.00  0.00    +0.000 A 
ATOM     10  C   UNL     1       3.455   6.017  19.068  0.00  0.00    +0.000 C 
ATOM     11  C   UNL     1       4.204   6.485  18.057  0.00  0.00    +0.000 C 
ATOM     12  H   UNL     1       0.960   6.371  21.153  0.00  0.00    +0.000 HD
ENDROOT
BRANCH  11  13
ATOM     13  C   UNL     1       5.191   5.702  17.314  0.00  0.00    +0.000 A 
ATOM     14  C   UNL     1       6.450   5.446  17.875  0.00  0.00    +0.000 A 
ATOM     15  C   UNL     1       7.424   4.766  17.141  0.00  0.00    +0.000 A 
ATOM     16  C   UNL     1       7.139   4.325  15.849  0.00  0.00    +0.000 A 
ATOM     17  C   UNL     1       5.877   4.555  15.302  0.00  0.00    +0.000 A 
ATOM     18 CL   UNL     1       5.527   4.007  13.710  0.00  0.00    +0.000 Cl
ATOM     19  C   UNL     1       4.901   5.238  16.028  0.00  0.00    +0.000 A 
ENDBRANCH  11  13
TORSDOF 1
ENDMDL
MODEL 2
REMARK VINA RESULT:      -7.6      1.570      3.096
REMARK  Name = 
REMARK  1 active torsions:
REMARK  status: ('A' for Active; 'I' for Inactive)
REMARK    1  A    between atoms: C_11  and  C_12
REMARK                            x       y       z     vdW  Elec       q    Type
REMARK                         _______ _______ _______ _____ _____    ______ ____
ROOT
ATOM      1  O   UNL     1       2.680   3.368  21.216  0.00  0.00    +0.000 OA
ATOM      2  C   UNL     1       2.677   4.408  20.587  0.00  0.00    +0.000 C 
ATOM      3  N   UNL     1       1.943   5.553  20.854  0.00  0.00    +0.000 N 
ATOM      4  C   UNL     1       2.190   6.544  19.909  0.00  0.00    +0.000 A 
ATOM      5  C   UNL     1       1.624   7.805  19.868  0.00  0.00    +0.000 A 
ATOM      6  C   UNL     1       1.996   8.641  18.810  0.00  0.00    +0.000 A 
ATOM      7  C   UNL     1       2.895   8.199  17.827  0.00  0.00    +0.000 A 
ATOM      8  C   UNL     1       3.455   6.916  17.889  0.00  0.00    +0.000 A 
ATOM      9  C   UNL     1       3.111   6.099  18.951  0.00  0.00    +0.000 A 
ATOM     10  C   UNL     1       3.488   4.743  19.361  0.00  0.00    +0.000 C 
ATOM     11  C   UNL     1       4.398   3.873  18.894  0.00  0.00    +0.000 C 
ATOM     12  H   UNL     1       1.309   5.623  21.635  0.00  0.00    +0.000 HD
ENDROOT
BRANCH  11  13
ATOM     13  C   UNL     1       5.314   4.137  17.784  0.00  0.00    +0.000 A 
ATOM     14  C   UNL     1       6.587   4.666  18.036  0.00  0.00    +0.000 A 
ATOM     15  C   UNL     1       7.438   4.993  16.977  0.00  0.00    +0.000 A 
ATOM     16  C   UNL     1       7.025   4.778  15.663  0.00  0.00    +0.000 A 
ATOM     17  C   UNL     1       5.770   4.224  15.414  0.00  0.00    +0.000 A 
ATOM     18 CL   UNL     1       5.264   3.956  13.792  0.00  0.00    +0.000 Cl
ATOM     19  C   UNL     1       4.913   3.900  16.466  0.00  0.00    +0.000 A 
ENDBRANCH  11  13
TORSDOF 1
ENDMDL
MODEL 3
REMARK VINA RESULT:      -7.5      3.598      5.257
REMARK  Name = 
REMARK  1 active torsions:
REMARK  status: ('A' for Active; 'I' for Inactive)
REMARK    1  A    between atoms: C_11  and  C_12
REMARK                            x       y       z     vdW  Elec       q    Type
REMARK                         _______ _______ _______ _____ _____    ______ ____
ROOT
ATOM      1  O   UNL     1       6.235   5.163  16.749  0.00  0.00    +0.000 OA
ATOM      2  C   UNL     1       5.190   4.688  17.147  0.00  0.00    +0.000 C 
ATOM      3  N   UNL     1       4.873   3.347  17.293  0.00  0.00    +0.000 N 
ATOM      4  C   UNL     1       3.575   3.182  17.768  0.00  0.00    +0.000 A 
ATOM      5  C   UNL     1       2.936   1.982  18.020  0.00  0.00    +0.000 A 
ATOM      6  C   UNL     1       1.614   2.043  18.473  0.00  0.00    +0.000 A 
ATOM      7  C   UNL     1       0.969   3.279  18.643  0.00  0.00    +0.000 A 
ATOM      8  C   UNL     1       1.638   4.481  18.380  0.00  0.00    +0.000 A 
ATOM      9  C   UNL     1       2.956   4.423  17.961  0.00  0.00    +0.000 A 
ATOM     10  C   UNL     1       3.962   5.430  17.614  0.00  0.00    +0.000 C 
ATOM     11  C   UNL     1       3.975   6.770  17.703  0.00  0.00    +0.000 C 
ATOM     12  H   UNL     1       5.519   2.607  17.063  0.00  0.00    +0.000 HD
ENDROOT
BRANCH  11  13
ATOM     13  C   UNL     1       2.886   7.583  18.244  0.00  0.00    +0.000 A 
ATOM     14  C   UNL     1       2.212   8.493  17.419  0.00  0.00    +0.000 A 
ATOM     15  C   UNL     1       1.224   9.327  17.947  0.00  0.00    +0.000 A 
ATOM     16  C   UNL     1       0.896   9.245  19.300  0.00  0.00    +0.000 A 
ATOM     17  C   UNL     1       1.547   8.319  20.115  0.00  0.00    +0.000 A 
ATOM     18 CL   UNL     1       1.139   8.218  21.783  0.00  0.00    +0.000 Cl
ATOM     19  C   UNL     1       2.539   7.487  19.595  0.00  0.00    +0.000 A 
ENDBRANCH  11  13
TORSDOF 1
ENDMDL
MODEL 4
REMARK VINA RESULT:      -7.4      1.033      1.033
REMARK  Name = 
REMARK  1 active torsions:
REMARK  status: ('A' for Active; 'I' for Inactive)
REMARK    1  A    between atoms: C_11  and  C_12
REMARK                            x       y       z     vdW  Elec       q    Type
REMARK                         _______ _______ _______ _____ _____    ______ ____
ROOT
ATOM      1  O   UNL     1       2.258   7.643  20.086  0.00  0.00    +0.000 OA
ATOM      2  C   UNL     1       2.234   6.446  19.876  0.00  0.00    +0.000 C 
ATOM      3  N   UNL     1       1.259   5.541  20.261  0.00  0.00    +0.000 N 
ATOM      4  C   UNL     1       1.576   4.249  19.850  0.00  0.00    +0.000 A 
ATOM      5  C   UNL     1       0.830   3.107  20.072  0.00  0.00    +0.000 A 
ATOM      6  C   UNL     1       1.349   1.899  19.592  0.00  0.00    +0.000 A 
ATOM      7  C   UNL     1       2.586   1.862  18.929  0.00  0.00    +0.000 A 
ATOM      8  C   UNL     1       3.325   3.034  18.718  0.00  0.00    +0.000 A 
ATOM      9  C   UNL     1       2.798   4.233  19.165  0.00  0.00    +0.000 A 
ATOM     10  C   UNL     1       3.248   5.627  19.118  0.00  0.00    +0.000 C 
ATOM     11  C   UNL     1       4.284   6.226  18.509  0.00  0.00    +0.000 C 
ATOM     12  H   UNL     1       0.440   5.813  20.783  0.00  0.00    +0.000 HD
ENDROOT
BRANCH  11  13
ATOM     13  C   UNL     1       5.261   5.548  17.658  0.00  0.00    +0.000 A 
ATOM     14  C   UNL     1       6.540   5.255  18.153  0.00  0.00    +0.000 A 
ATOM     15  C   UNL     1       7.503   4.678  17.323  0.00  0.00    +0.000 A 
ATOM     16  C   UNL     1       7.188   4.378  15.998  0.00  0.00    +0.000 A 
ATOM     17  C   UNL     1       5.907   4.642  15.514  0.00  0.00    +0.000 A 
ATOM     18 CL   UNL     1       5.520   4.267  13.881  0.00  0.00    +0.000 Cl
ATOM     19  C   UNL     1       4.942   5.224  16.337  0.00  0.00    +0.000 A 
ENDBRANCH  11  13
TORSDOF 1
ENDMDL
MODEL 5
REMARK VINA RESULT:      -7.3      3.459      5.693
REMARK  Name = 
REMARK  1 active torsions:
REMARK  status: ('A' for Active; 'I' for Inactive)
REMARK    1  A    between atoms: C_11  and  C_12
REMARK                            x       y       z     vdW  Elec       q    Type
REMARK                         _______ _______ _______ _____ _____    ______ ____
ROOT
ATOM      1  O   UNL     1       5.133   4.382  13.981  0.00  0.00    +0.000 OA
ATOM      2  C   UNL     1       5.533   4.696  15.085  0.00  0.00    +0.000 C 
ATOM      3  N   UNL     1       6.646   5.462  15.393  0.00  0.00    +0.000 N 
ATOM      4  C   UNL     1       6.796   5.607  16.769  0.00  0.00    +0.000 A 
ATOM      5  C   UNL     1       7.799   6.301  17.421  0.00  0.00    +0.000 A 
ATOM      6  C   UNL     1       7.774   6.299  18.819  0.00  0.00    +0.000 A 
ATOM      7  C   UNL     1       6.776   5.603  19.519  0.00  0.00    +0.000 A 
ATOM      8  C   UNL     1       5.771   4.906  18.836  0.00  0.00    +0.000 A 
ATOM      9  C   UNL     1       5.777   4.932  17.453  0.00  0.00    +0.000 A 
ATOM     10  C   UNL     1       4.912   4.360  16.417  0.00  0.00    +0.000 C 
ATOM     11  C   UNL     1       3.740   3.706  16.471  0.00  0.00    +0.000 C 
ATOM     12  H   UNL     1       7.258   5.841  14.686  0.00  0.00    +0.000 HD
ENDROOT
BRANCH  11  13
ATOM     13  C   UNL     1       2.994   3.426  17.698  0.00  0.00    +0.000 A 
ATOM     14  C   UNL     1       2.690   2.104  18.048  0.00  0.00    +0.000 A 
ATOM     15  C   UNL     1       1.912   1.833  19.176  0.00  0.00    +0.000 A 
ATOM     16  C   UNL     1       1.447   2.883  19.967  0.00  0.00    +0.000 A 
ATOM     17  C   UNL     1       1.775   4.197  19.636  0.00  0.00    +0.000 A 
ATOM     18 CL   UNL     1       1.204   5.491  20.615  0.00  0.00    +0.000 Cl
ATOM     19  C   UNL     1       2.547   4.475  18.507  0.00  0.00    +0.000 A 
ENDBRANCH  11  13
TORSDOF 1
ENDMDL
MODEL 6
REMARK VINA RESULT:      -7.2      3.640      5.117
REMARK  Name = 
REMARK  1 active torsions:
REMARK  status: ('A' for Active; 'I' for Inactive)
REMARK    1  A    between atoms: C_11  and  C_12
REMARK                            x       y       z     vdW  Elec       q    Type
REMARK                         _______ _______ _______ _____ _____    ______ ____
ROOT
ATOM      1  O   UNL     1       6.434   4.554  18.908  0.00  0.00    +0.000 OA
ATOM      2  C   UNL     1       5.276   4.186  18.889  0.00  0.00    +0.000 C 
ATOM      3  N   UNL     1       4.802   2.886  18.966  0.00  0.00    +0.000 N 
ATOM      4  C   UNL     1       3.412   2.849  18.903  0.00  0.00    +0.000 A 
ATOM      5  C   UNL     1       2.614   1.721  18.945  0.00  0.00    +0.000 A 
ATOM      6  C   UNL     1       1.232   1.909  18.841  0.00  0.00    +0.000 A 
ATOM      7  C   UNL     1       0.692   3.195  18.682  0.00  0.00    +0.000 A 
ATOM      8  C   UNL     1       1.521   4.323  18.641  0.00  0.00    +0.000 A 
ATOM      9  C   UNL     1       2.887   4.141  18.775  0.00  0.00    +0.000 A 
ATOM     10  C   UNL     1       4.040   5.046  18.799  0.00  0.00    +0.000 C 
ATOM     11  C   UNL     1       4.144   6.384  18.818  0.00  0.00    +0.000 C 
ATOM     12  H   UNL     1       5.414   2.088  19.045  0.00  0.00    +0.000 HD
ENDROOT
BRANCH  11  13
ATOM     13  C   UNL     1       3.013   7.311  18.848  0.00  0.00    +0.000 A 
ATOM     14  C   UNL     1       2.699   8.072  17.714  0.00  0.00    +0.000 A 
ATOM     15  C   UNL     1       1.670   9.015  17.760  0.00  0.00    +0.000 A 
ATOM     16  C   UNL     1       0.941   9.191  18.935  0.00  0.00    +0.000 A 
ATOM     17  C   UNL     1       1.234   8.413  20.055  0.00  0.00    +0.000 A 
ATOM     18 CL   UNL     1       0.331   8.629  21.503  0.00  0.00    +0.000 Cl
ATOM     19  C   UNL     1       2.265   7.473  20.017  0.00  0.00    +0.000 A 
ENDBRANCH  11  13
TORSDOF 1
ENDMDL
MODEL 7
REMARK VINA RESULT:      -7.2      1.144      1.526
REMARK  Name = 
REMARK  1 active torsions:
REMARK  status: ('A' for Active; 'I' for Inactive)
REMARK    1  A    between atoms: C_11  and  C_12
REMARK                            x       y       z     vdW  Elec       q    Type
REMARK                         _______ _______ _______ _____ _____    ______ ____
ROOT
ATOM      1  O   UNL     1       2.478   9.313  17.605  0.00  0.00    +0.000 OA
ATOM      2  C   UNL     1       2.561   8.249  18.186  0.00  0.00    +0.000 C 
ATOM      3  N   UNL     1       1.757   7.783  19.214  0.00  0.00    +0.000 N 
ATOM      4  C   UNL     1       2.159   6.520  19.639  0.00  0.00    +0.000 A 
ATOM      5  C   UNL     1       1.584   5.768  20.647  0.00  0.00    +0.000 A 
ATOM      6  C   UNL     1       2.165   4.527  20.931  0.00  0.00    +0.000 A 
ATOM      7  C   UNL     1       3.295   4.085  20.225  0.00  0.00    +0.000 A 
ATOM      8  C   UNL     1       3.860   4.866  19.208  0.00  0.00    +0.000 A 
ATOM      9  C   UNL     1       3.268   6.080  18.906  0.00  0.00    +0.000 A 
ATOM     10  C   UNL     1       3.547   7.137  17.929  0.00  0.00    +0.000 C 
ATOM     11  C   UNL     1       4.414   7.224  16.908  0.00  0.00    +0.000 C 
ATOM     12  H   UNL     1       0.992   8.321  19.593  0.00  0.00    +0.000 HD
ENDROOT
BRANCH  11  13
ATOM     13  C   UNL     1       5.335   6.163  16.500  0.00  0.00    +0.000 A 
ATOM     14  C   UNL     1       6.434   5.839  17.307  0.00  0.00    +0.000 A 
ATOM     15  C   UNL     1       7.360   4.882  16.887  0.00  0.00    +0.000 A 
ATOM     16  C   UNL     1       7.184   4.235  15.664  0.00  0.00    +0.000 A 
ATOM     17  C   UNL     1       6.075   4.537  14.875  0.00  0.00    +0.000 A 
ATOM     18 CL   UNL     1       5.857   3.734  13.369  0.00  0.00    +0.000 Cl
ATOM     19  C   UNL     1       5.149   5.496  15.286  0.00  0.00    +0.000 A 
ENDBRANCH  11  13
TORSDOF 1
ENDMDL
MODEL 8
REMARK VINA RESULT:      -7.1      3.187      5.716
REMARK  Name = 
REMARK  1 active torsions:
REMARK  status: ('A' for Active; 'I' for Inactive)
REMARK    1  A    between atoms: C_11  and  C_12
REMARK                            x       y       z     vdW  Elec       q    Type
REMARK                         _______ _______ _______ _____ _____    ______ ____
ROOT
ATOM      1  O   UNL     1       7.915   7.210  18.516  0.00  0.00    +0.000 OA
ATOM      2  C   UNL     1       7.385   6.487  17.696  0.00  0.00    +0.000 C 
ATOM      3  N   UNL     1       7.738   6.316  16.367  0.00  0.00    +0.000 N 
ATOM      4  C   UNL     1       6.894   5.411  15.730  0.00  0.00    +0.000 A 
ATOM      5  C   UNL     1       6.957   5.015  14.407  0.00  0.00    +0.000 A 
ATOM      6  C   UNL     1       5.990   4.108  13.963  0.00  0.00    +0.000 A 
ATOM      7  C   UNL     1       4.991   3.640  14.832  0.00  0.00    +0.000 A 
ATOM      8  C   UNL     1       4.947   4.057  16.169  0.00  0.00    +0.000 A 
ATOM      9  C   UNL     1       5.922   4.931  16.617  0.00  0.00    +0.000 A 
ATOM     10  C   UNL     1       6.213   5.561  17.908  0.00  0.00    +0.000 C 
ATOM     11  C   UNL     1       5.689   5.403  19.134  0.00  0.00    +0.000 C 
ATOM     12  H   UNL     1       8.508   6.810  15.941  0.00  0.00    +0.000 HD
ENDROOT
BRANCH  11  13
ATOM     13  C   UNL     1       4.630   4.453  19.476  0.00  0.00    +0.000 A 
ATOM     14  C   UNL     1       4.890   3.076  19.457  0.00  0.00    +0.000 A 
ATOM     15  C   UNL     1       3.865   2.161  19.705  0.00  0.00    +0.000 A 
ATOM     16  C   UNL     1       2.578   2.619  19.988  0.00  0.00    +0.000 A 
ATOM     17  C   UNL     1       2.327   3.990  20.036  0.00  0.00    +0.000 A 
ATOM     18 CL   UNL     1       0.740   4.553  20.389  0.00  0.00    +0.000 Cl
ATOM     19  C   UNL     1       3.346   4.909  19.783  0.00  0.00    +0.000 A 
ENDBRANCH  11  13
TORSDOF 1
ENDMDL
MODEL 9
REMARK VINA RESULT:      -7.1      3.473      5.264
REMARK  Name = 
REMARK  1 active torsions:
REMARK  status: ('A' for Active; 'I' for Inactive)
REMARK    1  A    between atoms: C_11  and  C_12
REMARK                            x       y       z     vdW  Elec       q    Type
REMARK                         _______ _______ _______ _____ _____    ______ ____
ROOT
ATOM      1  O   UNL     1       5.573   5.679  16.156  0.00  0.00    +0.000 OA
ATOM      2  C   UNL     1       4.679   5.099  16.740  0.00  0.00    +0.000 C 
ATOM      3  N   UNL     1       4.466   3.732  16.812  0.00  0.00    +0.000 N 
ATOM      4  C   UNL     1       3.333   3.434  17.564  0.00  0.00    +0.000 A 
ATOM      5  C   UNL     1       2.828   2.176  17.833  0.00  0.00    +0.000 A 
ATOM      6  C   UNL     1       1.656   2.104  18.593  0.00  0.00    +0.000 A 
ATOM      7  C   UNL     1       1.020   3.272  19.044  0.00  0.00    +0.000 A 
ATOM      8  C   UNL     1       1.550   4.536  18.758  0.00  0.00    +0.000 A 
ATOM      9  C   UNL     1       2.726   4.607  18.032  0.00  0.00    +0.000 A 
ATOM     10  C   UNL     1       3.572   5.709  17.564  0.00  0.00    +0.000 C 
ATOM     11  C   UNL     1       3.548   7.032  17.789  0.00  0.00    +0.000 C 
ATOM     12  H   UNL     1       5.067   3.062  16.356  0.00  0.00    +0.000 HD
ENDROOT
BRANCH  11  13
ATOM     13  C   UNL     1       2.591   7.714  18.660  0.00  0.00    +0.000 A 
ATOM     14  C   UNL     1       2.414   7.284  19.983  0.00  0.00    +0.000 A 
ATOM     15  C   UNL     1       1.448   7.880  20.796  0.00  0.00    +0.000 A 
ATOM     16  C   UNL     1       0.663   8.918  20.295  0.00  0.00    +0.000 A 
ATOM     17  C   UNL     1       0.859   9.366  18.989  0.00  0.00    +0.000 A 
ATOM     18 CL   UNL     1      -0.107  10.649  18.375  0.00  0.00    +0.000 Cl
ATOM     19  C   UNL     1       1.819   8.771  18.169  0.00  0.00    +0.000 A 
ENDBRANCH  11  13
TORSDOF 1
ENDMDL
