MODEL 1
REMARK VINA RESULT:      -7.4      0.000      0.000
REMARK  Name = 
REMARK  4 active torsions:
REMARK  status: ('A' for Active; 'I' for Inactive)
REMARK    1  A    between atoms: C_2  and  C_3
REMARK    2  A    between atoms: C_2  and  C_4
REMARK    3  A    between atoms: C_4  and  N_5
REMARK    4  A    between atoms: C_6  and  C_7
REMARK                            x       y       z     vdW  Elec       q    Type
REMARK                         _______ _______ _______ _____ _____    ______ ____
ROOT
ATOM      1  N   UNL     1       2.977   6.270  19.264  0.00  0.00    +0.000 N 
ATOM      2  C   UNL     1       3.638   6.614  18.089  0.00  0.00    +0.000 A 
ATOM      3  N   UNL     1       3.132   7.738  17.607  0.00  0.00    +0.000 NA
ATOM      4  C   UNL     1       2.263   8.210  18.553  0.00  0.00    +0.000 A 
ATOM      5  C   UNL     1       1.506   9.392  18.558  0.00  0.00    +0.000 A 
ATOM      6  C   UNL     1       0.718   9.685  19.678  0.00  0.00    +0.000 A 
ATOM      7  C   UNL     1       0.699   8.825  20.776  0.00  0.00    +0.000 A 
ATOM      8  C   UNL     1       1.436   7.635  20.780  0.00  0.00    +0.000 A 
ATOM      9  C   UNL     1       2.197   7.346  19.639  0.00  0.00    +0.000 A 
ENDROOT
BRANCH   2  10
ATOM     10  C   UNL     1       4.706   5.844  17.426  0.00  0.00    +0.000 A 
ATOM     11  C   UNL     1       6.040   6.252  17.571  0.00  0.00    +0.000 A 
ATOM     12  C   UNL     1       7.072   5.584  16.906  0.00  0.00    +0.000 A 
ATOM     13  C   UNL     1       6.784   4.498  16.083  0.00  0.00    +0.000 A 
ATOM     14  C   UNL     1       5.474   4.044  15.972  0.00  0.00    +0.000 A 
ATOM     15  C   UNL     1       4.451   4.687  16.672  0.00  0.00    +0.000 A 
ENDBRANCH   2  10
BRANCH   1  16
ATOM     16  C   UNL     1       3.112   5.025  20.018  0.00  0.00    +0.000 C 
BRANCH  16  18
ATOM     17  C   UNL     1       1.468   3.446  21.040  0.00  0.00    +0.000 C 
ATOM     18  C   UNL     1       1.934   4.081  19.948  0.00  0.00    +0.000 C 
ATOM     19  C   UNL     1       1.381   3.788  18.579  0.00  0.00    +0.000 C 
ENDBRANCH  16  18
ENDBRANCH   1  16
TORSDOF 3
ENDMDL
MODEL 2
REMARK VINA RESULT:      -7.3      0.138      1.371
REMARK  Name = 
REMARK  4 active torsions:
REMARK  status: ('A' for Active; 'I' for Inactive)
REMARK    1  A    between atoms: C_2  and  C_3
REMARK    2  A    between atoms: C_2  and  C_4
REMARK    3  A    between atoms: C_4  and  N_5
REMARK    4  A    between atoms: C_6  and  C_7
REMARK                            x       y       z     vdW  Elec       q    Type
REMARK                         _______ _______ _______ _____ _____    ______ ____
ROOT
ATOM      1  N   UNL     1       2.984   6.333  19.229  0.00  0.00    +0.000 N 
ATOM      2  C   UNL     1       3.613   6.720  18.049  0.00  0.00    +0.000 A 
ATOM      3  N   UNL     1       3.071   7.843  17.604  0.00  0.00    +0.000 NA
ATOM      4  C   UNL     1       2.211   8.272  18.580  0.00  0.00    +0.000 A 
ATOM      5  C   UNL     1       1.427   9.435  18.628  0.00  0.00    +0.000 A 
ATOM      6  C   UNL     1       0.656   9.683  19.771  0.00  0.00    +0.000 A 
ATOM      7  C   UNL     1       0.680   8.797  20.848  0.00  0.00    +0.000 A 
ATOM      8  C   UNL     1       1.444   7.625  20.808  0.00  0.00    +0.000 A 
ATOM      9  C   UNL     1       2.187   7.381  19.645  0.00  0.00    +0.000 A 
ENDROOT
BRANCH   2  10
ATOM     10  C   UNL     1       4.684   5.991  17.346  0.00  0.00    +0.000 A 
ATOM     11  C   UNL     1       4.376   4.806  16.663  0.00  0.00    +0.000 A 
ATOM     12  C   UNL     1       5.376   4.055  16.039  0.00  0.00    +0.000 A 
ATOM     13  C   UNL     1       6.702   4.479  16.090  0.00  0.00    +0.000 A 
ATOM     14  C   UNL     1       7.017   5.683  16.714  0.00  0.00    +0.000 A 
ATOM     15  C   UNL     1       6.009   6.451  17.299  0.00  0.00    +0.000 A 
ENDBRANCH   2  10
BRANCH   1  16
ATOM     16  C   UNL     1       3.163   5.074  19.948  0.00  0.00    +0.000 C 
BRANCH  16  18
ATOM     17  C   UNL     1       1.438   3.822  18.646  0.00  0.00    +0.000 C 
ATOM     18  C   UNL     1       2.035   4.077  19.826  0.00  0.00    +0.000 C 
ATOM     19  C   UNL     1       1.526   3.469  21.105  0.00  0.00    +0.000 C 
ENDBRANCH  16  18
ENDBRANCH   1  16
TORSDOF 3
ENDMDL
MODEL 3
REMARK VINA RESULT:      -7.2      0.953      5.357
REMARK  Name = 
REMARK  4 active torsions:
REMARK  status: ('A' for Active; 'I' for Inactive)
REMARK    1  A    between atoms: C_2  and  C_3
REMARK    2  A    between atoms: C_2  and  C_4
REMARK    3  A    between atoms: C_4  and  N_5
REMARK    4  A    between atoms: C_6  and  C_7
REMARK                            x       y       z     vdW  Elec       q    Type
REMARK                         _______ _______ _______ _____ _____    ______ ____
ROOT
ATOM      1  N   UNL     1       3.308   5.456  17.643  0.00  0.00    +0.000 N 
ATOM      2  C   UNL     1       3.485   6.805  17.933  0.00  0.00    +0.000 A 
ATOM      3  N   UNL     1       4.721   7.166  17.628  0.00  0.00    +0.000 NA
ATOM      4  C   UNL     1       5.291   6.100  16.986  0.00  0.00    +0.000 A 
ATOM      5  C   UNL     1       6.567   5.980  16.414  0.00  0.00    +0.000 A 
ATOM      6  C   UNL     1       6.905   4.789  15.760  0.00  0.00    +0.000 A 
ATOM      7  C   UNL     1       5.985   3.746  15.664  0.00  0.00    +0.000 A 
ATOM      8  C   UNL     1       4.714   3.844  16.242  0.00  0.00    +0.000 A 
ATOM      9  C   UNL     1       4.404   5.033  16.917  0.00  0.00    +0.000 A 
ENDROOT
BRANCH   2  10
ATOM     10  C   UNL     1       2.490   7.711  18.534  0.00  0.00    +0.000 A 
ATOM     11  C   UNL     1       1.870   8.680  17.733  0.00  0.00    +0.000 A 
ATOM     12  C   UNL     1       0.969   9.597  18.282  0.00  0.00    +0.000 A 
ATOM     13  C   UNL     1       0.677   9.560  19.643  0.00  0.00    +0.000 A 
ATOM     14  C   UNL     1       1.240   8.569  20.442  0.00  0.00    +0.000 A 
ATOM     15  C   UNL     1       2.106   7.628  19.882  0.00  0.00    +0.000 A 
ENDBRANCH   2  10
BRANCH   1  16
ATOM     16  C   UNL     1       2.153   4.627  17.983  0.00  0.00    +0.000 C 
BRANCH  16  18
ATOM     17  C   UNL     1       3.239   3.195  19.718  0.00  0.00    +0.000 C 
ATOM     18  C   UNL     1       2.197   3.958  19.337  0.00  0.00    +0.000 C 
ATOM     19  C   UNL     1       0.966   4.083  20.194  0.00  0.00    +0.000 C 
ENDBRANCH  16  18
ENDBRANCH   1  16
TORSDOF 3
ENDMDL
MODEL 4
REMARK VINA RESULT:      -7.2      1.592      4.285
REMARK  Name = 
REMARK  4 active torsions:
REMARK  status: ('A' for Active; 'I' for Inactive)
REMARK    1  A    between atoms: C_2  and  C_3
REMARK    2  A    between atoms: C_2  and  C_4
REMARK    3  A    between atoms: C_4  and  N_5
REMARK    4  A    between atoms: C_6  and  C_7
REMARK                            x       y       z     vdW  Elec       q    Type
REMARK                         _______ _______ _______ _____ _____    ______ ____
ROOT
ATOM      1  N   UNL     1       3.067   4.590  18.601  0.00  0.00    +0.000 N 
ATOM      2  C   UNL     1       4.353   4.106  18.384  0.00  0.00    +0.000 A 
ATOM      3  N   UNL     1       4.690   3.283  19.364  0.00  0.00    +0.000 NA
ATOM      4  C   UNL     1       3.566   3.104  20.124  0.00  0.00    +0.000 A 
ATOM      5  C   UNL     1       3.372   2.288  21.250  0.00  0.00    +0.000 A 
ATOM      6  C   UNL     1       2.099   2.233  21.832  0.00  0.00    +0.000 A 
ATOM      7  C   UNL     1       1.040   2.963  21.294  0.00  0.00    +0.000 A 
ATOM      8  C   UNL     1       1.222   3.794  20.181  0.00  0.00    +0.000 A 
ATOM      9  C   UNL     1       2.509   3.857  19.630  0.00  0.00    +0.000 A 
ENDROOT
BRANCH   2  10
ATOM     10  C   UNL     1       5.251   4.469  17.272  0.00  0.00    +0.000 A 
ATOM     11  C   UNL     1       5.155   3.776  16.057  0.00  0.00    +0.000 A 
ATOM     12  C   UNL     1       6.032   4.050  15.003  0.00  0.00    +0.000 A 
ATOM     13  C   UNL     1       7.020   5.021  15.150  0.00  0.00    +0.000 A 
ATOM     14  C   UNL     1       7.092   5.758  16.328  0.00  0.00    +0.000 A 
ATOM     15  C   UNL     1       6.187   5.511  17.363  0.00  0.00    +0.000 A 
ENDBRANCH   2  10
BRANCH   1  16
ATOM     16  C   UNL     1       2.385   5.644  17.853  0.00  0.00    +0.000 C 
BRANCH  16  18
ATOM     17  C   UNL     1       3.312   7.948  17.583  0.00  0.00    +0.000 C 
ATOM     18  C   UNL     1       2.631   7.057  18.329  0.00  0.00    +0.000 C 
ATOM     19  C   UNL     1       2.184   7.388  19.727  0.00  0.00    +0.000 C 
ENDBRANCH  16  18
ENDBRANCH   1  16
TORSDOF 3
ENDMDL
MODEL 5
REMARK VINA RESULT:      -7.1      1.634      4.174
REMARK  Name = 
REMARK  4 active torsions:
REMARK  status: ('A' for Active; 'I' for Inactive)
REMARK    1  A    between atoms: C_2  and  C_3
REMARK    2  A    between atoms: C_2  and  C_4
REMARK    3  A    between atoms: C_4  and  N_5
REMARK    4  A    between atoms: C_6  and  C_7
REMARK                            x       y       z     vdW  Elec       q    Type
REMARK                         _______ _______ _______ _____ _____    ______ ____
ROOT
ATOM      1  N   UNL     1       3.116   4.515  18.573  0.00  0.00    +0.000 N 
ATOM      2  C   UNL     1       4.396   4.004  18.378  0.00  0.00    +0.000 A 
ATOM      3  N   UNL     1       4.707   3.194  19.377  0.00  0.00    +0.000 NA
ATOM      4  C   UNL     1       3.571   3.047  20.127  0.00  0.00    +0.000 A 
ATOM      5  C   UNL     1       3.350   2.256  21.265  0.00  0.00    +0.000 A 
ATOM      6  C   UNL     1       2.070   2.234  21.834  0.00  0.00    +0.000 A 
ATOM      7  C   UNL     1       1.031   2.974  21.271  0.00  0.00    +0.000 A 
ATOM      8  C   UNL     1       1.240   3.780  20.146  0.00  0.00    +0.000 A 
ATOM      9  C   UNL     1       2.534   3.810  19.607  0.00  0.00    +0.000 A 
ENDROOT
BRANCH   2  10
ATOM     10  C   UNL     1       5.312   4.331  17.271  0.00  0.00    +0.000 A 
ATOM     11  C   UNL     1       6.290   5.319  17.457  0.00  0.00    +0.000 A 
ATOM     12  C   UNL     1       7.135   5.700  16.410  0.00  0.00    +0.000 A 
ATOM     13  C   UNL     1       7.011   5.099  15.159  0.00  0.00    +0.000 A 
ATOM     14  C   UNL     1       6.085   4.077  14.973  0.00  0.00    +0.000 A 
ATOM     15  C   UNL     1       5.273   3.670  16.033  0.00  0.00    +0.000 A 
ENDBRANCH   2  10
BRANCH   1  16
ATOM     16  C   UNL     1       2.462   5.568  17.798  0.00  0.00    +0.000 C 
BRANCH  16  18
ATOM     17  C   UNL     1       3.505   7.819  17.507  0.00  0.00    +0.000 C 
ATOM     18  C   UNL     1       2.743   6.985  18.240  0.00  0.00    +0.000 C 
ATOM     19  C   UNL     1       2.232   7.385  19.598  0.00  0.00    +0.000 C 
ENDBRANCH  16  18
ENDBRANCH   1  16
TORSDOF 3
ENDMDL
MODEL 6
REMARK VINA RESULT:      -7.1      1.590      5.809
REMARK  Name = 
REMARK  4 active torsions:
REMARK  status: ('A' for Active; 'I' for Inactive)
REMARK    1  A    between atoms: C_2  and  C_3
REMARK    2  A    between atoms: C_2  and  C_4
REMARK    3  A    between atoms: C_4  and  N_5
REMARK    4  A    between atoms: C_6  and  C_7
REMARK                            x       y       z     vdW  Elec       q    Type
REMARK                         _______ _______ _______ _____ _____    ______ ____
ROOT
ATOM      1  N   UNL     1       4.475   5.167  18.101  0.00  0.00    +0.000 N 
ATOM      2  C   UNL     1       3.846   3.929  18.191  0.00  0.00    +0.000 A 
ATOM      3  N   UNL     1       4.131   3.207  17.120  0.00  0.00    +0.000 NA
ATOM      4  C   UNL     1       5.076   3.907  16.419  0.00  0.00    +0.000 A 
ATOM      5  C   UNL     1       5.750   3.560  15.238  0.00  0.00    +0.000 A 
ATOM      6  C   UNL     1       6.724   4.431  14.735  0.00  0.00    +0.000 A 
ATOM      7  C   UNL     1       7.030   5.615  15.404  0.00  0.00    +0.000 A 
ATOM      8  C   UNL     1       6.356   5.983  16.575  0.00  0.00    +0.000 A 
ATOM      9  C   UNL     1       5.365   5.112  17.047  0.00  0.00    +0.000 A 
ENDROOT
BRANCH   2  10
ATOM     10  C   UNL     1       2.952   3.476  19.272  0.00  0.00    +0.000 A 
ATOM     11  C   UNL     1       1.563   3.535  19.086  0.00  0.00    +0.000 A 
ATOM     12  C   UNL     1       0.685   3.174  20.111  0.00  0.00    +0.000 A 
ATOM     13  C   UNL     1       1.183   2.750  21.341  0.00  0.00    +0.000 A 
ATOM     14  C   UNL     1       2.557   2.631  21.524  0.00  0.00    +0.000 A 
ATOM     15  C   UNL     1       3.431   2.952  20.483  0.00  0.00    +0.000 A 
ENDBRANCH   2  10
BRANCH   1  16
ATOM     16  C   UNL     1       4.288   6.316  18.985  0.00  0.00    +0.000 C 
BRANCH  16  18
ATOM     17  C   UNL     1       2.651   7.754  17.764  0.00  0.00    +0.000 C 
ATOM     18  C   UNL     1       2.967   7.038  18.859  0.00  0.00    +0.000 C 
ATOM     19  C   UNL     1       2.067   7.020  20.066  0.00  0.00    +0.000 C 
ENDBRANCH  16  18
ENDBRANCH   1  16
TORSDOF 3
ENDMDL
MODEL 7
REMARK VINA RESULT:      -7.1      0.943      5.340
REMARK  Name = 
REMARK  4 active torsions:
REMARK  status: ('A' for Active; 'I' for Inactive)
REMARK    1  A    between atoms: C_2  and  C_3
REMARK    2  A    between atoms: C_2  and  C_4
REMARK    3  A    between atoms: C_4  and  N_5
REMARK    4  A    between atoms: C_6  and  C_7
REMARK                            x       y       z     vdW  Elec       q    Type
REMARK                         _______ _______ _______ _____ _____    ______ ____
ROOT
ATOM      1  N   UNL     1       3.288   5.492  17.679  0.00  0.00    +0.000 N 
ATOM      2  C   UNL     1       3.487   6.847  17.926  0.00  0.00    +0.000 A 
ATOM      3  N   UNL     1       4.724   7.182  17.596  0.00  0.00    +0.000 NA
ATOM      4  C   UNL     1       5.271   6.089  16.980  0.00  0.00    +0.000 A 
ATOM      5  C   UNL     1       6.539   5.935  16.396  0.00  0.00    +0.000 A 
ATOM      6  C   UNL     1       6.853   4.721  15.774  0.00  0.00    +0.000 A 
ATOM      7  C   UNL     1       5.918   3.688  15.720  0.00  0.00    +0.000 A 
ATOM      8  C   UNL     1       4.655   3.821  16.310  0.00  0.00    +0.000 A 
ATOM      9  C   UNL     1       4.369   5.033  16.953  0.00  0.00    +0.000 A 
ENDROOT
BRANCH   2  10
ATOM     10  C   UNL     1       2.512   7.784  18.512  0.00  0.00    +0.000 A 
ATOM     11  C   UNL     1       2.174   7.666  19.868  0.00  0.00    +0.000 A 
ATOM     12  C   UNL     1       1.207   8.496  20.442  0.00  0.00    +0.000 A 
ATOM     13  C   UNL     1       0.560   9.456  19.667  0.00  0.00    +0.000 A 
ATOM     14  C   UNL     1       0.924   9.625  18.334  0.00  0.00    +0.000 A 
ATOM     15  C   UNL     1       1.921   8.823  17.775  0.00  0.00    +0.000 A 
ENDBRANCH   2  10
BRANCH   1  16
ATOM     16  C   UNL     1       2.127   4.690  18.057  0.00  0.00    +0.000 C 
BRANCH  16  18
ATOM     17  C   UNL     1       3.261   3.325  19.815  0.00  0.00    +0.000 C 
ATOM     18  C   UNL     1       2.190   4.038  19.419  0.00  0.00    +0.000 C 
ATOM     19  C   UNL     1       0.949   4.120  20.267  0.00  0.00    +0.000 C 
ENDBRANCH  16  18
ENDBRANCH   1  16
TORSDOF 3
ENDMDL
MODEL 8
REMARK VINA RESULT:      -7.0      2.490      4.939
REMARK  Name = 
REMARK  4 active torsions:
REMARK  status: ('A' for Active; 'I' for Inactive)
REMARK    1  A    between atoms: C_2  and  C_3
REMARK    2  A    between atoms: C_2  and  C_4
REMARK    3  A    between atoms: C_4  and  N_5
REMARK    4  A    between atoms: C_6  and  C_7
REMARK                            x       y       z     vdW  Elec       q    Type
REMARK                         _______ _______ _______ _____ _____    ______ ____
ROOT
ATOM      1  N   UNL     1       5.184   5.517  16.896  0.00  0.00    +0.000 N 
ATOM      2  C   UNL     1       5.205   4.445  16.009  0.00  0.00    +0.000 A 
ATOM      3  N   UNL     1       4.568   3.415  16.543  0.00  0.00    +0.000 NA
ATOM      4  C   UNL     1       3.991   3.870  17.698  0.00  0.00    +0.000 A 
ATOM      5  C   UNL     1       3.166   3.194  18.609  0.00  0.00    +0.000 A 
ATOM      6  C   UNL     1       2.650   3.898  19.705  0.00  0.00    +0.000 A 
ATOM      7  C   UNL     1       2.939   5.251  19.878  0.00  0.00    +0.000 A 
ATOM      8  C   UNL     1       3.773   5.936  18.986  0.00  0.00    +0.000 A 
ATOM      9  C   UNL     1       4.302   5.207  17.912  0.00  0.00    +0.000 A 
ENDROOT
BRANCH   2  10
ATOM     10  C   UNL     1       5.867   4.408  14.693  0.00  0.00    +0.000 A 
ATOM     11  C   UNL     1       5.271   3.694  13.643  0.00  0.00    +0.000 A 
ATOM     12  C   UNL     1       5.901   3.585  12.400  0.00  0.00    +0.000 A 
ATOM     13  C   UNL     1       7.140   4.185  12.190  0.00  0.00    +0.000 A 
ATOM     14  C   UNL     1       7.719   4.945  13.202  0.00  0.00    +0.000 A 
ATOM     15  C   UNL     1       7.067   5.088  14.428  0.00  0.00    +0.000 A 
ENDBRANCH   2  10
BRANCH   1  16
ATOM     16  C   UNL     1       5.912   6.778  16.768  0.00  0.00    +0.000 C 
BRANCH  16  18
ATOM     17  C   UNL     1       7.626   5.883  18.349  0.00  0.00    +0.000 C 
ATOM     18  C   UNL     1       7.170   6.901  17.595  0.00  0.00    +0.000 C 
ATOM     19  C   UNL     1       7.826   8.255  17.633  0.00  0.00    +0.000 C 
ENDBRANCH  16  18
ENDBRANCH   1  16
TORSDOF 3
ENDMDL
MODEL 9
REMARK VINA RESULT:      -7.0      0.758      1.361
REMARK  Name = 
REMARK  4 active torsions:
REMARK  status: ('A' for Active; 'I' for Inactive)
REMARK    1  A    between atoms: C_2  and  C_3
REMARK    2  A    between atoms: C_2  and  C_4
REMARK    3  A    between atoms: C_4  and  N_5
REMARK    4  A    between atoms: C_6  and  C_7
REMARK                            x       y       z     vdW  Elec       q    Type
REMARK                         _______ _______ _______ _____ _____    ______ ____
ROOT
ATOM      1  N   UNL     1       3.198   6.338  19.066  0.00  0.00    +0.000 N 
ATOM      2  C   UNL     1       3.901   6.655  17.908  0.00  0.00    +0.000 A 
ATOM      3  N   UNL     1       3.395   7.752  17.366  0.00  0.00    +0.000 NA
ATOM      4  C   UNL     1       2.478   8.238  18.259  0.00  0.00    +0.000 A 
ATOM      5  C   UNL     1       1.699   9.404  18.192  0.00  0.00    +0.000 A 
ATOM      6  C   UNL     1       0.859   9.718  19.267  0.00  0.00    +0.000 A 
ATOM      7  C   UNL     1       0.810   8.896  20.393  0.00  0.00    +0.000 A 
ATOM      8  C   UNL     1       1.569   7.722  20.468  0.00  0.00    +0.000 A 
ATOM      9  C   UNL     1       2.382   7.410  19.370  0.00  0.00    +0.000 A 
ENDROOT
BRANCH   2  10
ATOM     10  C   UNL     1       5.011   5.885  17.316  0.00  0.00    +0.000 A 
ATOM     11  C   UNL     1       4.789   5.152  16.142  0.00  0.00    +0.000 A 
ATOM     12  C   UNL     1       5.799   4.360  15.588  0.00  0.00    +0.000 A 
ATOM     13  C   UNL     1       7.046   4.288  16.204  0.00  0.00    +0.000 A 
ATOM     14  C   UNL     1       7.302   5.055  17.337  0.00  0.00    +0.000 A 
ATOM     15  C   UNL     1       6.304   5.877  17.862  0.00  0.00    +0.000 A 
ENDBRANCH   2  10
BRANCH   1  16
ATOM     16  C   UNL     1       3.324   5.122  19.866  0.00  0.00    +0.000 C 
BRANCH  16  18
ATOM     17  C   UNL     1       3.802   2.807  19.059  0.00  0.00    +0.000 C 
ATOM     18  C   UNL     1       2.939   3.835  19.177  0.00  0.00    +0.000 C 
ATOM     19  C   UNL     1       1.585   3.796  18.520  0.00  0.00    +0.000 C 
ENDBRANCH  16  18
ENDBRANCH   1  16
TORSDOF 3
ENDMDL
