MODEL 1
REMARK VINA RESULT:      -7.2      0.000      0.000
REMARK  Name = 
REMARK  6 active torsions:
REMARK  status: ('A' for Active; 'I' for Inactive)
REMARK    1  A    between atoms: C_1  and  O_2
REMARK    2  A    between atoms: O_2  and  C_3
REMARK    3  A    between atoms: C_6  and  N_7
REMARK    4  A    between atoms: C_8  and  C_9
REMARK    5  A    between atoms: C_12  and  N_13
REMARK    6  A    between atoms: C_20  and  C_21
REMARK                            x       y       z     vdW  Elec       q    Type
REMARK                         _______ _______ _______ _____ _____    ______ ____
ROOT
ATOM      1  N   UNL     1       1.039   9.138  19.380  0.00  0.00    +0.000 N 
ATOM      2  C   UNL     1       1.887   9.074  18.310  0.00  0.00    +0.000 C 
ATOM      3  O   UNL     1       2.056   9.948  17.460  0.00  0.00    +0.000 OA
ATOM      4  N   UNL     1       2.622   7.927  18.168  0.00  0.00    +0.000 N 
ATOM      5  C   UNL     1       2.598   6.784  18.963  0.00  0.00    +0.000 A 
ATOM      6  C   UNL     1       3.404   5.693  18.637  0.00  0.00    +0.000 A 
ATOM      7  N   UNL     1       3.432   4.549  19.369  0.00  0.00    +0.000 NA
ATOM      8  C   UNL     1       2.619   4.531  20.450  0.00  0.00    +0.000 A 
ATOM      9  C   UNL     1       1.812   5.604  20.780  0.00  0.00    +0.000 A 
ATOM     10  N   UNL     1       1.792   6.744  20.047  0.00  0.00    +0.000 NA
ATOM     11  H   UNL     1       1.143   8.403  20.078  0.00  0.00    +0.000 HD
ATOM     12  H   UNL     1       3.224   7.951  17.356  0.00  0.00    +0.000 HD
ENDROOT
BRANCH   1  18
ATOM     13  C   UNL     1       0.142  10.794  20.925  0.00  0.00    +0.000 A 
ATOM     14  C   UNL     1      -0.835  11.743  21.240  0.00  0.00    +0.000 A 
ATOM     15  C   UNL     1      -1.811  12.092  20.310  0.00  0.00    +0.000 A 
ATOM     16  C   UNL     1      -1.857  11.471  19.067  0.00  0.00    +0.000 A 
ATOM     17  C   UNL     1      -0.924  10.474  18.773  0.00  0.00    +0.000 A 
ATOM     18  C   UNL     1       0.085  10.134  19.680  0.00  0.00    +0.000 A 
BRANCH  16  19
ATOM     19  N   UNL     1      -2.772  11.824  18.057  0.00  0.00    +0.000 N 
ATOM     20  C   UNL     1      -3.815  11.050  17.589  0.00  0.00    +0.000 C 
ATOM     21  C   UNL     1      -4.725  11.790  16.648  0.00  0.00    +0.000 C 
ATOM     22  O   UNL     1      -4.024   9.868  17.849  0.00  0.00    +0.000 OA
ATOM     23  H   UNL     1      -2.642  12.739  17.641  0.00  0.00    +0.000 HD
ENDBRANCH  16  19
BRANCH  13  25
ATOM     24  C   UNL     1       0.886   9.459  22.729  0.00  0.00    +0.000 C 
ATOM     25  O   UNL     1       1.181  10.487  21.778  0.00  0.00    +0.000 OA
ENDBRANCH  13  25
ENDBRANCH   1  18
BRANCH   8  26
ATOM     26  C   UNL     1       2.628   3.356  21.265  0.00  0.00    +0.000 C 
ATOM     27  N   UNL     1       2.588   2.424  21.956  0.00  0.00    +0.000 NA
ENDBRANCH   8  26
TORSDOF 4
ENDMDL
MODEL 2
REMARK VINA RESULT:      -6.9      4.412      7.524
REMARK  Name = 
REMARK  6 active torsions:
REMARK  status: ('A' for Active; 'I' for Inactive)
REMARK    1  A    between atoms: C_1  and  O_2
REMARK    2  A    between atoms: O_2  and  C_3
REMARK    3  A    between atoms: C_6  and  N_7
REMARK    4  A    between atoms: C_8  and  C_9
REMARK    5  A    between atoms: C_12  and  N_13
REMARK    6  A    between atoms: C_20  and  C_21
REMARK                            x       y       z     vdW  Elec       q    Type
REMARK                         _______ _______ _______ _____ _____    ______ ____
ROOT
ATOM      1  N   UNL     1       4.899   4.502  18.495  0.00  0.00    +0.000 N 
ATOM      2  C   UNL     1       6.116   5.107  18.637  0.00  0.00    +0.000 C 
ATOM      3  O   UNL     1       6.571   5.598  19.670  0.00  0.00    +0.000 OA
ATOM      4  N   UNL     1       6.909   5.175  17.522  0.00  0.00    +0.000 N 
ATOM      5  C   UNL     1       6.625   4.732  16.233  0.00  0.00    +0.000 A 
ATOM      6  C   UNL     1       7.555   4.921  15.212  0.00  0.00    +0.000 A 
ATOM      7  N   UNL     1       7.343   4.511  13.933  0.00  0.00    +0.000 NA
ATOM      8  C   UNL     1       6.158   3.899  13.708  0.00  0.00    +0.000 A 
ATOM      9  C   UNL     1       5.226   3.712  14.712  0.00  0.00    +0.000 A 
ATOM     10  N   UNL     1       5.445   4.120  15.985  0.00  0.00    +0.000 NA
ATOM     11  H   UNL     1       4.746   4.003  17.620  0.00  0.00    +0.000 HD
ATOM     12  H   UNL     1       7.791   5.636  17.702  0.00  0.00    +0.000 HD
ENDROOT
BRANCH   1  18
ATOM     13  C   UNL     1       3.466   3.156  19.935  0.00  0.00    +0.000 A 
ATOM     14  C   UNL     1       2.394   3.072  20.827  0.00  0.00    +0.000 A 
ATOM     15  C   UNL     1       1.756   4.225  21.281  0.00  0.00    +0.000 A 
ATOM     16  C   UNL     1       2.148   5.477  20.821  0.00  0.00    +0.000 A 
ATOM     17  C   UNL     1       3.174   5.562  19.878  0.00  0.00    +0.000 A 
ATOM     18  C   UNL     1       3.849   4.419  19.436  0.00  0.00    +0.000 A 
BRANCH  16  19
ATOM     19  N   UNL     1       1.593   6.683  21.289  0.00  0.00    +0.000 N 
ATOM     20  C   UNL     1       1.450   7.853  20.571  0.00  0.00    +0.000 C 
ATOM     21  C   UNL     1       0.643   8.896  21.294  0.00  0.00    +0.000 C 
ATOM     22  O   UNL     1       1.927   8.097  19.466  0.00  0.00    +0.000 OA
ATOM     23  H   UNL     1       1.270   6.678  22.250  0.00  0.00    +0.000 HD
ENDBRANCH  16  19
BRANCH  13  25
ATOM     24  C   UNL     1       3.608   1.330  18.440  0.00  0.00    +0.000 C 
ATOM     25  O   UNL     1       4.186   2.052  19.532  0.00  0.00    +0.000 OA
ENDBRANCH  13  25
ENDBRANCH   1  18
BRANCH   8  26
ATOM     26  C   UNL     1       5.897   3.432  12.382  0.00  0.00    +0.000 C 
ATOM     27  N   UNL     1       5.643   3.015  11.329  0.00  0.00    +0.000 NA
ENDBRANCH   8  26
TORSDOF 4
ENDMDL
MODEL 3
REMARK VINA RESULT:      -6.9      4.491      8.803
REMARK  Name = 
REMARK  6 active torsions:
REMARK  status: ('A' for Active; 'I' for Inactive)
REMARK    1  A    between atoms: C_1  and  O_2
REMARK    2  A    between atoms: O_2  and  C_3
REMARK    3  A    between atoms: C_6  and  N_7
REMARK    4  A    between atoms: C_8  and  C_9
REMARK    5  A    between atoms: C_12  and  N_13
REMARK    6  A    between atoms: C_20  and  C_21
REMARK                            x       y       z     vdW  Elec       q    Type
REMARK                         _______ _______ _______ _____ _____    ______ ____
ROOT
ATOM      1  N   UNL     1       4.549   6.032  17.827  0.00  0.00    +0.000 N 
ATOM      2  C   UNL     1       4.181   5.407  18.986  0.00  0.00    +0.000 C 
ATOM      3  O   UNL     1       4.620   4.338  19.410  0.00  0.00    +0.000 OA
ATOM      4  N   UNL     1       3.231   6.029  19.752  0.00  0.00    +0.000 N 
ATOM      5  C   UNL     1       2.555   7.218  19.489  0.00  0.00    +0.000 A 
ATOM      6  C   UNL     1       1.588   7.679  20.382  0.00  0.00    +0.000 A 
ATOM      7  N   UNL     1       0.893   8.831  20.189  0.00  0.00    +0.000 NA
ATOM      8  C   UNL     1       1.199   9.513  19.062  0.00  0.00    +0.000 A 
ATOM      9  C   UNL     1       2.152   9.062  18.167  0.00  0.00    +0.000 A 
ATOM     10  N   UNL     1       2.845   7.914  18.368  0.00  0.00    +0.000 NA
ATOM     11  H   UNL     1       4.216   6.987  17.708  0.00  0.00    +0.000 HD
ATOM     12  H   UNL     1       3.009   5.509  20.590  0.00  0.00    +0.000 HD
ENDROOT
BRANCH   1  18
ATOM     13  C   UNL     1       6.794   5.633  16.968  0.00  0.00    +0.000 A 
ATOM     14  C   UNL     1       7.629   5.202  15.933  0.00  0.00    +0.000 A 
ATOM     15  C   UNL     1       7.093   4.624  14.784  0.00  0.00    +0.000 A 
ATOM     16  C   UNL     1       5.717   4.506  14.628  0.00  0.00    +0.000 A 
ATOM     17  C   UNL     1       4.876   4.997  15.630  0.00  0.00    +0.000 A 
ATOM     18  C   UNL     1       5.395   5.549  16.805  0.00  0.00    +0.000 A 
BRANCH  16  19
ATOM     19  N   UNL     1       5.113   3.872  13.525  0.00  0.00    +0.000 N 
ATOM     20  C   UNL     1       5.737   3.495  12.353  0.00  0.00    +0.000 C 
ATOM     21  C   UNL     1       4.860   2.666  11.456  0.00  0.00    +0.000 C 
ATOM     22  O   UNL     1       6.875   3.792  12.002  0.00  0.00    +0.000 OA
ATOM     23  H   UNL     1       4.121   3.678  13.614  0.00  0.00    +0.000 HD
ENDBRANCH  16  19
BRANCH  13  25
ATOM     24  C   UNL     1       7.889   7.417  18.068  0.00  0.00    +0.000 C 
ATOM     25  O   UNL     1       7.283   6.124  18.160  0.00  0.00    +0.000 OA
ENDBRANCH  13  25
ENDBRANCH   1  18
BRANCH   8  26
ATOM     26  C   UNL     1       0.509  10.742  18.824  0.00  0.00    +0.000 C 
ATOM     27  N   UNL     1      -0.102  11.713  18.649  0.00  0.00    +0.000 NA
ENDBRANCH   8  26
TORSDOF 4
ENDMDL
MODEL 4
REMARK VINA RESULT:      -6.7      4.598      7.096
REMARK  Name = 
REMARK  6 active torsions:
REMARK  status: ('A' for Active; 'I' for Inactive)
REMARK    1  A    between atoms: C_1  and  O_2
REMARK    2  A    between atoms: O_2  and  C_3
REMARK    3  A    between atoms: C_6  and  N_7
REMARK    4  A    between atoms: C_8  and  C_9
REMARK    5  A    between atoms: C_12  and  N_13
REMARK    6  A    between atoms: C_20  and  C_21
REMARK                            x       y       z     vdW  Elec       q    Type
REMARK                         _______ _______ _______ _____ _____    ______ ____
ROOT
ATOM      1  N   UNL     1       5.138   5.645  17.264  0.00  0.00    +0.000 N 
ATOM      2  C   UNL     1       6.294   6.349  17.074  0.00  0.00    +0.000 C 
ATOM      3  O   UNL     1       6.761   7.203  17.828  0.00  0.00    +0.000 OA
ATOM      4  N   UNL     1       7.005   6.080  15.934  0.00  0.00    +0.000 N 
ATOM      5  C   UNL     1       6.686   5.193  14.908  0.00  0.00    +0.000 A 
ATOM      6  C   UNL     1       7.527   5.080  13.801  0.00  0.00    +0.000 A 
ATOM      7  N   UNL     1       7.278   4.234  12.768  0.00  0.00    +0.000 NA
ATOM      8  C   UNL     1       6.149   3.497  12.879  0.00  0.00    +0.000 A 
ATOM      9  C   UNL     1       5.306   3.605  13.969  0.00  0.00    +0.000 A 
ATOM     10  N   UNL     1       5.562   4.448  14.999  0.00  0.00    +0.000 NA
ATOM     11  H   UNL     1       4.983   4.860  16.633  0.00  0.00    +0.000 HD
ATOM     12  H   UNL     1       7.844   6.639  15.861  0.00  0.00    +0.000 HD
ENDROOT
BRANCH   1  18
ATOM     13  C   UNL     1       3.969   4.802  19.228  0.00  0.00    +0.000 A 
ATOM     14  C   UNL     1       2.969   4.955  20.193  0.00  0.00    +0.000 A 
ATOM     15  C   UNL     1       2.223   6.130  20.260  0.00  0.00    +0.000 A 
ATOM     16  C   UNL     1       2.430   7.153  19.342  0.00  0.00    +0.000 A 
ATOM     17  C   UNL     1       3.382   6.977  18.335  0.00  0.00    +0.000 A 
ATOM     18  C   UNL     1       4.165   5.820  18.271  0.00  0.00    +0.000 A 
BRANCH  16  19
ATOM     19  N   UNL     1       1.760   8.390  19.395  0.00  0.00    +0.000 N 
ATOM     20  C   UNL     1       1.543   9.251  18.339  0.00  0.00    +0.000 C 
ATOM     21  C   UNL     1       0.627  10.393  18.684  0.00  0.00    +0.000 C 
ATOM     22  O   UNL     1       2.033   9.170  17.216  0.00  0.00    +0.000 OA
ATOM     23  H   UNL     1       1.407   8.663  20.306  0.00  0.00    +0.000 HD
ENDBRANCH  16  19
BRANCH  13  25
ATOM     24  C   UNL     1       4.175   2.475  19.595  0.00  0.00    +0.000 C 
ATOM     25  O   UNL     1       4.794   3.698  19.183  0.00  0.00    +0.000 OA
ENDBRANCH  13  25
ENDBRANCH   1  18
BRANCH   8  26
ATOM     26  C   UNL     1       5.854   2.576  11.825  0.00  0.00    +0.000 C 
ATOM     27  N   UNL     1       5.622   1.784  11.009  0.00  0.00    +0.000 NA
ENDBRANCH   8  26
TORSDOF 4
ENDMDL
MODEL 5
REMARK VINA RESULT:      -6.6      4.679      8.757
REMARK  Name = 
REMARK  6 active torsions:
REMARK  status: ('A' for Active; 'I' for Inactive)
REMARK    1  A    between atoms: C_1  and  O_2
REMARK    2  A    between atoms: O_2  and  C_3
REMARK    3  A    between atoms: C_6  and  N_7
REMARK    4  A    between atoms: C_8  and  C_9
REMARK    5  A    between atoms: C_12  and  N_13
REMARK    6  A    between atoms: C_20  and  C_21
REMARK                            x       y       z     vdW  Elec       q    Type
REMARK                         _______ _______ _______ _____ _____    ______ ____
ROOT
ATOM      1  N   UNL     1       4.462   4.933  17.942  0.00  0.00    +0.000 N 
ATOM      2  C   UNL     1       4.014   3.982  18.814  0.00  0.00    +0.000 C 
ATOM      3  O   UNL     1       4.348   2.797  18.838  0.00  0.00    +0.000 OA
ATOM      4  N   UNL     1       3.104   4.383  19.757  0.00  0.00    +0.000 N 
ATOM      5  C   UNL     1       2.541   5.645  19.929  0.00  0.00    +0.000 A 
ATOM      6  C   UNL     1       1.598   5.854  20.935  0.00  0.00    +0.000 A 
ATOM      7  N   UNL     1       1.011   7.059  21.159  0.00  0.00    +0.000 NA
ATOM      8  C   UNL     1       1.401   8.058  20.336  0.00  0.00    +0.000 A 
ATOM      9  C   UNL     1       2.331   7.861  19.331  0.00  0.00    +0.000 A 
ATOM     10  N   UNL     1       2.916   6.657  19.116  0.00  0.00    +0.000 NA
ATOM     11  H   UNL     1       4.216   5.896  18.164  0.00  0.00    +0.000 HD
ATOM     12  H   UNL     1       2.818   3.628  20.365  0.00  0.00    +0.000 HD
ENDROOT
BRANCH   1  18
ATOM     13  C   UNL     1       6.687   4.849  16.951  0.00  0.00    +0.000 A 
ATOM     14  C   UNL     1       7.497   4.728  15.819  0.00  0.00    +0.000 A 
ATOM     15  C   UNL     1       6.939   4.447  14.574  0.00  0.00    +0.000 A 
ATOM     16  C   UNL     1       5.562   4.325  14.428  0.00  0.00    +0.000 A 
ATOM     17  C   UNL     1       4.743   4.511  15.543  0.00  0.00    +0.000 A 
ATOM     18  C   UNL     1       5.286   4.760  16.808  0.00  0.00    +0.000 A 
BRANCH  16  19
ATOM     19  N   UNL     1       4.939   3.976  13.214  0.00  0.00    +0.000 N 
ATOM     20  C   UNL     1       5.518   3.297  12.161  0.00  0.00    +0.000 C 
ATOM     21  C   UNL     1       4.532   2.908  11.094  0.00  0.00    +0.000 C 
ATOM     22  O   UNL     1       6.709   3.028  12.029  0.00  0.00    +0.000 OA
ATOM     23  H   UNL     1       3.969   4.257  13.118  0.00  0.00    +0.000 HD
ENDBRANCH  16  19
BRANCH  13  25
ATOM     24  C   UNL     1       7.684   6.354  18.478  0.00  0.00    +0.000 C 
ATOM     25  O   UNL     1       7.201   5.032  18.217  0.00  0.00    +0.000 OA
ENDBRANCH  13  25
ENDBRANCH   1  18
BRANCH   8  26
ATOM     26  C   UNL     1       0.827   9.351  20.545  0.00  0.00    +0.000 C 
ATOM     27  N   UNL     1       0.392  10.420  20.668  0.00  0.00    +0.000 NA
ENDBRANCH   8  26
TORSDOF 4
ENDMDL
MODEL 6
REMARK VINA RESULT:      -6.6      1.185      1.288
REMARK  Name = 
REMARK  6 active torsions:
REMARK  status: ('A' for Active; 'I' for Inactive)
REMARK    1  A    between atoms: C_1  and  O_2
REMARK    2  A    between atoms: O_2  and  C_3
REMARK    3  A    between atoms: C_6  and  N_7
REMARK    4  A    between atoms: C_8  and  C_9
REMARK    5  A    between atoms: C_12  and  N_13
REMARK    6  A    between atoms: C_20  and  C_21
REMARK                            x       y       z     vdW  Elec       q    Type
REMARK                         _______ _______ _______ _____ _____    ______ ____
ROOT
ATOM      1  N   UNL     1       0.903   9.678  19.224  0.00  0.00    +0.000 N 
ATOM      2  C   UNL     1       1.846   9.572  18.239  0.00  0.00    +0.000 C 
ATOM      3  O   UNL     1       2.105  10.416  17.382  0.00  0.00    +0.000 OA
ATOM      4  N   UNL     1       2.574   8.412  18.201  0.00  0.00    +0.000 N 
ATOM      5  C   UNL     1       2.461   7.295  19.025  0.00  0.00    +0.000 A 
ATOM      6  C   UNL     1       3.277   6.186  18.808  0.00  0.00    +0.000 A 
ATOM      7  N   UNL     1       3.221   5.065  19.574  0.00  0.00    +0.000 NA
ATOM      8  C   UNL     1       2.311   5.090  20.574  0.00  0.00    +0.000 A 
ATOM      9  C   UNL     1       1.492   6.182  20.795  0.00  0.00    +0.000 A 
ATOM     10  N   UNL     1       1.557   7.298  20.030  0.00  0.00    +0.000 NA
ATOM     11  H   UNL     1       0.931   8.965  19.950  0.00  0.00    +0.000 HD
ATOM     12  H   UNL     1       3.249   8.404  17.448  0.00  0.00    +0.000 HD
ENDROOT
BRANCH   1  18
ATOM     13  C   UNL     1       0.186  11.724  20.336  0.00  0.00    +0.000 A 
ATOM     14  C   UNL     1      -0.792  12.700  20.549  0.00  0.00    +0.000 A 
ATOM     15  C   UNL     1      -1.965  12.704  19.798  0.00  0.00    +0.000 A 
ATOM     16  C   UNL     1      -2.203  11.713  18.852  0.00  0.00    +0.000 A 
ATOM     17  C   UNL     1      -1.259  10.698  18.683  0.00  0.00    +0.000 A 
ATOM     18  C   UNL     1      -0.060  10.695  19.403  0.00  0.00    +0.000 A 
BRANCH  16  19
ATOM     19  N   UNL     1      -3.333  11.697  18.013  0.00  0.00    +0.000 N 
ATOM     20  C   UNL     1      -4.645  11.880  18.401  0.00  0.00    +0.000 C 
ATOM     21  C   UNL     1      -5.594  12.001  17.241  0.00  0.00    +0.000 C 
ATOM     22  O   UNL     1      -5.069  11.921  19.553  0.00  0.00    +0.000 OA
ATOM     23  H   UNL     1      -3.152  11.535  17.029  0.00  0.00    +0.000 HD
ENDBRANCH  16  19
BRANCH  13  25
ATOM     24  C   UNL     1       2.204  12.891  20.731  0.00  0.00    +0.000 C 
ATOM     25  O   UNL     1       1.400  11.735  20.988  0.00  0.00    +0.000 OA
ENDBRANCH  13  25
ENDBRANCH   1  18
BRANCH   8  26
ATOM     26  C   UNL     1       2.228   3.941  21.422  0.00  0.00    +0.000 C 
ATOM     27  N   UNL     1       2.110   2.992  22.079  0.00  0.00    +0.000 NA
ENDBRANCH   8  26
TORSDOF 4
ENDMDL
MODEL 7
REMARK VINA RESULT:      -6.5      3.418      8.289
REMARK  Name = 
REMARK  6 active torsions:
REMARK  status: ('A' for Active; 'I' for Inactive)
REMARK    1  A    between atoms: C_1  and  O_2
REMARK    2  A    between atoms: O_2  and  C_3
REMARK    3  A    between atoms: C_6  and  N_7
REMARK    4  A    between atoms: C_8  and  C_9
REMARK    5  A    between atoms: C_12  and  N_13
REMARK    6  A    between atoms: C_20  and  C_21
REMARK                            x       y       z     vdW  Elec       q    Type
REMARK                         _______ _______ _______ _____ _____    ______ ____
ROOT
ATOM      1  N   UNL     1       2.575   6.253  19.118  0.00  0.00    +0.000 N 
ATOM      2  C   UNL     1       2.248   6.138  20.440  0.00  0.00    +0.000 C 
ATOM      3  O   UNL     1       2.425   5.150  21.152  0.00  0.00    +0.000 OA
ATOM      4  N   UNL     1       1.668   7.228  21.033  0.00  0.00    +0.000 N 
ATOM      5  C   UNL     1       1.331   8.448  20.452  0.00  0.00    +0.000 A 
ATOM      6  C   UNL     1       0.710   9.435  21.218  0.00  0.00    +0.000 A 
ATOM      7  N   UNL     1       0.357  10.647  20.715  0.00  0.00    +0.000 NA
ATOM      8  C   UNL     1       0.647  10.842  19.409  0.00  0.00    +0.000 A 
ATOM      9  C   UNL     1       1.257   9.869  18.639  0.00  0.00    +0.000 A 
ATOM     10  N   UNL     1       1.611   8.663  19.147  0.00  0.00    +0.000 NA
ATOM     11  H   UNL     1       2.517   7.189  18.722  0.00  0.00    +0.000 HD
ATOM     12  H   UNL     1       1.454   7.070  22.008  0.00  0.00    +0.000 HD
ENDROOT
BRANCH   1  18
ATOM     13  C   UNL     1       2.296   4.073  18.064  0.00  0.00    +0.000 A 
ATOM     14  C   UNL     1       2.797   3.061  17.241  0.00  0.00    +0.000 A 
ATOM     15  C   UNL     1       3.991   3.237  16.546  0.00  0.00    +0.000 A 
ATOM     16  C   UNL     1       4.729   4.406  16.693  0.00  0.00    +0.000 A 
ATOM     17  C   UNL     1       4.267   5.394  17.566  0.00  0.00    +0.000 A 
ATOM     18  C   UNL     1       3.053   5.250  18.246  0.00  0.00    +0.000 A 
BRANCH  16  19
ATOM     19  N   UNL     1       5.906   4.676  15.970  0.00  0.00    +0.000 N 
ATOM     20  C   UNL     1       6.069   4.582  14.603  0.00  0.00    +0.000 C 
ATOM     21  C   UNL     1       7.386   5.127  14.124  0.00  0.00    +0.000 C 
ATOM     22  O   UNL     1       5.276   4.092  13.803  0.00  0.00    +0.000 OA
ATOM     23  H   UNL     1       6.706   4.969  16.520  0.00  0.00    +0.000 HD
ENDBRANCH  16  19
BRANCH  13  25
ATOM     24  C   UNL     1       0.675   2.647  19.028  0.00  0.00    +0.000 C 
ATOM     25  O   UNL     1       1.074   3.981  18.696  0.00  0.00    +0.000 OA
ENDBRANCH  13  25
ENDBRANCH   1  18
BRANCH   8  26
ATOM     26  C   UNL     1       0.313  12.111  18.839  0.00  0.00    +0.000 C 
ATOM     27  N   UNL     1       0.042  13.114  18.322  0.00  0.00    +0.000 NA
ENDBRANCH   8  26
TORSDOF 4
ENDMDL
MODEL 8
REMARK VINA RESULT:      -6.5      2.784      8.059
REMARK  Name = 
REMARK  6 active torsions:
REMARK  status: ('A' for Active; 'I' for Inactive)
REMARK    1  A    between atoms: C_1  and  O_2
REMARK    2  A    between atoms: O_2  and  C_3
REMARK    3  A    between atoms: C_6  and  N_7
REMARK    4  A    between atoms: C_8  and  C_9
REMARK    5  A    between atoms: C_12  and  N_13
REMARK    6  A    between atoms: C_20  and  C_21
REMARK                            x       y       z     vdW  Elec       q    Type
REMARK                         _______ _______ _______ _____ _____    ______ ____
ROOT
ATOM      1  N   UNL     1      -0.049  10.225  21.245  0.00  0.00    +0.000 N 
ATOM      2  C   UNL     1      -0.108  10.302  22.609  0.00  0.00    +0.000 C 
ATOM      3  O   UNL     1       0.603   9.692  23.406  0.00  0.00    +0.000 OA
ATOM      4  N   UNL     1      -1.051  11.141  23.142  0.00  0.00    +0.000 N 
ATOM      5  C   UNL     1      -1.995  11.915  22.472  0.00  0.00    +0.000 A 
ATOM      6  C   UNL     1      -2.902  12.688  23.197  0.00  0.00    +0.000 A 
ATOM      7  N   UNL     1      -3.846  13.467  22.607  0.00  0.00    +0.000 NA
ATOM      8  C   UNL     1      -3.854  13.448  21.255  0.00  0.00    +0.000 A 
ATOM      9  C   UNL     1      -2.963  12.681  20.526  0.00  0.00    +0.000 A 
ATOM     10  N   UNL     1      -2.021  11.909  21.121  0.00  0.00    +0.000 NA
ATOM     11  H   UNL     1      -0.591  10.919  20.734  0.00  0.00    +0.000 HD
ATOM     12  H   UNL     1      -1.038  11.145  24.153  0.00  0.00    +0.000 HD
ENDROOT
BRANCH   1  18
ATOM     13  C   UNL     1       1.091   9.741  19.147  0.00  0.00    +0.000 A 
ATOM     14  C   UNL     1       1.815   8.853  18.347  0.00  0.00    +0.000 A 
ATOM     15  C   UNL     1       2.242   7.627  18.854  0.00  0.00    +0.000 A 
ATOM     16  C   UNL     1       1.917   7.248  20.151  0.00  0.00    +0.000 A 
ATOM     17  C   UNL     1       1.136   8.102  20.932  0.00  0.00    +0.000 A 
ATOM     18  C   UNL     1       0.727   9.351  20.453  0.00  0.00    +0.000 A 
BRANCH  16  19
ATOM     19  N   UNL     1       2.373   6.056  20.747  0.00  0.00    +0.000 N 
ATOM     20  C   UNL     1       1.737   4.832  20.723  0.00  0.00    +0.000 C 
ATOM     21  C   UNL     1       2.577   3.717  21.283  0.00  0.00    +0.000 C 
ATOM     22  O   UNL     1       0.597   4.607  20.326  0.00  0.00    +0.000 OA
ATOM     23  H   UNL     1       3.257   6.118  21.240  0.00  0.00    +0.000 HD
ENDBRANCH  16  19
BRANCH  13  25
ATOM     24  C   UNL     1       1.813  11.931  18.626  0.00  0.00    +0.000 C 
ATOM     25  O   UNL     1       0.730  11.001  18.719  0.00  0.00    +0.000 OA
ENDBRANCH  13  25
ENDBRANCH   1  18
BRANCH   8  26
ATOM     26  C   UNL     1      -4.816  14.268  20.587  0.00  0.00    +0.000 C 
ATOM     27  N   UNL     1      -5.628  14.884  20.032  0.00  0.00    +0.000 NA
ENDBRANCH   8  26
TORSDOF 4
ENDMDL
MODEL 9
REMARK VINA RESULT:      -6.5      4.711      8.791
REMARK  Name = 
REMARK  6 active torsions:
REMARK  status: ('A' for Active; 'I' for Inactive)
REMARK    1  A    between atoms: C_1  and  O_2
REMARK    2  A    between atoms: O_2  and  C_3
REMARK    3  A    between atoms: C_6  and  N_7
REMARK    4  A    between atoms: C_8  and  C_9
REMARK    5  A    between atoms: C_12  and  N_13
REMARK    6  A    between atoms: C_20  and  C_21
REMARK                            x       y       z     vdW  Elec       q    Type
REMARK                         _______ _______ _______ _____ _____    ______ ____
ROOT
ATOM      1  N   UNL     1       4.506   4.629  17.443  0.00  0.00    +0.000 N 
ATOM      2  C   UNL     1       3.878   3.512  17.917  0.00  0.00    +0.000 C 
ATOM      3  O   UNL     1       4.078   2.352  17.557  0.00  0.00    +0.000 OA
ATOM      4  N   UNL     1       2.931   3.699  18.890  0.00  0.00    +0.000 N 
ATOM      5  C   UNL     1       2.493   4.898  19.448  0.00  0.00    +0.000 A 
ATOM      6  C   UNL     1       1.487   4.888  20.413  0.00  0.00    +0.000 A 
ATOM      7  N   UNL     1       1.014   6.019  21.000  0.00  0.00    +0.000 NA
ATOM      8  C   UNL     1       1.587   7.172  20.585  0.00  0.00    +0.000 A 
ATOM      9  C   UNL     1       2.581   7.194  19.624  0.00  0.00    +0.000 A 
ATOM     10  N   UNL     1       3.051   6.061  19.046  0.00  0.00    +0.000 NA
ATOM     11  H   UNL     1       4.346   5.489  17.963  0.00  0.00    +0.000 HD
ATOM     12  H   UNL     1       2.508   2.831  19.191  0.00  0.00    +0.000 HD
ENDROOT
BRANCH   1  18
ATOM     13  C   UNL     1       6.380   5.754  16.365  0.00  0.00    +0.000 A 
ATOM     14  C   UNL     1       7.240   5.883  15.271  0.00  0.00    +0.000 A 
ATOM     15  C   UNL     1       7.196   4.966  14.223  0.00  0.00    +0.000 A 
ATOM     16  C   UNL     1       6.267   3.932  14.227  0.00  0.00    +0.000 A 
ATOM     17  C   UNL     1       5.361   3.839  15.285  0.00  0.00    +0.000 A 
ATOM     18  C   UNL     1       5.411   4.729  16.363  0.00  0.00    +0.000 A 
BRANCH  16  19
ATOM     19  N   UNL     1       6.214   2.934  13.235  0.00  0.00    +0.000 N 
ATOM     20  C   UNL     1       5.408   2.933  12.115  0.00  0.00    +0.000 C 
ATOM     21  C   UNL     1       5.730   1.822  11.155  0.00  0.00    +0.000 C 
ATOM     22  O   UNL     1       4.487   3.709  11.875  0.00  0.00    +0.000 OA
ATOM     23  H   UNL     1       6.835   2.143  13.369  0.00  0.00    +0.000 HD
ENDBRANCH  16  19
BRANCH  13  25
ATOM     24  C   UNL     1       7.548   7.499  17.452  0.00  0.00    +0.000 C 
ATOM     25  O   UNL     1       6.450   6.581  17.466  0.00  0.00    +0.000 OA
ENDBRANCH  13  25
ENDBRANCH   1  18
BRANCH   8  26
ATOM     26  C   UNL     1       1.138   8.389  21.187  0.00  0.00    +0.000 C 
ATOM     27  N   UNL     1       0.779   9.403  21.623  0.00  0.00    +0.000 NA
ENDBRANCH   8  26
TORSDOF 4
ENDMDL
