MODEL 1
REMARK VINA RESULT:      -8.4      0.000      0.000
REMARK  Name = 
REMARK  6 active torsions:
REMARK  status: ('A' for Active; 'I' for Inactive)
REMARK    1  A    between atoms: C_6  and  C_7
REMARK    2  A    between atoms: C_6  and  C_15
REMARK    3  A    between atoms: C_7  and  C_8
REMARK    4  A    between atoms: C_8  and  C_9
REMARK    5  A    between atoms: C_15  and  C_16
REMARK    6  A    between atoms: C_15  and  C_22
REMARK                            x       y       z     vdW  Elec       q    Type
REMARK                         _______ _______ _______ _____ _____    ______ ____
ROOT
ATOM      1  O   UNL     1       1.057   1.924  20.557  0.00  0.00    +0.000 OA
ATOM      2  C   UNL     1       1.742   2.847  20.130  0.00  0.00    +0.000 C 
ATOM      3  N   UNL     1       1.191   3.887  19.461  0.00  0.00    +0.000 N 
ATOM      4  C   UNL     1       1.788   4.236  18.291  0.00  0.00    +0.000 C 
ATOM      5  O   UNL     1       1.091   4.277  17.280  0.00  0.00    +0.000 OA
ATOM      6  C   UNL     1       3.308   4.487  18.325  0.00  0.00    +0.000 C 
ATOM      7  C   UNL     1       3.877   3.305  19.153  0.00  0.00    +0.000 C 
ATOM      8  O   UNL     1       4.963   2.770  18.943  0.00  0.00    +0.000 OA
ATOM      9  N   UNL     1       3.100   2.818  20.172  0.00  0.00    +0.000 N 
ATOM     10  H   UNL     1       0.196   3.728  19.333  0.00  0.00    +0.000 HD
ATOM     11  H   UNL     1       3.471   1.972  20.589  0.00  0.00    +0.000 HD
ENDROOT
BRANCH   6  12
ATOM     12  C   UNL     1       3.857   4.309  16.877  0.00  0.00    +0.000 C 
BRANCH  12  13
ATOM     13  C   UNL     1       5.253   3.691  16.744  0.00  0.00    +0.000 C 
BRANCH  13  14
ATOM     14  C   UNL     1       5.835   3.951  15.389  0.00  0.00    +0.000 A 
ATOM     15  C   UNL     1       7.037   4.651  15.251  0.00  0.00    +0.000 A 
ATOM     16  C   UNL     1       7.540   4.871  13.982  0.00  0.00    +0.000 A 
ATOM     17  N   UNL     1       6.931   4.452  12.849  0.00  0.00    +0.000 NA
ATOM     18  C   UNL     1       5.766   3.789  13.002  0.00  0.00    +0.000 A 
ATOM     19  C   UNL     1       5.187   3.516  14.232  0.00  0.00    +0.000 A 
ENDBRANCH  13  14
ENDBRANCH  12  13
ENDBRANCH   6  12
BRANCH   6  20
ATOM     20  C   UNL     1       3.754   5.862  19.028  0.00  0.00    +0.000 C 
BRANCH  20  21
ATOM     21  C   UNL     1       5.229   6.204  18.633  0.00  0.00    +0.000 A 
ATOM     22  C   UNL     1       6.339   5.647  19.301  0.00  0.00    +0.000 A 
ATOM     23  C   UNL     1       7.652   5.965  18.940  0.00  0.00    +0.000 A 
ATOM     24  C   UNL     1       7.888   6.878  17.920  0.00  0.00    +0.000 A 
ATOM     25  C   UNL     1       6.810   7.458  17.253  0.00  0.00    +0.000 A 
ATOM     26  C   UNL     1       5.495   7.114  17.595  0.00  0.00    +0.000 A 
ENDBRANCH  20  21
BRANCH  20  27
ATOM     27  C   UNL     1       2.815   7.113  18.962  0.00  0.00    +0.000 A 
ATOM     28  C   UNL     1       2.576   7.833  17.781  0.00  0.00    +0.000 A 
ATOM     29  C   UNL     1       1.772   8.983  17.751  0.00  0.00    +0.000 A 
ATOM     30  C   UNL     1       1.141   9.432  18.900  0.00  0.00    +0.000 A 
ATOM     31  C   UNL     1       1.292   8.710  20.073  0.00  0.00    +0.000 A 
ATOM     32  C   UNL     1       2.089   7.556  20.094  0.00  0.00    +0.000 A 
ENDBRANCH  20  27
ENDBRANCH   6  20
TORSDOF 6
ENDMDL
MODEL 2
REMARK VINA RESULT:      -8.4      0.348      1.269
REMARK  Name = 
REMARK  6 active torsions:
REMARK  status: ('A' for Active; 'I' for Inactive)
REMARK    1  A    between atoms: C_6  and  C_7
REMARK    2  A    between atoms: C_6  and  C_15
REMARK    3  A    between atoms: C_7  and  C_8
REMARK    4  A    between atoms: C_8  and  C_9
REMARK    5  A    between atoms: C_15  and  C_16
REMARK    6  A    between atoms: C_15  and  C_22
REMARK                            x       y       z     vdW  Elec       q    Type
REMARK                         _______ _______ _______ _____ _____    ______ ____
ROOT
ATOM      1  O   UNL     1       1.016   1.659  19.853  0.00  0.00    +0.000 OA
ATOM      2  C   UNL     1       1.711   2.627  19.566  0.00  0.00    +0.000 C 
ATOM      3  N   UNL     1       1.179   3.740  19.007  0.00  0.00    +0.000 N 
ATOM      4  C   UNL     1       1.816   4.227  17.911  0.00  0.00    +0.000 C 
ATOM      5  O   UNL     1       1.156   4.389  16.887  0.00  0.00    +0.000 OA
ATOM      6  C   UNL     1       3.333   4.473  18.030  0.00  0.00    +0.000 C 
ATOM      7  C   UNL     1       3.877   3.201  18.730  0.00  0.00    +0.000 C 
ATOM      8  O   UNL     1       4.973   2.696  18.497  0.00  0.00    +0.000 OA
ATOM      9  N   UNL     1       3.066   2.594  19.654  0.00  0.00    +0.000 N 
ATOM     10  H   UNL     1       0.191   3.596  18.825  0.00  0.00    +0.000 HD
ATOM     11  H   UNL     1       3.427   1.704  19.980  0.00  0.00    +0.000 HD
ENDROOT
BRANCH   6  12
ATOM     12  C   UNL     1       3.935   4.471  16.593  0.00  0.00    +0.000 C 
BRANCH  12  13
ATOM     13  C   UNL     1       5.164   3.584  16.364  0.00  0.00    +0.000 C 
BRANCH  13  14
ATOM     14  C   UNL     1       5.850   3.927  15.078  0.00  0.00    +0.000 A 
ATOM     15  C   UNL     1       5.423   3.367  13.871  0.00  0.00    +0.000 A 
ATOM     16  C   UNL     1       6.084   3.709  12.705  0.00  0.00    +0.000 A 
ATOM     17  N   UNL     1       7.136   4.557  12.659  0.00  0.00    +0.000 NA
ATOM     18  C   UNL     1       7.541   5.078  13.836  0.00  0.00    +0.000 A 
ATOM     19  C   UNL     1       6.939   4.799  15.053  0.00  0.00    +0.000 A 
ENDBRANCH  13  14
ENDBRANCH  12  13
ENDBRANCH   6  12
BRANCH   6  20
ATOM     20  C   UNL     1       3.746   5.754  18.909  0.00  0.00    +0.000 C 
BRANCH  20  21
ATOM     21  C   UNL     1       5.232   6.144  18.611  0.00  0.00    +0.000 A 
ATOM     22  C   UNL     1       5.583   7.074  17.610  0.00  0.00    +0.000 A 
ATOM     23  C   UNL     1       6.916   7.410  17.352  0.00  0.00    +0.000 A 
ATOM     24  C   UNL     1       7.936   6.797  18.068  0.00  0.00    +0.000 A 
ATOM     25  C   UNL     1       7.619   5.862  19.051  0.00  0.00    +0.000 A 
ATOM     26  C   UNL     1       6.282   5.549  19.331  0.00  0.00    +0.000 A 
ENDBRANCH  20  21
BRANCH  20  27
ATOM     27  C   UNL     1       2.802   7.003  18.961  0.00  0.00    +0.000 A 
ATOM     28  C   UNL     1       2.518   7.799  17.839  0.00  0.00    +0.000 A 
ATOM     29  C   UNL     1       1.711   8.944  17.915  0.00  0.00    +0.000 A 
ATOM     30  C   UNL     1       1.123   9.314  19.114  0.00  0.00    +0.000 A 
ATOM     31  C   UNL     1       1.319   8.516  20.231  0.00  0.00    +0.000 A 
ATOM     32  C   UNL     1       2.119   7.367  20.145  0.00  0.00    +0.000 A 
ENDBRANCH  20  27
ENDBRANCH   6  20
TORSDOF 6
ENDMDL
MODEL 3
REMARK VINA RESULT:      -8.1      0.512      1.031
REMARK  Name = 
REMARK  6 active torsions:
REMARK  status: ('A' for Active; 'I' for Inactive)
REMARK    1  A    between atoms: C_6  and  C_7
REMARK    2  A    between atoms: C_6  and  C_15
REMARK    3  A    between atoms: C_7  and  C_8
REMARK    4  A    between atoms: C_8  and  C_9
REMARK    5  A    between atoms: C_15  and  C_16
REMARK    6  A    between atoms: C_15  and  C_22
REMARK                            x       y       z     vdW  Elec       q    Type
REMARK                         _______ _______ _______ _____ _____    ______ ____
ROOT
ATOM      1  O   UNL     1       0.939   1.942  20.328  0.00  0.00    +0.000 OA
ATOM      2  C   UNL     1       1.736   2.811  19.991  0.00  0.00    +0.000 C 
ATOM      3  N   UNL     1       1.380   3.811  19.150  0.00  0.00    +0.000 N 
ATOM      4  C   UNL     1       2.221   4.052  18.110  0.00  0.00    +0.000 C 
ATOM      5  O   UNL     1       1.751   4.033  16.975  0.00  0.00    +0.000 OA
ATOM      6  C   UNL     1       3.710   4.264  18.444  0.00  0.00    +0.000 C 
ATOM      7  C   UNL     1       4.044   3.136  19.455  0.00  0.00    +0.000 C 
ATOM      8  O   UNL     1       5.127   2.557  19.515  0.00  0.00    +0.000 OA
ATOM      9  N   UNL     1       3.053   2.749  20.319  0.00  0.00    +0.000 N 
ATOM     10  H   UNL     1       0.428   3.668  18.827  0.00  0.00    +0.000 HD
ATOM     11  H   UNL     1       3.294   1.929  20.864  0.00  0.00    +0.000 HD
ENDROOT
BRANCH   6  12
ATOM     12  C   UNL     1       4.539   3.961  17.161  0.00  0.00    +0.000 C 
BRANCH  12  13
ATOM     13  C   UNL     1       4.422   4.970  16.013  0.00  0.00    +0.000 C 
BRANCH  13  14
ATOM     14  C   UNL     1       5.370   4.641  14.902  0.00  0.00    +0.000 A 
ATOM     15  C   UNL     1       6.670   5.153  14.898  0.00  0.00    +0.000 A 
ATOM     16  C   UNL     1       7.514   4.825  13.853  0.00  0.00    +0.000 A 
ATOM     17  N   UNL     1       7.155   4.035  12.816  0.00  0.00    +0.000 NA
ATOM     18  C   UNL     1       5.892   3.561  12.831  0.00  0.00    +0.000 A 
ATOM     19  C   UNL     1       4.977   3.829  13.836  0.00  0.00    +0.000 A 
ENDBRANCH  13  14
ENDBRANCH  12  13
ENDBRANCH   6  12
BRANCH   6  20
ATOM     20  C   UNL     1       4.058   5.677  19.127  0.00  0.00    +0.000 C 
BRANCH  20  21
ATOM     21  C   UNL     1       5.522   6.094  18.766  0.00  0.00    +0.000 A 
ATOM     22  C   UNL     1       6.648   5.501  19.374  0.00  0.00    +0.000 A 
ATOM     23  C   UNL     1       7.952   5.885  19.044  0.00  0.00    +0.000 A 
ATOM     24  C   UNL     1       8.161   6.901  18.120  0.00  0.00    +0.000 A 
ATOM     25  C   UNL     1       7.067   7.517  17.516  0.00  0.00    +0.000 A 
ATOM     26  C   UNL     1       5.762   7.109  17.823  0.00  0.00    +0.000 A 
ENDBRANCH  20  21
BRANCH  20  27
ATOM     27  C   UNL     1       3.052   6.872  19.006  0.00  0.00    +0.000 A 
ATOM     28  C   UNL     1       2.248   7.311  20.071  0.00  0.00    +0.000 A 
ATOM     29  C   UNL     1       1.316   8.350  19.930  0.00  0.00    +0.000 A 
ATOM     30  C   UNL     1       1.183   9.019  18.724  0.00  0.00    +0.000 A 
ATOM     31  C   UNL     1       2.007   8.666  17.667  0.00  0.00    +0.000 A 
ATOM     32  C   UNL     1       2.944   7.633  17.817  0.00  0.00    +0.000 A 
ENDBRANCH  20  27
ENDBRANCH   6  20
TORSDOF 6
ENDMDL
MODEL 4
REMARK VINA RESULT:      -8.1      3.000      5.935
REMARK  Name = 
REMARK  6 active torsions:
REMARK  status: ('A' for Active; 'I' for Inactive)
REMARK    1  A    between atoms: C_6  and  C_7
REMARK    2  A    between atoms: C_6  and  C_15
REMARK    3  A    between atoms: C_7  and  C_8
REMARK    4  A    between atoms: C_8  and  C_9
REMARK    5  A    between atoms: C_15  and  C_16
REMARK    6  A    between atoms: C_15  and  C_22
REMARK                            x       y       z     vdW  Elec       q    Type
REMARK                         _______ _______ _______ _____ _____    ______ ____
ROOT
ATOM      1  O   UNL     1       6.691   3.629  14.601  0.00  0.00    +0.000 OA
ATOM      2  C   UNL     1       6.207   4.196  15.575  0.00  0.00    +0.000 C 
ATOM      3  N   UNL     1       5.150   5.032  15.455  0.00  0.00    +0.000 N 
ATOM      4  C   UNL     1       5.262   6.237  16.072  0.00  0.00    +0.000 C 
ATOM      5  O   UNL     1       5.095   7.248  15.394  0.00  0.00    +0.000 OA
ATOM      6  C   UNL     1       5.654   6.230  17.563  0.00  0.00    +0.000 C 
ATOM      7  C   UNL     1       6.821   5.212  17.651  0.00  0.00    +0.000 C 
ATOM      8  O   UNL     1       7.780   5.321  18.412  0.00  0.00    +0.000 OA
ATOM      9  N   UNL     1       6.784   4.135  16.804  0.00  0.00    +0.000 N 
ATOM     10  H   UNL     1       4.905   5.142  14.476  0.00  0.00    +0.000 HD
ATOM     11  H   UNL     1       7.631   3.580  16.824  0.00  0.00    +0.000 HD
ENDROOT
BRANCH   6  12
ATOM     12  C   UNL     1       6.262   7.623  17.907  0.00  0.00    +0.000 C 
BRANCH  12  13
ATOM     13  C   UNL     1       7.667   7.911  17.366  0.00  0.00    +0.000 C 
BRANCH  13  14
ATOM     14  C   UNL     1       8.231   9.165  17.958  0.00  0.00    +0.000 A 
ATOM     15  C   UNL     1       8.978   9.123  19.138  0.00  0.00    +0.000 A 
ATOM     16  C   UNL     1       9.481  10.305  19.653  0.00  0.00    +0.000 A 
ATOM     17  N   UNL     1       9.286  11.516  19.083  0.00  0.00    +0.000 NA
ATOM     18  C   UNL     1       8.552  11.536  17.951  0.00  0.00    +0.000 A 
ATOM     19  C   UNL     1       8.012  10.406  17.358  0.00  0.00    +0.000 A 
ENDBRANCH  13  14
ENDBRANCH  12  13
ENDBRANCH   6  12
BRANCH   6  20
ATOM     20  C   UNL     1       4.491   5.759  18.568  0.00  0.00    +0.000 C 
BRANCH  20  21
ATOM     21  C   UNL     1       3.395   6.871  18.669  0.00  0.00    +0.000 A 
ATOM     22  C   UNL     1       3.145   7.783  17.622  0.00  0.00    +0.000 A 
ATOM     23  C   UNL     1       2.165   8.774  17.727  0.00  0.00    +0.000 A 
ATOM     24  C   UNL     1       1.431   8.902  18.899  0.00  0.00    +0.000 A 
ATOM     25  C   UNL     1       1.668   8.026  19.956  0.00  0.00    +0.000 A 
ATOM     26  C   UNL     1       2.629   7.012  19.839  0.00  0.00    +0.000 A 
ENDBRANCH  20  21
BRANCH  20  27
ATOM     27  C   UNL     1       3.874   4.326  18.433  0.00  0.00    +0.000 A 
ATOM     28  C   UNL     1       2.831   4.020  17.543  0.00  0.00    +0.000 A 
ATOM     29  C   UNL     1       2.255   2.743  17.470  0.00  0.00    +0.000 A 
ATOM     30  C   UNL     1       2.732   1.709  18.261  0.00  0.00    +0.000 A 
ATOM     31  C   UNL     1       3.807   1.949  19.102  0.00  0.00    +0.000 A 
ATOM     32  C   UNL     1       4.385   3.226  19.162  0.00  0.00    +0.000 A 
ENDBRANCH  20  27
ENDBRANCH   6  20
TORSDOF 6
ENDMDL
MODEL 5
REMARK VINA RESULT:      -8.0      3.003      5.940
REMARK  Name = 
REMARK  6 active torsions:
REMARK  status: ('A' for Active; 'I' for Inactive)
REMARK    1  A    between atoms: C_6  and  C_7
REMARK    2  A    between atoms: C_6  and  C_15
REMARK    3  A    between atoms: C_7  and  C_8
REMARK    4  A    between atoms: C_8  and  C_9
REMARK    5  A    between atoms: C_15  and  C_16
REMARK    6  A    between atoms: C_15  and  C_22
REMARK                            x       y       z     vdW  Elec       q    Type
REMARK                         _______ _______ _______ _____ _____    ______ ____
ROOT
ATOM      1  O   UNL     1       6.716   3.593  14.654  0.00  0.00    +0.000 OA
ATOM      2  C   UNL     1       6.233   4.171  15.621  0.00  0.00    +0.000 C 
ATOM      3  N   UNL     1       5.162   4.989  15.495  0.00  0.00    +0.000 N 
ATOM      4  C   UNL     1       5.261   6.208  16.088  0.00  0.00    +0.000 C 
ATOM      5  O   UNL     1       5.073   7.202  15.391  0.00  0.00    +0.000 OA
ATOM      6  C   UNL     1       5.667   6.236  17.574  0.00  0.00    +0.000 C 
ATOM      7  C   UNL     1       6.851   5.238  17.671  0.00  0.00    +0.000 C 
ATOM      8  O   UNL     1       7.814   5.376  18.421  0.00  0.00    +0.000 OA
ATOM      9  N   UNL     1       6.822   4.144  16.846  0.00  0.00    +0.000 N 
ATOM     10  H   UNL     1       4.907   5.076  14.516  0.00  0.00    +0.000 HD
ATOM     11  H   UNL     1       7.678   3.602  16.869  0.00  0.00    +0.000 HD
ENDROOT
BRANCH   6  12
ATOM     12  C   UNL     1       6.257   7.644  17.885  0.00  0.00    +0.000 C 
BRANCH  12  13
ATOM     13  C   UNL     1       7.669   7.927  17.361  0.00  0.00    +0.000 C 
BRANCH  13  14
ATOM     14  C   UNL     1       8.231   9.178  17.962  0.00  0.00    +0.000 A 
ATOM     15  C   UNL     1       8.037  10.416  17.345  0.00  0.00    +0.000 A 
ATOM     16  C   UNL     1       8.573  11.548  17.933  0.00  0.00    +0.000 A 
ATOM     17  N   UNL     1       9.289  11.531  19.080  0.00  0.00    +0.000 NA
ATOM     18  C   UNL     1       9.476  10.324  19.654  0.00  0.00    +0.000 A 
ATOM     19  C   UNL     1       8.974   9.138  19.143  0.00  0.00    +0.000 A 
ENDBRANCH  13  14
ENDBRANCH  12  13
ENDBRANCH   6  12
BRANCH   6  20
ATOM     20  C   UNL     1       4.521   5.767  18.600  0.00  0.00    +0.000 C 
BRANCH  20  21
ATOM     21  C   UNL     1       3.427   6.880  18.715  0.00  0.00    +0.000 A 
ATOM     22  C   UNL     1       2.627   7.036  19.867  0.00  0.00    +0.000 A 
ATOM     23  C   UNL     1       1.650   8.033  19.955  0.00  0.00    +0.000 A 
ATOM     24  C   UNL     1       1.423   8.878  18.877  0.00  0.00    +0.000 A 
ATOM     25  C   UNL     1       2.187   8.736  17.720  0.00  0.00    +0.000 A 
ATOM     26  C   UNL     1       3.188   7.758  17.643  0.00  0.00    +0.000 A 
ENDBRANCH  20  21
BRANCH  20  27
ATOM     27  C   UNL     1       3.902   4.334  18.478  0.00  0.00    +0.000 A 
ATOM     28  C   UNL     1       4.364   3.232  19.216  0.00  0.00    +0.000 A 
ATOM     29  C   UNL     1       3.831   1.944  19.057  0.00  0.00    +0.000 A 
ATOM     30  C   UNL     1       2.784   1.718  18.178  0.00  0.00    +0.000 A 
ATOM     31  C   UNL     1       2.249   2.791  17.482  0.00  0.00    +0.000 A 
ATOM     32  C   UNL     1       2.780   4.078  17.653  0.00  0.00    +0.000 A 
ENDBRANCH  20  27
ENDBRANCH   6  20
TORSDOF 6
ENDMDL
MODEL 6
REMARK VINA RESULT:      -7.9      6.063     10.888
REMARK  Name = 
REMARK  6 active torsions:
REMARK  status: ('A' for Active; 'I' for Inactive)
REMARK    1  A    between atoms: C_6  and  C_7
REMARK    2  A    between atoms: C_6  and  C_15
REMARK    3  A    between atoms: C_7  and  C_8
REMARK    4  A    between atoms: C_8  and  C_9
REMARK    5  A    between atoms: C_15  and  C_16
REMARK    6  A    between atoms: C_15  and  C_22
REMARK                            x       y       z     vdW  Elec       q    Type
REMARK                         _______ _______ _______ _____ _____    ______ ____
ROOT
ATOM      1  O   UNL     1       2.774  13.948  17.785  0.00  0.00    +0.000 OA
ATOM      2  C   UNL     1       1.930  13.214  18.288  0.00  0.00    +0.000 C 
ATOM      3  N   UNL     1       0.648  13.207  17.854  0.00  0.00    +0.000 N 
ATOM      4  C   UNL     1      -0.313  13.293  18.810  0.00  0.00    +0.000 C 
ATOM      5  O   UNL     1      -1.145  14.192  18.710  0.00  0.00    +0.000 OA
ATOM      6  C   UNL     1      -0.236  12.289  19.977  0.00  0.00    +0.000 C 
ATOM      7  C   UNL     1       1.259  12.291  20.390  0.00  0.00    +0.000 C 
ATOM      8  O   UNL     1       1.659  12.159  21.544  0.00  0.00    +0.000 OA
ATOM      9  N   UNL     1       2.187  12.474  19.398  0.00  0.00    +0.000 N 
ATOM     10  H   UNL     1       0.521  13.919  17.140  0.00  0.00    +0.000 HD
ATOM     11  H   UNL     1       3.131  12.589  19.749  0.00  0.00    +0.000 HD
ENDROOT
BRANCH   6  12
ATOM     12  C   UNL     1      -1.023  12.889  21.181  0.00  0.00    +0.000 C 
BRANCH  12  13
ATOM     13  C   UNL     1      -1.693  11.889  22.130  0.00  0.00    +0.000 C 
BRANCH  13  14
ATOM     14  C   UNL     1      -3.018  12.398  22.607  0.00  0.00    +0.000 A 
ATOM     15  C   UNL     1      -3.886  13.056  21.733  0.00  0.00    +0.000 A 
ATOM     16  C   UNL     1      -5.100  13.512  22.214  0.00  0.00    +0.000 A 
ATOM     17  N   UNL     1      -5.504  13.364  23.497  0.00  0.00    +0.000 NA
ATOM     18  C   UNL     1      -4.646  12.737  24.328  0.00  0.00    +0.000 A 
ATOM     19  C   UNL     1      -3.412  12.242  23.937  0.00  0.00    +0.000 A 
ENDBRANCH  13  14
ENDBRANCH  12  13
ENDBRANCH   6  12
BRANCH   6  20
ATOM     20  C   UNL     1      -0.660  10.783  19.605  0.00  0.00    +0.000 C 
BRANCH  20  21
ATOM     21  C   UNL     1      -1.769  10.802  18.502  0.00  0.00    +0.000 A 
ATOM     22  C   UNL     1      -3.011  11.445  18.689  0.00  0.00    +0.000 A 
ATOM     23  C   UNL     1      -3.994  11.451  17.695  0.00  0.00    +0.000 A 
ATOM     24  C   UNL     1      -3.774  10.783  16.498  0.00  0.00    +0.000 A 
ATOM     25  C   UNL     1      -2.563  10.124  16.292  0.00  0.00    +0.000 A 
ATOM     26  C   UNL     1      -1.565  10.145  17.276  0.00  0.00    +0.000 A 
ENDBRANCH  20  21
BRANCH  20  27
ATOM     27  C   UNL     1       0.443   9.709  19.321  0.00  0.00    +0.000 A 
ATOM     28  C   UNL     1       1.068   9.560  18.072  0.00  0.00    +0.000 A 
ATOM     29  C   UNL     1       2.017   8.558  17.821  0.00  0.00    +0.000 A 
ATOM     30  C   UNL     1       2.409   7.691  18.827  0.00  0.00    +0.000 A 
ATOM     31  C   UNL     1       1.872   7.848  20.095  0.00  0.00    +0.000 A 
ATOM     32  C   UNL     1       0.930   8.857  20.342  0.00  0.00    +0.000 A 
ENDBRANCH  20  27
ENDBRANCH   6  20
TORSDOF 6
ENDMDL
MODEL 7
REMARK VINA RESULT:      -7.7      0.703      1.116
REMARK  Name = 
REMARK  6 active torsions:
REMARK  status: ('A' for Active; 'I' for Inactive)
REMARK    1  A    between atoms: C_6  and  C_7
REMARK    2  A    between atoms: C_6  and  C_15
REMARK    3  A    between atoms: C_7  and  C_8
REMARK    4  A    between atoms: C_8  and  C_9
REMARK    5  A    between atoms: C_15  and  C_16
REMARK    6  A    between atoms: C_15  and  C_22
REMARK                            x       y       z     vdW  Elec       q    Type
REMARK                         _______ _______ _______ _____ _____    ______ ____
ROOT
ATOM      1  O   UNL     1       0.482   1.883  19.430  0.00  0.00    +0.000 OA
ATOM      2  C   UNL     1       1.361   2.723  19.276  0.00  0.00    +0.000 C 
ATOM      3  N   UNL     1       1.163   3.824  18.514  0.00  0.00    +0.000 N 
ATOM      4  C   UNL     1       2.130   4.108  17.602  0.00  0.00    +0.000 C 
ATOM      5  O   UNL     1       1.793   4.236  16.427  0.00  0.00    +0.000 OA
ATOM      6  C   UNL     1       3.581   4.182  18.116  0.00  0.00    +0.000 C 
ATOM      7  C   UNL     1       3.731   2.937  19.030  0.00  0.00    +0.000 C 
ATOM      8  O   UNL     1       4.764   2.282  19.145  0.00  0.00    +0.000 OA
ATOM      9  N   UNL     1       2.626   2.537  19.736  0.00  0.00    +0.000 N 
ATOM     10  H   UNL     1       0.247   3.781  18.076  0.00  0.00    +0.000 HD
ATOM     11  H   UNL     1       2.755   1.652  20.212  0.00  0.00    +0.000 HD
ENDROOT
BRANCH   6  12
ATOM     12  C   UNL     1       4.533   3.951  16.904  0.00  0.00    +0.000 C 
BRANCH  12  13
ATOM     13  C   UNL     1       4.630   5.088  15.881  0.00  0.00    +0.000 C 
BRANCH  13  14
ATOM     14  C   UNL     1       5.478   4.695  14.711  0.00  0.00    +0.000 A 
ATOM     15  C   UNL     1       5.018   3.763  13.778  0.00  0.00    +0.000 A 
ATOM     16  C   UNL     1       5.833   3.426  12.712  0.00  0.00    +0.000 A 
ATOM     17  N   UNL     1       7.067   3.944  12.517  0.00  0.00    +0.000 NA
ATOM     18  C   UNL     1       7.498   4.833  13.436  0.00  0.00    +0.000 A 
ATOM     19  C   UNL     1       6.753   5.235  14.532  0.00  0.00    +0.000 A 
ENDBRANCH  13  14
ENDBRANCH  12  13
ENDBRANCH   6  12
BRANCH   6  20
ATOM     20  C   UNL     1       3.930   5.492  18.980  0.00  0.00    +0.000 C 
BRANCH  20  21
ATOM     21  C   UNL     1       5.421   5.902  18.740  0.00  0.00    +0.000 A 
ATOM     22  C   UNL     1       6.488   5.328  19.463  0.00  0.00    +0.000 A 
ATOM     23  C   UNL     1       7.815   5.707  19.241  0.00  0.00    +0.000 A 
ATOM     24  C   UNL     1       8.108   6.698  18.313  0.00  0.00    +0.000 A 
ATOM     25  C   UNL     1       7.072   7.295  17.597  0.00  0.00    +0.000 A 
ATOM     26  C   UNL     1       5.744   6.892  17.796  0.00  0.00    +0.000 A 
ENDBRANCH  20  21
BRANCH  20  27
ATOM     27  C   UNL     1       2.963   6.724  18.956  0.00  0.00    +0.000 A 
ATOM     28  C   UNL     1       2.686   7.461  17.793  0.00  0.00    +0.000 A 
ATOM     29  C   UNL     1       1.857   8.593  17.800  0.00  0.00    +0.000 A 
ATOM     30  C   UNL     1       1.240   9.007  18.969  0.00  0.00    +0.000 A 
ATOM     31  C   UNL     1       1.428   8.266  20.125  0.00  0.00    +0.000 A 
ATOM     32  C   UNL     1       2.250   7.130  20.109  0.00  0.00    +0.000 A 
ENDBRANCH  20  27
ENDBRANCH   6  20
TORSDOF 6
ENDMDL
MODEL 8
REMARK VINA RESULT:      -7.4      1.866      4.079
REMARK  Name = 
REMARK  6 active torsions:
REMARK  status: ('A' for Active; 'I' for Inactive)
REMARK    1  A    between atoms: C_6  and  C_7
REMARK    2  A    between atoms: C_6  and  C_15
REMARK    3  A    between atoms: C_7  and  C_8
REMARK    4  A    between atoms: C_8  and  C_9
REMARK    5  A    between atoms: C_15  and  C_16
REMARK    6  A    between atoms: C_15  and  C_22
REMARK                            x       y       z     vdW  Elec       q    Type
REMARK                         _______ _______ _______ _____ _____    ______ ____
ROOT
ATOM      1  O   UNL     1       7.180   5.555  20.064  0.00  0.00    +0.000 OA
ATOM      2  C   UNL     1       6.133   5.498  19.428  0.00  0.00    +0.000 C 
ATOM      3  N   UNL     1       5.343   4.399  19.460  0.00  0.00    +0.000 N 
ATOM      4  C   UNL     1       4.924   3.923  18.259  0.00  0.00    +0.000 C 
ATOM      5  O   UNL     1       5.155   2.746  17.994  0.00  0.00    +0.000 OA
ATOM      6  C   UNL     1       4.249   4.925  17.302  0.00  0.00    +0.000 C 
ATOM      7  C   UNL     1       5.157   6.182  17.354  0.00  0.00    +0.000 C 
ATOM      8  O   UNL     1       5.375   6.921  16.396  0.00  0.00    +0.000 OA
ATOM      9  N   UNL     1       5.771   6.466  18.546  0.00  0.00    +0.000 N 
ATOM     10  H   UNL     1       5.788   3.670  20.009  0.00  0.00    +0.000 HD
ATOM     11  H   UNL     1       6.444   7.221  18.480  0.00  0.00    +0.000 HD
ENDROOT
BRANCH   6  12
ATOM     12  C   UNL     1       4.366   4.362  15.854  0.00  0.00    +0.000 C 
BRANCH  12  13
ATOM     13  C   UNL     1       5.602   3.507  15.548  0.00  0.00    +0.000 C 
BRANCH  13  14
ATOM     14  C   UNL     1       6.256   3.936  14.271  0.00  0.00    +0.000 A 
ATOM     15  C   UNL     1       5.927   3.321  13.060  0.00  0.00    +0.000 A 
ATOM     16  C   UNL     1       6.555   3.746  11.903  0.00  0.00    +0.000 A 
ATOM     17  N   UNL     1       7.484   4.728  11.869  0.00  0.00    +0.000 NA
ATOM     18  C   UNL     1       7.797   5.300  13.050  0.00  0.00    +0.000 A 
ATOM     19  C   UNL     1       7.218   4.946  14.259  0.00  0.00    +0.000 A 
ENDBRANCH  13  14
ENDBRANCH  12  13
ENDBRANCH   6  12
BRANCH   6  20
ATOM     20  C   UNL     1       2.757   5.359  17.715  0.00  0.00    +0.000 C 
BRANCH  20  21
ATOM     21  C   UNL     1       2.127   4.268  18.644  0.00  0.00    +0.000 A 
ATOM     22  C   UNL     1       2.066   4.413  20.046  0.00  0.00    +0.000 A 
ATOM     23  C   UNL     1       1.504   3.429  20.864  0.00  0.00    +0.000 A 
ATOM     24  C   UNL     1       1.017   2.255  20.302  0.00  0.00    +0.000 A 
ATOM     25  C   UNL     1       1.079   2.078  18.922  0.00  0.00    +0.000 A 
ATOM     26  C   UNL     1       1.614   3.078  18.098  0.00  0.00    +0.000 A 
ENDBRANCH  20  21
BRANCH  20  27
ATOM     27  C   UNL     1       2.480   6.811  18.230  0.00  0.00    +0.000 A 
ATOM     28  C   UNL     1       2.316   7.126  19.589  0.00  0.00    +0.000 A 
ATOM     29  C   UNL     1       2.017   8.425  20.029  0.00  0.00    +0.000 A 
ATOM     30  C   UNL     1       1.911   9.468  19.124  0.00  0.00    +0.000 A 
ATOM     31  C   UNL     1       2.137   9.216  17.780  0.00  0.00    +0.000 A 
ATOM     32  C   UNL     1       2.445   7.918  17.348  0.00  0.00    +0.000 A 
ENDBRANCH  20  27
ENDBRANCH   6  20
TORSDOF 6
ENDMDL
MODEL 9
REMARK VINA RESULT:      -7.4      2.372      6.175
REMARK  Name = 
REMARK  6 active torsions:
REMARK  status: ('A' for Active; 'I' for Inactive)
REMARK    1  A    between atoms: C_6  and  C_7
REMARK    2  A    between atoms: C_6  and  C_15
REMARK    3  A    between atoms: C_7  and  C_8
REMARK    4  A    between atoms: C_8  and  C_9
REMARK    5  A    between atoms: C_15  and  C_16
REMARK    6  A    between atoms: C_15  and  C_22
REMARK                            x       y       z     vdW  Elec       q    Type
REMARK                         _______ _______ _______ _____ _____    ______ ____
ROOT
ATOM      1  O   UNL     1       8.423   4.953  19.318  0.00  0.00    +0.000 OA
ATOM      2  C   UNL     1       7.339   5.088  18.760  0.00  0.00    +0.000 C 
ATOM      3  N   UNL     1       7.241   5.645  17.530  0.00  0.00    +0.000 N 
ATOM      4  C   UNL     1       6.304   6.617  17.382  0.00  0.00    +0.000 C 
ATOM      5  O   UNL     1       6.670   7.708  16.949  0.00  0.00    +0.000 OA
ATOM      6  C   UNL     1       4.868   6.285  17.833  0.00  0.00    +0.000 C 
ATOM      7  C   UNL     1       5.046   5.595  19.211  0.00  0.00    +0.000 C 
ATOM      8  O   UNL     1       4.263   5.712  20.151  0.00  0.00    +0.000 OA
ATOM      9  N   UNL     1       6.165   4.824  19.390  0.00  0.00    +0.000 N 
ATOM     10  H   UNL     1       8.154   5.965  17.221  0.00  0.00    +0.000 HD
ATOM     11  H   UNL     1       6.284   4.507  20.345  0.00  0.00    +0.000 HD
ENDROOT
BRANCH   6  12
ATOM     12  C   UNL     1       4.128   7.628  18.110  0.00  0.00    +0.000 C 
BRANCH  12  13
ATOM     13  C   UNL     1       2.652   7.696  17.699  0.00  0.00    +0.000 C 
BRANCH  13  14
ATOM     14  C   UNL     1       1.849   8.483  18.687  0.00  0.00    +0.000 A 
ATOM     15  C   UNL     1       1.706   8.040  20.005  0.00  0.00    +0.000 A 
ATOM     16  C   UNL     1       0.955   8.796  20.886  0.00  0.00    +0.000 A 
ATOM     17  N   UNL     1       0.337   9.951  20.548  0.00  0.00    +0.000 NA
ATOM     18  C   UNL     1       0.477  10.355  19.269  0.00  0.00    +0.000 A 
ATOM     19  C   UNL     1       1.212   9.669  18.316  0.00  0.00    +0.000 A 
ENDBRANCH  13  14
ENDBRANCH  12  13
ENDBRANCH   6  12
BRANCH   6  20
ATOM     20  C   UNL     1       4.066   5.285  16.863  0.00  0.00    +0.000 C 
BRANCH  20  21
ATOM     21  C   UNL     1       4.992   4.834  15.685  0.00  0.00    +0.000 A 
ATOM     22  C   UNL     1       5.605   3.564  15.650  0.00  0.00    +0.000 A 
ATOM     23  C   UNL     1       6.434   3.176  14.592  0.00  0.00    +0.000 A 
ATOM     24  C   UNL     1       6.698   4.063  13.557  0.00  0.00    +0.000 A 
ATOM     25  C   UNL     1       6.119   5.331  13.574  0.00  0.00    +0.000 A 
ATOM     26  C   UNL     1       5.264   5.708  14.618  0.00  0.00    +0.000 A 
ENDBRANCH  20  21
BRANCH  20  27
ATOM     27  C   UNL     1       3.253   4.092  17.470  0.00  0.00    +0.000 A 
ATOM     28  C   UNL     1       1.885   4.173  17.779  0.00  0.00    +0.000 A 
ATOM     29  C   UNL     1       1.184   3.111  18.371  0.00  0.00    +0.000 A 
ATOM     30  C   UNL     1       1.819   1.909  18.638  0.00  0.00    +0.000 A 
ATOM     31  C   UNL     1       3.151   1.761  18.283  0.00  0.00    +0.000 A 
ATOM     32  C   UNL     1       3.843   2.824  17.683  0.00  0.00    +0.000 A 
ENDBRANCH  20  27
ENDBRANCH   6  20
TORSDOF 6
ENDMDL
