MODEL 1
REMARK VINA RESULT:      -7.6      0.000      0.000
REMARK  Name = 
REMARK  10 active torsions:
REMARK  status: ('A' for Active; 'I' for Inactive)
REMARK    1  A    between atoms: C_1  and  O_2
REMARK    2  A    between atoms: O_2  and  C_3
REMARK    3  A    between atoms: C_8  and  C_9
REMARK    4  A    between atoms: C_9  and  N_10
REMARK    5  A    between atoms: C_11  and  C_13
REMARK    6  A    between atoms: C_13  and  C_14
REMARK    7  A    between atoms: C_13  and  N_15
REMARK    8  A    between atoms: N_15  and  S_16
REMARK    9  A    between atoms: S_16  and  C_19
REMARK   10  A    between atoms: C_22  and  C_23
REMARK                            x       y       z     vdW  Elec       q    Type
REMARK                         _______ _______ _______ _____ _____    ______ ____
ROOT
ATOM      1  C   UNL     1       2.956   5.494  19.792  0.00  0.00    +0.000 C 
ATOM      2  C   UNL     1       2.038   4.939  20.867  0.00  0.00    +0.000 C 
ENDROOT
BRANCH   1   4
ATOM      3  N   UNL     1       1.889   7.681  20.205  0.00  0.00    +0.000 N 
ATOM      4  C   UNL     1       2.380   6.819  19.242  0.00  0.00    +0.000 C 
ATOM      5  O   UNL     1       2.372   7.086  18.043  0.00  0.00    +0.000 OA
ATOM      6  H   UNL     1       1.991   7.458  21.185  0.00  0.00    +0.000 HD
BRANCH   3   7
ATOM      7  C   UNL     1       1.445   9.027  19.897  0.00  0.00    +0.000 C 
BRANCH   7  13
ATOM      8  C   UNL     1      -0.246  10.725  20.808  0.00  0.00    +0.000 A 
ATOM      9  C   UNL     1      -1.058  11.170  21.861  0.00  0.00    +0.000 A 
ATOM     10  C   UNL     1      -0.968  10.590  23.125  0.00  0.00    +0.000 A 
ATOM     11  C   UNL     1      -0.075   9.548  23.344  0.00  0.00    +0.000 A 
ATOM     12  C   UNL     1       0.704   9.066  22.292  0.00  0.00    +0.000 A 
ATOM     13  C   UNL     1       0.615   9.628  21.005  0.00  0.00    +0.000 A 
BRANCH   8  15
ATOM     14  C   UNL     1      -1.528  11.234  18.899  0.00  0.00    +0.000 C 
ATOM     15  O   UNL     1      -0.264  11.295  19.559  0.00  0.00    +0.000 OA
ENDBRANCH   8  15
ENDBRANCH   7  13
ENDBRANCH   3   7
ENDBRANCH   1   4
BRANCH   1  16
ATOM     16  N   UNL     1       3.124   4.551  18.667  0.00  0.00    +0.000 NA
ATOM     17  H   UNL     1       2.584   4.750  17.823  0.00  0.00    +0.000 HD
BRANCH  16  18
ATOM     18  S   UNL     1       4.588   3.810  18.364  0.00  0.00    +0.000 S 
ATOM     19  O   UNL     1       4.966   3.139  19.586  0.00  0.00    +0.000 OA
ATOM     20  O   UNL     1       4.477   3.098  17.111  0.00  0.00    +0.000 OA
BRANCH  18  21
ATOM     21  C   UNL     1       5.704   5.180  18.157  0.00  0.00    +0.000 A 
ATOM     22  C   UNL     1       5.399   6.176  17.227  0.00  0.00    +0.000 A 
ATOM     23  C   UNL     1       6.256   7.270  17.078  0.00  0.00    +0.000 A 
ATOM     24  C   UNL     1       7.419   7.374  17.853  0.00  0.00    +0.000 A 
ATOM     25  C   UNL     1       8.340   8.552  17.714  0.00  0.00    +0.000 C 
ATOM     26  C   UNL     1       7.713   6.366  18.784  0.00  0.00    +0.000 A 
ATOM     27  C   UNL     1       6.857   5.274  18.943  0.00  0.00    +0.000 A 
ENDBRANCH  18  21
ENDBRANCH  16  18
ENDBRANCH   1  16
TORSDOF 7
ENDMDL
MODEL 2
REMARK VINA RESULT:      -7.5      1.665      2.098
REMARK  Name = 
REMARK  10 active torsions:
REMARK  status: ('A' for Active; 'I' for Inactive)
REMARK    1  A    between atoms: C_1  and  O_2
REMARK    2  A    between atoms: O_2  and  C_3
REMARK    3  A    between atoms: C_8  and  C_9
REMARK    4  A    between atoms: C_9  and  N_10
REMARK    5  A    between atoms: C_11  and  C_13
REMARK    6  A    between atoms: C_13  and  C_14
REMARK    7  A    between atoms: C_13  and  N_15
REMARK    8  A    between atoms: N_15  and  S_16
REMARK    9  A    between atoms: S_16  and  C_19
REMARK   10  A    between atoms: C_22  and  C_23
REMARK                            x       y       z     vdW  Elec       q    Type
REMARK                         _______ _______ _______ _____ _____    ______ ____
ROOT
ATOM      1  C   UNL     1       2.962   5.747  19.952  0.00  0.00    +0.000 C 
ATOM      2  C   UNL     1       1.907   4.944  20.693  0.00  0.00    +0.000 C 
ENDROOT
BRANCH   1   4
ATOM      3  N   UNL     1       1.771   7.888  20.247  0.00  0.00    +0.000 N 
ATOM      4  C   UNL     1       2.322   7.010  19.333  0.00  0.00    +0.000 C 
ATOM      5  O   UNL     1       2.316   7.218  18.122  0.00  0.00    +0.000 OA
ATOM      6  H   UNL     1       1.872   7.719  21.238  0.00  0.00    +0.000 HD
BRANCH   3   7
ATOM      7  C   UNL     1       1.258   9.191  19.869  0.00  0.00    +0.000 C 
BRANCH   7  13
ATOM      8  C   UNL     1      -0.261  11.037  20.794  0.00  0.00    +0.000 A 
ATOM      9  C   UNL     1      -1.075  11.523  21.827  0.00  0.00    +0.000 A 
ATOM     10  C   UNL     1      -1.137  10.865  23.055  0.00  0.00    +0.000 A 
ATOM     11  C   UNL     1      -0.395   9.707  23.255  0.00  0.00    +0.000 A 
ATOM     12  C   UNL     1       0.381   9.189  22.218  0.00  0.00    +0.000 A 
ATOM     13  C   UNL     1       0.443   9.830  20.967  0.00  0.00    +0.000 A 
BRANCH   8  15
ATOM     14  C   UNL     1      -1.317  11.687  18.791  0.00  0.00    +0.000 C 
ATOM     15  O   UNL     1      -0.130  11.675  19.585  0.00  0.00    +0.000 OA
ENDBRANCH   8  15
ENDBRANCH   7  13
ENDBRANCH   3   7
ENDBRANCH   1   4
BRANCH   1  16
ATOM     16  N   UNL     1       3.599   4.964  18.874  0.00  0.00    +0.000 NA
ATOM     17  H   UNL     1       3.316   5.193  17.919  0.00  0.00    +0.000 HD
BRANCH  16  18
ATOM     18  S   UNL     1       5.178   4.438  18.995  0.00  0.00    +0.000 S 
ATOM     19  O   UNL     1       5.902   5.477  19.690  0.00  0.00    +0.000 OA
ATOM     20  O   UNL     1       5.159   3.074  19.475  0.00  0.00    +0.000 OA
BRANCH  18  21
ATOM     21  C   UNL     1       5.743   4.452  17.307  0.00  0.00    +0.000 A 
ATOM     22  C   UNL     1       4.849   4.126  16.285  0.00  0.00    +0.000 A 
ATOM     23  C   UNL     1       5.276   4.162  14.954  0.00  0.00    +0.000 A 
ATOM     24  C   UNL     1       6.595   4.520  14.640  0.00  0.00    +0.000 A 
ATOM     25  C   UNL     1       7.062   4.578  13.214  0.00  0.00    +0.000 C 
ATOM     26  C   UNL     1       7.482   4.845  15.677  0.00  0.00    +0.000 A 
ATOM     27  C   UNL     1       7.059   4.818  17.008  0.00  0.00    +0.000 A 
ENDBRANCH  18  21
ENDBRANCH  16  18
ENDBRANCH   1  16
TORSDOF 7
ENDMDL
MODEL 3
REMARK VINA RESULT:      -7.5      2.225      3.123
REMARK  Name = 
REMARK  10 active torsions:
REMARK  status: ('A' for Active; 'I' for Inactive)
REMARK    1  A    between atoms: C_1  and  O_2
REMARK    2  A    between atoms: O_2  and  C_3
REMARK    3  A    between atoms: C_8  and  C_9
REMARK    4  A    between atoms: C_9  and  N_10
REMARK    5  A    between atoms: C_11  and  C_13
REMARK    6  A    between atoms: C_13  and  C_14
REMARK    7  A    between atoms: C_13  and  N_15
REMARK    8  A    between atoms: N_15  and  S_16
REMARK    9  A    between atoms: S_16  and  C_19
REMARK   10  A    between atoms: C_22  and  C_23
REMARK                            x       y       z     vdW  Elec       q    Type
REMARK                         _______ _______ _______ _____ _____    ______ ____
ROOT
ATOM      1  C   UNL     1       2.645   4.520  19.132  0.00  0.00    +0.000 C 
ATOM      2  C   UNL     1       1.823   4.242  17.885  0.00  0.00    +0.000 C 
ENDROOT
BRANCH   1   4
ATOM      3  N   UNL     1       2.283   6.570  20.458  0.00  0.00    +0.000 N 
ATOM      4  C   UNL     1       1.798   5.311  20.154  0.00  0.00    +0.000 C 
ATOM      5  O   UNL     1       0.769   4.857  20.648  0.00  0.00    +0.000 OA
ATOM      6  H   UNL     1       3.086   6.936  19.966  0.00  0.00    +0.000 HD
BRANCH   3   7
ATOM      7  C   UNL     1       1.549   7.513  21.280  0.00  0.00    +0.000 C 
BRANCH   7  13
ATOM      8  C   UNL     1      -0.128   9.421  20.937  0.00  0.00    +0.000 A 
ATOM      9  C   UNL     1      -0.580  10.504  20.170  0.00  0.00    +0.000 A 
ATOM     10  C   UNL     1      -0.036  10.764  18.913  0.00  0.00    +0.000 A 
ATOM     11  C   UNL     1       0.976   9.950  18.418  0.00  0.00    +0.000 A 
ATOM     12  C   UNL     1       1.466   8.899  19.192  0.00  0.00    +0.000 A 
ATOM     13  C   UNL     1       0.941   8.631  20.470  0.00  0.00    +0.000 A 
BRANCH   8  15
ATOM     14  C   UNL     1      -0.555  10.123  23.145  0.00  0.00    +0.000 C 
ATOM     15  O   UNL     1      -0.664   9.096  22.159  0.00  0.00    +0.000 OA
ENDBRANCH   8  15
ENDBRANCH   7  13
ENDBRANCH   3   7
ENDBRANCH   1   4
BRANCH   1  16
ATOM     16  N   UNL     1       3.864   5.297  18.828  0.00  0.00    +0.000 NA
ATOM     17  H   UNL     1       3.856   6.281  19.103  0.00  0.00    +0.000 HD
BRANCH  16  18
ATOM     18  S   UNL     1       5.380   4.600  18.890  0.00  0.00    +0.000 S 
ATOM     19  O   UNL     1       6.242   5.556  19.544  0.00  0.00    +0.000 OA
ATOM     20  O   UNL     1       5.230   3.250  19.386  0.00  0.00    +0.000 OA
BRANCH  18  21
ATOM     21  C   UNL     1       5.871   4.539  17.181  0.00  0.00    +0.000 A 
ATOM     22  C   UNL     1       4.922   4.219  16.208  0.00  0.00    +0.000 A 
ATOM     23  C   UNL     1       5.293   4.197  14.860  0.00  0.00    +0.000 A 
ATOM     24  C   UNL     1       6.610   4.492  14.480  0.00  0.00    +0.000 A 
ATOM     25  C   UNL     1       7.017   4.488  13.034  0.00  0.00    +0.000 C 
ATOM     26  C   UNL     1       7.552   4.813  15.468  0.00  0.00    +0.000 A 
ATOM     27  C   UNL     1       7.186   4.844  16.816  0.00  0.00    +0.000 A 
ENDBRANCH  18  21
ENDBRANCH  16  18
ENDBRANCH   1  16
TORSDOF 7
ENDMDL
MODEL 4
REMARK VINA RESULT:      -7.4      2.145      3.134
REMARK  Name = 
REMARK  10 active torsions:
REMARK  status: ('A' for Active; 'I' for Inactive)
REMARK    1  A    between atoms: C_1  and  O_2
REMARK    2  A    between atoms: O_2  and  C_3
REMARK    3  A    between atoms: C_8  and  C_9
REMARK    4  A    between atoms: C_9  and  N_10
REMARK    5  A    between atoms: C_11  and  C_13
REMARK    6  A    between atoms: C_13  and  C_14
REMARK    7  A    between atoms: C_13  and  N_15
REMARK    8  A    between atoms: N_15  and  S_16
REMARK    9  A    between atoms: S_16  and  C_19
REMARK   10  A    between atoms: C_22  and  C_23
REMARK                            x       y       z     vdW  Elec       q    Type
REMARK                         _______ _______ _______ _____ _____    ______ ____
ROOT
ATOM      1  C   UNL     1       2.891   5.249  19.162  0.00  0.00    +0.000 C 
ATOM      2  C   UNL     1       2.206   5.550  17.840  0.00  0.00    +0.000 C 
ENDROOT
BRANCH   1   4
ATOM      3  N   UNL     1       2.158   7.316  20.294  0.00  0.00    +0.000 N 
ATOM      4  C   UNL     1       2.127   5.934  20.317  0.00  0.00    +0.000 C 
ATOM      5  O   UNL     1       1.531   5.296  21.181  0.00  0.00    +0.000 OA
ATOM      6  H   UNL     1       2.589   7.801  19.519  0.00  0.00    +0.000 HD
BRANCH   3   7
ATOM      7  C   UNL     1       1.379   8.131  21.207  0.00  0.00    +0.000 C 
BRANCH   7  13
ATOM      8  C   UNL     1       0.004  10.294  21.213  0.00  0.00    +0.000 A 
ATOM      9  C   UNL     1      -0.487  11.412  20.523  0.00  0.00    +0.000 A 
ATOM     10  C   UNL     1      -0.329  11.523  19.142  0.00  0.00    +0.000 A 
ATOM     11  C   UNL     1       0.335  10.523  18.441  0.00  0.00    +0.000 A 
ATOM     12  C   UNL     1       0.869   9.430  19.124  0.00  0.00    +0.000 A 
ATOM     13  C   UNL     1       0.734   9.309  20.520  0.00  0.00    +0.000 A 
BRANCH   8  15
ATOM     14  C   UNL     1      -1.229  10.885  23.131  0.00  0.00    +0.000 C 
ATOM     15  O   UNL     1      -0.168  10.117  22.564  0.00  0.00    +0.000 OA
ENDBRANCH   8  15
ENDBRANCH   7  13
ENDBRANCH   3   7
ENDBRANCH   1   4
BRANCH   1  16
ATOM     16  N   UNL     1       4.291   5.720  19.179  0.00  0.00    +0.000 NA
ATOM     17  H   UNL     1       4.487   6.543  19.751  0.00  0.00    +0.000 HD
BRANCH  16  18
ATOM     18  S   UNL     1       5.570   4.651  19.090  0.00  0.00    +0.000 S 
ATOM     19  O   UNL     1       6.701   5.317  19.695  0.00  0.00    +0.000 OA
ATOM     20  O   UNL     1       5.109   3.362  19.558  0.00  0.00    +0.000 OA
BRANCH  18  21
ATOM     21  C   UNL     1       5.899   4.552  17.344  0.00  0.00    +0.000 A 
ATOM     22  C   UNL     1       7.068   5.122  16.835  0.00  0.00    +0.000 A 
ATOM     23  C   UNL     1       7.347   5.025  15.469  0.00  0.00    +0.000 A 
ATOM     24  C   UNL     1       6.462   4.361  14.607  0.00  0.00    +0.000 A 
ATOM     25  C   UNL     1       6.759   4.235  13.141  0.00  0.00    +0.000 C 
ATOM     26  C   UNL     1       5.293   3.792  15.133  0.00  0.00    +0.000 A 
ATOM     27  C   UNL     1       5.011   3.880  16.498  0.00  0.00    +0.000 A 
ENDBRANCH  18  21
ENDBRANCH  16  18
ENDBRANCH   1  16
TORSDOF 7
ENDMDL
MODEL 5
REMARK VINA RESULT:      -7.3      1.563      2.778
REMARK  Name = 
REMARK  10 active torsions:
REMARK  status: ('A' for Active; 'I' for Inactive)
REMARK    1  A    between atoms: C_1  and  O_2
REMARK    2  A    between atoms: O_2  and  C_3
REMARK    3  A    between atoms: C_8  and  C_9
REMARK    4  A    between atoms: C_9  and  N_10
REMARK    5  A    between atoms: C_11  and  C_13
REMARK    6  A    between atoms: C_13  and  C_14
REMARK    7  A    between atoms: C_13  and  N_15
REMARK    8  A    between atoms: N_15  and  S_16
REMARK    9  A    between atoms: S_16  and  C_19
REMARK   10  A    between atoms: C_22  and  C_23
REMARK                            x       y       z     vdW  Elec       q    Type
REMARK                         _______ _______ _______ _____ _____    ______ ____
ROOT
ATOM      1  C   UNL     1       2.402   3.572  19.620  0.00  0.00    +0.000 C 
ATOM      2  C   UNL     1       1.464   2.500  19.093  0.00  0.00    +0.000 C 
ENDROOT
BRANCH   1   4
ATOM      3  N   UNL     1       2.299   5.862  20.535  0.00  0.00    +0.000 N 
ATOM      4  C   UNL     1       1.586   4.705  20.283  0.00  0.00    +0.000 C 
ATOM      5  O   UNL     1       0.394   4.585  20.554  0.00  0.00    +0.000 OA
ATOM      6  H   UNL     1       3.255   5.948  20.220  0.00  0.00    +0.000 HD
BRANCH   3   7
ATOM      7  C   UNL     1       1.671   7.079  21.015  0.00  0.00    +0.000 C 
BRANCH   7  13
ATOM      8  C   UNL     1       0.915   9.364  20.134  0.00  0.00    +0.000 A 
ATOM      9  C   UNL     1       0.979  10.355  19.144  0.00  0.00    +0.000 A 
ATOM     10  C   UNL     1       1.659  10.125  17.948  0.00  0.00    +0.000 A 
ATOM     11  C   UNL     1       2.293   8.906  17.738  0.00  0.00    +0.000 A 
ATOM     12  C   UNL     1       2.275   7.931  18.736  0.00  0.00    +0.000 A 
ATOM     13  C   UNL     1       1.609   8.152  19.955  0.00  0.00    +0.000 A 
BRANCH   8  15
ATOM     14  C   UNL     1      -0.066  10.883  21.643  0.00  0.00    +0.000 C 
ATOM     15  O   UNL     1       0.220   9.525  21.306  0.00  0.00    +0.000 OA
ENDBRANCH   8  15
ENDBRANCH   7  13
ENDBRANCH   3   7
ENDBRANCH   1   4
BRANCH   1  16
ATOM     16  N   UNL     1       3.233   4.156  18.548  0.00  0.00    +0.000 NA
ATOM     17  H   UNL     1       3.123   5.158  18.382  0.00  0.00    +0.000 HD
BRANCH  16  18
ATOM     18  S   UNL     1       4.774   3.595  18.237  0.00  0.00    +0.000 S 
ATOM     19  O   UNL     1       5.216   2.930  19.441  0.00  0.00    +0.000 OA
ATOM     20  O   UNL     1       4.753   2.918  16.959  0.00  0.00    +0.000 OA
BRANCH  18  21
ATOM     21  C   UNL     1       5.730   5.088  18.087  0.00  0.00    +0.000 A 
ATOM     22  C   UNL     1       6.955   5.185  18.752  0.00  0.00    +0.000 A 
ATOM     23  C   UNL     1       7.725   6.344  18.617  0.00  0.00    +0.000 A 
ATOM     24  C   UNL     1       7.277   7.408  17.822  0.00  0.00    +0.000 A 
ATOM     25  C   UNL     1       8.103   8.652  17.656  0.00  0.00    +0.000 C 
ATOM     26  C   UNL     1       6.046   7.296  17.160  0.00  0.00    +0.000 A 
ATOM     27  C   UNL     1       5.274   6.139  17.284  0.00  0.00    +0.000 A 
ENDBRANCH  18  21
ENDBRANCH  16  18
ENDBRANCH   1  16
TORSDOF 7
ENDMDL
MODEL 6
REMARK VINA RESULT:      -7.2      2.098      7.149
REMARK  Name = 
REMARK  10 active torsions:
REMARK  status: ('A' for Active; 'I' for Inactive)
REMARK    1  A    between atoms: C_1  and  O_2
REMARK    2  A    between atoms: O_2  and  C_3
REMARK    3  A    between atoms: C_8  and  C_9
REMARK    4  A    between atoms: C_9  and  N_10
REMARK    5  A    between atoms: C_11  and  C_13
REMARK    6  A    between atoms: C_13  and  C_14
REMARK    7  A    between atoms: C_13  and  N_15
REMARK    8  A    between atoms: N_15  and  S_16
REMARK    9  A    between atoms: S_16  and  C_19
REMARK   10  A    between atoms: C_22  and  C_23
REMARK                            x       y       z     vdW  Elec       q    Type
REMARK                         _______ _______ _______ _____ _____    ______ ____
ROOT
ATOM      1  C   UNL     1       1.890   3.731  18.178  0.00  0.00    +0.000 C 
ATOM      2  C   UNL     1       0.965   2.624  18.655  0.00  0.00    +0.000 C 
ENDROOT
BRANCH   1   4
ATOM      3  N   UNL     1       4.104   3.800  17.091  0.00  0.00    +0.000 N 
ATOM      4  C   UNL     1       3.336   3.198  18.070  0.00  0.00    +0.000 C 
ATOM      5  O   UNL     1       3.768   2.314  18.806  0.00  0.00    +0.000 OA
ATOM      6  H   UNL     1       3.735   4.579  16.565  0.00  0.00    +0.000 HD
BRANCH   3   7
ATOM      7  C   UNL     1       5.522   3.536  16.937  0.00  0.00    +0.000 C 
BRANCH   7  13
ATOM      8  C   UNL     1       6.628   5.808  16.502  0.00  0.00    +0.000 A 
ATOM      9  C   UNL     1       7.349   6.909  16.984  0.00  0.00    +0.000 A 
ATOM     10  C   UNL     1       7.886   6.901  18.271  0.00  0.00    +0.000 A 
ATOM     11  C   UNL     1       7.693   5.797  19.092  0.00  0.00    +0.000 A 
ATOM     12  C   UNL     1       6.937   4.715  18.639  0.00  0.00    +0.000 A 
ATOM     13  C   UNL     1       6.374   4.712  17.349  0.00  0.00    +0.000 A 
BRANCH   8  15
ATOM     14  C   UNL     1       6.934   5.032  14.298  0.00  0.00    +0.000 C 
ATOM     15  O   UNL     1       6.120   5.749  15.227  0.00  0.00    +0.000 OA
ENDBRANCH   8  15
ENDBRANCH   7  13
ENDBRANCH   3   7
ENDBRANCH   1   4
BRANCH   1  16
ATOM     16  N   UNL     1       1.883   4.891  19.094  0.00  0.00    +0.000 NA
ATOM     17  H   UNL     1       1.675   4.694  20.074  0.00  0.00    +0.000 HD
BRANCH  16  18
ATOM     18  S   UNL     1       2.924   6.177  18.878  0.00  0.00    +0.000 S 
ATOM     19  O   UNL     1       4.057   5.934  19.740  0.00  0.00    +0.000 OA
ATOM     20  O   UNL     1       3.083   6.388  17.456  0.00  0.00    +0.000 OA
BRANCH  18  21
ATOM     21  C   UNL     1       2.027   7.549  19.572  0.00  0.00    +0.000 A 
ATOM     22  C   UNL     1       1.748   8.659  18.771  0.00  0.00    +0.000 A 
ATOM     23  C   UNL     1       1.021   9.728  19.301  0.00  0.00    +0.000 A 
ATOM     24  C   UNL     1       0.570   9.695  20.628  0.00  0.00    +0.000 A 
ATOM     25  C   UNL     1      -0.227  10.830  21.203  0.00  0.00    +0.000 C 
ATOM     26  C   UNL     1       0.857   8.573  21.420  0.00  0.00    +0.000 A 
ATOM     27  C   UNL     1       1.578   7.498  20.895  0.00  0.00    +0.000 A 
ENDBRANCH  18  21
ENDBRANCH  16  18
ENDBRANCH   1  16
TORSDOF 7
ENDMDL
MODEL 7
REMARK VINA RESULT:      -7.2      2.454      7.031
REMARK  Name = 
REMARK  10 active torsions:
REMARK  status: ('A' for Active; 'I' for Inactive)
REMARK    1  A    between atoms: C_1  and  O_2
REMARK    2  A    between atoms: O_2  and  C_3
REMARK    3  A    between atoms: C_8  and  C_9
REMARK    4  A    between atoms: C_9  and  N_10
REMARK    5  A    between atoms: C_11  and  C_13
REMARK    6  A    between atoms: C_13  and  C_14
REMARK    7  A    between atoms: C_13  and  N_15
REMARK    8  A    between atoms: N_15  and  S_16
REMARK    9  A    between atoms: S_16  and  C_19
REMARK   10  A    between atoms: C_22  and  C_23
REMARK                            x       y       z     vdW  Elec       q    Type
REMARK                         _______ _______ _______ _____ _____    ______ ____
ROOT
ATOM      1  C   UNL     1       1.723   3.595  18.258  0.00  0.00    +0.000 C 
ATOM      2  C   UNL     1       1.284   2.972  19.573  0.00  0.00    +0.000 C 
ENDROOT
BRANCH   1   4
ATOM      3  N   UNL     1       3.858   3.922  17.066  0.00  0.00    +0.000 N 
ATOM      4  C   UNL     1       3.124   3.071  17.871  0.00  0.00    +0.000 C 
ATOM      5  O   UNL     1       3.552   1.988  18.261  0.00  0.00    +0.000 OA
ATOM      6  H   UNL     1       3.501   4.839  16.838  0.00  0.00    +0.000 HD
BRANCH   3   7
ATOM      7  C   UNL     1       5.245   3.670  16.722  0.00  0.00    +0.000 C 
BRANCH   7  13
ATOM      8  C   UNL     1       6.608   5.819  16.415  0.00  0.00    +0.000 A 
ATOM      9  C   UNL     1       7.388   6.842  16.974  0.00  0.00    +0.000 A 
ATOM     10  C   UNL     1       7.800   6.777  18.304  0.00  0.00    +0.000 A 
ATOM     11  C   UNL     1       7.424   5.695  19.092  0.00  0.00    +0.000 A 
ATOM     12  C   UNL     1       6.608   4.696  18.559  0.00  0.00    +0.000 A 
ATOM     13  C   UNL     1       6.168   4.753  17.223  0.00  0.00    +0.000 A 
BRANCH   8  15
ATOM     14  C   UNL     1       7.055   5.048  14.235  0.00  0.00    +0.000 C 
ATOM     15  O   UNL     1       6.216   5.815  15.099  0.00  0.00    +0.000 OA
ENDBRANCH   8  15
ENDBRANCH   7  13
ENDBRANCH   3   7
ENDBRANCH   1   4
BRANCH   1  16
ATOM     16  N   UNL     1       1.775   5.069  18.335  0.00  0.00    +0.000 NA
ATOM     17  H   UNL     1       1.018   5.575  17.872  0.00  0.00    +0.000 HD
BRANCH  16  18
ATOM     18  S   UNL     1       2.373   5.851  19.683  0.00  0.00    +0.000 S 
ATOM     19  O   UNL     1       1.579   5.399  20.802  0.00  0.00    +0.000 OA
ATOM     20  O   UNL     1       3.813   5.720  19.672  0.00  0.00    +0.000 OA
BRANCH  18  21
ATOM     21  C   UNL     1       1.942   7.553  19.392  0.00  0.00    +0.000 A 
ATOM     22  C   UNL     1       1.364   8.297  20.424  0.00  0.00    +0.000 A 
ATOM     23  C   UNL     1       1.048   9.642  20.213  0.00  0.00    +0.000 A 
ATOM     24  C   UNL     1       1.305  10.248  18.974  0.00  0.00    +0.000 A 
ATOM     25  C   UNL     1       0.985  11.697  18.741  0.00  0.00    +0.000 C 
ATOM     26  C   UNL     1       1.886   9.489  17.949  0.00  0.00    +0.000 A 
ATOM     27  C   UNL     1       2.211   8.146  18.155  0.00  0.00    +0.000 A 
ENDBRANCH  18  21
ENDBRANCH  16  18
ENDBRANCH   1  16
TORSDOF 7
ENDMDL
MODEL 8
REMARK VINA RESULT:      -7.2      2.321      3.396
REMARK  Name = 
REMARK  10 active torsions:
REMARK  status: ('A' for Active; 'I' for Inactive)
REMARK    1  A    between atoms: C_1  and  O_2
REMARK    2  A    between atoms: O_2  and  C_3
REMARK    3  A    between atoms: C_8  and  C_9
REMARK    4  A    between atoms: C_9  and  N_10
REMARK    5  A    between atoms: C_11  and  C_13
REMARK    6  A    between atoms: C_13  and  C_14
REMARK    7  A    between atoms: C_13  and  N_15
REMARK    8  A    between atoms: N_15  and  S_16
REMARK    9  A    between atoms: S_16  and  C_19
REMARK   10  A    between atoms: C_22  and  C_23
REMARK                            x       y       z     vdW  Elec       q    Type
REMARK                         _______ _______ _______ _____ _____    ______ ____
ROOT
ATOM      1  C   UNL     1       2.457   3.439  19.243  0.00  0.00    +0.000 C 
ATOM      2  C   UNL     1       1.191   2.915  18.588  0.00  0.00    +0.000 C 
ENDROOT
BRANCH   1   4
ATOM      3  N   UNL     1       2.177   5.768  20.011  0.00  0.00    +0.000 N 
ATOM      4  C   UNL     1       2.094   4.434  20.367  0.00  0.00    +0.000 C 
ATOM      5  O   UNL     1       1.747   4.065  21.486  0.00  0.00    +0.000 OA
ATOM      6  H   UNL     1       2.386   6.025  19.056  0.00  0.00    +0.000 HD
BRANCH   3   7
ATOM      7  C   UNL     1       1.736   6.839  20.883  0.00  0.00    +0.000 C 
BRANCH   7  13
ATOM      8  C   UNL     1       0.965   9.280  20.740  0.00  0.00    +0.000 A 
ATOM      9  C   UNL     1       0.884  10.478  20.016  0.00  0.00    +0.000 A 
ATOM     10  C   UNL     1       1.279  10.531  18.680  0.00  0.00    +0.000 A 
ATOM     11  C   UNL     1       1.772   9.389  18.060  0.00  0.00    +0.000 A 
ATOM     12  C   UNL     1       1.901   8.204  18.785  0.00  0.00    +0.000 A 
ATOM     13  C   UNL     1       1.523   8.135  20.139  0.00  0.00    +0.000 A 
BRANCH   8  15
ATOM     14  C   UNL     1      -0.488  10.080  22.413  0.00  0.00    +0.000 C 
ATOM     15  O   UNL     1       0.544   9.166  22.042  0.00  0.00    +0.000 OA
ENDBRANCH   8  15
ENDBRANCH   7  13
ENDBRANCH   3   7
ENDBRANCH   1   4
BRANCH   1  16
ATOM     16  N   UNL     1       3.338   4.123  18.275  0.00  0.00    +0.000 NA
ATOM     17  H   UNL     1       2.911   4.865  17.718  0.00  0.00    +0.000 HD
BRANCH  16  18
ATOM     18  S   UNL     1       4.956   4.378  18.598  0.00  0.00    +0.000 S 
ATOM     19  O   UNL     1       5.045   5.671  19.236  0.00  0.00    +0.000 OA
ATOM     20  O   UNL     1       5.480   3.185  19.225  0.00  0.00    +0.000 OA
BRANCH  18  21
ATOM     21  C   UNL     1       5.674   4.548  16.979  0.00  0.00    +0.000 A 
ATOM     22  C   UNL     1       7.014   4.924  16.861  0.00  0.00    +0.000 A 
ATOM     23  C   UNL     1       7.594   5.032  15.594  0.00  0.00    +0.000 A 
ATOM     24  C   UNL     1       6.840   4.767  14.442  0.00  0.00    +0.000 A 
ATOM     25  C   UNL     1       7.456   4.863  13.075  0.00  0.00    +0.000 C 
ATOM     26  C   UNL     1       5.496   4.388  14.575  0.00  0.00    +0.000 A 
ATOM     27  C   UNL     1       4.912   4.272  15.839  0.00  0.00    +0.000 A 
ENDBRANCH  18  21
ENDBRANCH  16  18
ENDBRANCH   1  16
TORSDOF 7
ENDMDL
MODEL 9
REMARK VINA RESULT:      -7.2      2.616      3.636
REMARK  Name = 
REMARK  10 active torsions:
REMARK  status: ('A' for Active; 'I' for Inactive)
REMARK    1  A    between atoms: C_1  and  O_2
REMARK    2  A    between atoms: O_2  and  C_3
REMARK    3  A    between atoms: C_8  and  C_9
REMARK    4  A    between atoms: C_9  and  N_10
REMARK    5  A    between atoms: C_11  and  C_13
REMARK    6  A    between atoms: C_13  and  C_14
REMARK    7  A    between atoms: C_13  and  N_15
REMARK    8  A    between atoms: N_15  and  S_16
REMARK    9  A    between atoms: S_16  and  C_19
REMARK   10  A    between atoms: C_22  and  C_23
REMARK                            x       y       z     vdW  Elec       q    Type
REMARK                         _______ _______ _______ _____ _____    ______ ____
ROOT
ATOM      1  C   UNL     1       2.250   7.716  19.312  0.00  0.00    +0.000 C 
ATOM      2  C   UNL     1       1.497   7.602  20.627  0.00  0.00    +0.000 C 
ENDROOT
BRANCH   1   4
ATOM      3  N   UNL     1       0.729   9.652  19.138  0.00  0.00    +0.000 N 
ATOM      4  C   UNL     1       1.727   8.928  18.510  0.00  0.00    +0.000 C 
ATOM      5  O   UNL     1       2.173   9.229  17.406  0.00  0.00    +0.000 OA
ATOM      6  H   UNL     1       0.451   9.419  20.081  0.00  0.00    +0.000 HD
BRANCH   3   7
ATOM      7  C   UNL     1       0.218  10.902  18.608  0.00  0.00    +0.000 C 
BRANCH   7  13
ATOM      8  C   UNL     1      -2.228  11.621  18.875  0.00  0.00    +0.000 A 
ATOM      9  C   UNL     1      -3.557  11.561  18.431  0.00  0.00    +0.000 A 
ATOM     10  C   UNL     1      -3.935  10.662  17.435  0.00  0.00    +0.000 A 
ATOM     11  C   UNL     1      -2.985   9.824  16.864  0.00  0.00    +0.000 A 
ATOM     12  C   UNL     1      -1.651   9.908  17.265  0.00  0.00    +0.000 A 
ATOM     13  C   UNL     1      -1.247  10.821  18.256  0.00  0.00    +0.000 A 
BRANCH   8  15
ATOM     14  C   UNL     1      -2.870  13.170  20.529  0.00  0.00    +0.000 C 
ATOM     15  O   UNL     1      -1.816  12.455  19.884  0.00  0.00    +0.000 OA
ENDBRANCH   8  15
ENDBRANCH   7  13
ENDBRANCH   3   7
ENDBRANCH   1   4
BRANCH   1  16
ATOM     16  N   UNL     1       2.102   6.503  18.483  0.00  0.00    +0.000 NA
ATOM     17  H   UNL     1       1.916   6.652  17.490  0.00  0.00    +0.000 HD
BRANCH  16  18
ATOM     18  S   UNL     1       2.983   5.120  18.797  0.00  0.00    +0.000 S 
ATOM     19  O   UNL     1       3.760   5.392  19.984  0.00  0.00    +0.000 OA
ATOM     20  O   UNL     1       2.083   3.991  18.721  0.00  0.00    +0.000 OA
BRANCH  18  21
ATOM     21  C   UNL     1       4.125   5.045  17.434  0.00  0.00    +0.000 A 
ATOM     22  C   UNL     1       4.595   3.803  17.003  0.00  0.00    +0.000 A 
ATOM     23  C   UNL     1       5.470   3.733  15.916  0.00  0.00    +0.000 A 
ATOM     24  C   UNL     1       5.880   4.901  15.256  0.00  0.00    +0.000 A 
ATOM     25  C   UNL     1       6.807   4.838  14.076  0.00  0.00    +0.000 C 
ATOM     26  C   UNL     1       5.399   6.141  15.699  0.00  0.00    +0.000 A 
ATOM     27  C   UNL     1       4.518   6.218  16.781  0.00  0.00    +0.000 A 
ENDBRANCH  18  21
ENDBRANCH  16  18
ENDBRANCH   1  16
TORSDOF 7
ENDMDL
