MODEL 1
REMARK VINA RESULT:      -8.1      0.000      0.000
REMARK  Name = 
REMARK  5 active torsions:
REMARK  status: ('A' for Active; 'I' for Inactive)
REMARK    1  A    between atoms: C_1  and  N_2
REMARK    2  A    between atoms: N_2  and  C_3
REMARK    3  A    between atoms: N_2  and  C_4
REMARK    4  A    between atoms: N_16  and  S_17
REMARK    5  A    between atoms: S_17  and  C_20
REMARK                            x       y       z     vdW  Elec       q    Type
REMARK                         _______ _______ _______ _____ _____    ______ ____
ROOT
ATOM      1  C   UNL     1       1.159   8.910  20.388  0.00  0.00    +0.000 C 
ATOM      2  C   UNL     1       1.352   9.069  18.853  0.00  0.00    +0.000 C 
ATOM      3  C   UNL     1       2.580   8.283  18.347  0.00  0.00    +0.000 C 
ATOM      4  C   UNL     1       2.604   6.912  18.938  0.00  0.00    +0.000 A 
ATOM      5  C   UNL     1       1.851   6.510  20.020  0.00  0.00    +0.000 A 
ATOM      6  C   UNL     1       2.134   5.140  20.265  0.00  0.00    +0.000 A 
ATOM      7  C   UNL     1       1.624   4.208  21.191  0.00  0.00    +0.000 A 
ATOM      8  C   UNL     1       2.130   2.913  21.200  0.00  0.00    +0.000 A 
ATOM      9  F   UNL     1       1.646   2.028  22.081  0.00  0.00    +0.000 F 
ATOM     10  C   UNL     1       3.128   2.525  20.322  0.00  0.00    +0.000 A 
ATOM     11  C   UNL     1       3.642   3.426  19.386  0.00  0.00    +0.000 A 
ATOM     12  C   UNL     1       3.130   4.740  19.354  0.00  0.00    +0.000 A 
ATOM     13  N   UNL     1       3.410   5.853  18.570  0.00  0.00    +0.000 N 
ATOM     14  C   UNL     1       0.891   7.413  20.735  0.00  0.00    +0.000 C 
ENDROOT
BRANCH   1  16
ATOM     15  C   UNL     1      -0.297   9.323  22.310  0.00  0.00    +0.000 C 
ATOM     16  N   UNL     1       0.158   9.813  21.007  0.00  0.00    +0.000 NA
ATOM     17  C   UNL     1       0.569  11.210  21.111  0.00  0.00    +0.000 C 
ENDBRANCH   1  16
BRANCH  13  18
ATOM     18  S   UNL     1       4.460   5.874  17.213  0.00  0.00    +0.000 S 
ATOM     19  O   UNL     1       4.555   4.492  16.783  0.00  0.00    +0.000 OA
ATOM     20  O   UNL     1       4.008   6.915  16.315  0.00  0.00    +0.000 OA
BRANCH  18  21
ATOM     21  C   UNL     1       6.055   6.362  17.822  0.00  0.00    +0.000 A 
ATOM     22  C   UNL     1       6.768   5.448  18.609  0.00  0.00    +0.000 A 
ATOM     23  C   UNL     1       8.020   5.797  19.117  0.00  0.00    +0.000 A 
ATOM     24  C   UNL     1       8.554   7.056  18.840  0.00  0.00    +0.000 A 
ATOM     25  C   UNL     1       7.844   7.953  18.042  0.00  0.00    +0.000 A 
ATOM     26 CL   UNL     1       8.516   9.499  17.697  0.00  0.00    +0.000 Cl
ATOM     27  C   UNL     1       6.594   7.615  17.523  0.00  0.00    +0.000 A 
ENDBRANCH  18  21
ENDBRANCH  13  18
TORSDOF 3
ENDMDL
MODEL 2
REMARK VINA RESULT:      -7.8      1.001      1.360
REMARK  Name = 
REMARK  5 active torsions:
REMARK  status: ('A' for Active; 'I' for Inactive)
REMARK    1  A    between atoms: C_1  and  N_2
REMARK    2  A    between atoms: N_2  and  C_3
REMARK    3  A    between atoms: N_2  and  C_4
REMARK    4  A    between atoms: N_16  and  S_17
REMARK    5  A    between atoms: S_17  and  C_20
REMARK                            x       y       z     vdW  Elec       q    Type
REMARK                         _______ _______ _______ _____ _____    ______ ____
ROOT
ATOM      1  C   UNL     1       1.135   8.896  20.520  0.00  0.00    +0.000 C 
ATOM      2  C   UNL     1       1.301   9.081  18.985  0.00  0.00    +0.000 C 
ATOM      3  C   UNL     1       2.513   8.294  18.443  0.00  0.00    +0.000 C 
ATOM      4  C   UNL     1       2.535   6.912  19.009  0.00  0.00    +0.000 A 
ATOM      5  C   UNL     1       1.799   6.497  20.098  0.00  0.00    +0.000 A 
ATOM      6  C   UNL     1       2.075   5.121  20.313  0.00  0.00    +0.000 A 
ATOM      7  C   UNL     1       1.573   4.177  21.232  0.00  0.00    +0.000 A 
ATOM      8  C   UNL     1       2.069   2.878  21.209  0.00  0.00    +0.000 A 
ATOM      9  F   UNL     1       1.594   1.981  22.083  0.00  0.00    +0.000 F 
ATOM     10  C   UNL     1       3.047   2.498  20.306  0.00  0.00    +0.000 A 
ATOM     11  C   UNL     1       3.552   3.411  19.376  0.00  0.00    +0.000 A 
ATOM     12  C   UNL     1       3.050   4.729  19.377  0.00  0.00    +0.000 A 
ATOM     13  N   UNL     1       3.326   5.854  18.607  0.00  0.00    +0.000 N 
ATOM     14  C   UNL     1       0.861   7.396  20.846  0.00  0.00    +0.000 C 
ENDROOT
BRANCH   1  16
ATOM     15  C   UNL     1      -0.036   9.473  22.589  0.00  0.00    +0.000 C 
ATOM     16  N   UNL     1       0.153   9.797  21.174  0.00  0.00    +0.000 NA
ATOM     17  C   UNL     1       0.424  11.222  21.016  0.00  0.00    +0.000 C 
ENDBRANCH   1  16
BRANCH  13  18
ATOM     18  S   UNL     1       4.351   5.890  17.232  0.00  0.00    +0.000 S 
ATOM     19  O   UNL     1       4.442   4.512  16.788  0.00  0.00    +0.000 OA
ATOM     20  O   UNL     1       3.879   6.937  16.352  0.00  0.00    +0.000 OA
BRANCH  18  21
ATOM     21  C   UNL     1       5.955   6.377  17.816  0.00  0.00    +0.000 A 
ATOM     22  C   UNL     1       6.540   7.522  17.259  0.00  0.00    +0.000 A 
ATOM     23  C   UNL     1       7.805   7.932  17.681  0.00  0.00    +0.000 A 
ATOM     24  C   UNL     1       8.482   7.198  18.657  0.00  0.00    +0.000 A 
ATOM     25  C   UNL     1       7.884   6.069  19.217  0.00  0.00    +0.000 A 
ATOM     26 CL   UNL     1       8.723   5.177  20.426  0.00  0.00    +0.000 Cl
ATOM     27  C   UNL     1       6.618   5.651  18.807  0.00  0.00    +0.000 A 
ENDBRANCH  18  21
ENDBRANCH  13  18
TORSDOF 3
ENDMDL
MODEL 3
REMARK VINA RESULT:      -7.7      1.586      1.762
REMARK  Name = 
REMARK  5 active torsions:
REMARK  status: ('A' for Active; 'I' for Inactive)
REMARK    1  A    between atoms: C_1  and  N_2
REMARK    2  A    between atoms: N_2  and  C_3
REMARK    3  A    between atoms: N_2  and  C_4
REMARK    4  A    between atoms: N_16  and  S_17
REMARK    5  A    between atoms: S_17  and  C_20
REMARK                            x       y       z     vdW  Elec       q    Type
REMARK                         _______ _______ _______ _____ _____    ______ ____
ROOT
ATOM      1  C   UNL     1       1.706   8.608  19.275  0.00  0.00    +0.000 C 
ATOM      2  C   UNL     1       2.396   9.070  17.961  0.00  0.00    +0.000 C 
ATOM      3  C   UNL     1       3.583   8.156  17.587  0.00  0.00    +0.000 C 
ATOM      4  C   UNL     1       3.203   6.720  17.734  0.00  0.00    +0.000 A 
ATOM      5  C   UNL     1       2.093   6.266  18.414  0.00  0.00    +0.000 A 
ATOM      6  C   UNL     1       2.066   4.850  18.312  0.00  0.00    +0.000 A 
ATOM      7  C   UNL     1       1.150   3.876  18.757  0.00  0.00    +0.000 A 
ATOM      8  C   UNL     1       1.418   2.533  18.519  0.00  0.00    +0.000 A 
ATOM      9  F   UNL     1       0.548   1.606  18.942  0.00  0.00    +0.000 F 
ATOM     10  C   UNL     1       2.568   2.135  17.858  0.00  0.00    +0.000 A 
ATOM     11  C   UNL     1       3.486   3.082  17.396  0.00  0.00    +0.000 A 
ATOM     12  C   UNL     1       3.223   4.449  17.618  0.00  0.00    +0.000 A 
ATOM     13  N   UNL     1       3.908   5.616  17.296  0.00  0.00    +0.000 N 
ATOM     14  C   UNL     1       1.111   7.178  19.086  0.00  0.00    +0.000 C 
ENDROOT
BRANCH   1  16
ATOM     15  C   UNL     1      -0.221  10.050  18.838  0.00  0.00    +0.000 C 
ATOM     16  N   UNL     1       0.715   9.552  19.848  0.00  0.00    +0.000 NA
ATOM     17  C   UNL     1      -0.015   9.052  21.008  0.00  0.00    +0.000 C 
ENDBRANCH   1  16
BRANCH  13  18
ATOM     18  S   UNL     1       5.322   5.703  16.329  0.00  0.00    +0.000 S 
ATOM     19  O   UNL     1       5.656   4.327  16.015  0.00  0.00    +0.000 OA
ATOM     20  O   UNL     1       5.091   6.680  15.287  0.00  0.00    +0.000 OA
BRANCH  18  21
ATOM     21  C   UNL     1       6.605   6.345  17.376  0.00  0.00    +0.000 A 
ATOM     22  C   UNL     1       7.141   5.500  18.355  0.00  0.00    +0.000 A 
ATOM     23  C   UNL     1       8.142   5.969  19.207  0.00  0.00    +0.000 A 
ATOM     24  C   UNL     1       8.603   7.280  19.078  0.00  0.00    +0.000 A 
ATOM     25  C   UNL     1       8.074   8.110  18.089  0.00  0.00    +0.000 A 
ATOM     26 CL   UNL     1       8.656   9.721  17.932  0.00  0.00    +0.000 Cl
ATOM     27  C   UNL     1       7.076   7.651  17.228  0.00  0.00    +0.000 A 
ENDBRANCH  18  21
ENDBRANCH  13  18
TORSDOF 3
ENDMDL
MODEL 4
REMARK VINA RESULT:      -7.2      2.585      3.124
REMARK  Name = 
REMARK  5 active torsions:
REMARK  status: ('A' for Active; 'I' for Inactive)
REMARK    1  A    between atoms: C_1  and  N_2
REMARK    2  A    between atoms: N_2  and  C_3
REMARK    3  A    between atoms: N_2  and  C_4
REMARK    4  A    between atoms: N_16  and  S_17
REMARK    5  A    between atoms: S_17  and  C_20
REMARK                            x       y       z     vdW  Elec       q    Type
REMARK                         _______ _______ _______ _____ _____    ______ ____
ROOT
ATOM      1  C   UNL     1       2.103   8.581  18.802  0.00  0.00    +0.000 C 
ATOM      2  C   UNL     1       2.985   8.560  17.521  0.00  0.00    +0.000 C 
ATOM      3  C   UNL     1       4.299   7.782  17.746  0.00  0.00    +0.000 C 
ATOM      4  C   UNL     1       4.031   6.497  18.458  0.00  0.00    +0.000 A 
ATOM      5  C   UNL     1       2.859   6.192  19.116  0.00  0.00    +0.000 A 
ATOM      6  C   UNL     1       2.982   4.880  19.643  0.00  0.00    +0.000 A 
ATOM      7  C   UNL     1       2.091   4.044  20.346  0.00  0.00    +0.000 A 
ATOM      8  C   UNL     1       2.521   2.788  20.759  0.00  0.00    +0.000 A 
ATOM      9  F   UNL     1       1.675   1.994  21.428  0.00  0.00    +0.000 F 
ATOM     10  C   UNL     1       3.807   2.347  20.498  0.00  0.00    +0.000 A 
ATOM     11  C   UNL     1       4.706   3.151  19.791  0.00  0.00    +0.000 A 
ATOM     12  C   UNL     1       4.281   4.422  19.354  0.00  0.00    +0.000 A 
ATOM     13  N   UNL     1       4.905   5.444  18.646  0.00  0.00    +0.000 N 
ATOM     14  C   UNL     1       1.688   7.126  19.183  0.00  0.00    +0.000 C 
ENDROOT
BRANCH   1  16
ATOM     15  C   UNL     1       0.187   9.489  20.022  0.00  0.00    +0.000 C 
ATOM     16  N   UNL     1       0.940   9.501  18.766  0.00  0.00    +0.000 NA
ATOM     17  C   UNL     1       1.251  10.874  18.379  0.00  0.00    +0.000 C 
ENDBRANCH   1  16
BRANCH  13  18
ATOM     18  S   UNL     1       6.463   5.351  17.933  0.00  0.00    +0.000 S 
ATOM     19  O   UNL     1       6.963   6.713  17.931  0.00  0.00    +0.000 OA
ATOM     20  O   UNL     1       7.189   4.282  18.584  0.00  0.00    +0.000 OA
BRANCH  18  21
ATOM     21  C   UNL     1       6.213   4.865  16.244  0.00  0.00    +0.000 A 
ATOM     22  C   UNL     1       5.091   4.081  15.943  0.00  0.00    +0.000 A 
ATOM     23  C   UNL     1       4.865   3.667  14.630  0.00  0.00    +0.000 A 
ATOM     24  C   UNL     1       5.758   4.036  13.623  0.00  0.00    +0.000 A 
ATOM     25  C   UNL     1       6.863   4.830  13.930  0.00  0.00    +0.000 A 
ATOM     26 CL   UNL     1       7.953   5.288  12.680  0.00  0.00    +0.000 Cl
ATOM     27  C   UNL     1       7.098   5.255  15.238  0.00  0.00    +0.000 A 
ENDBRANCH  18  21
ENDBRANCH  13  18
TORSDOF 3
ENDMDL
MODEL 5
REMARK VINA RESULT:      -7.2      1.776      2.049
REMARK  Name = 
REMARK  5 active torsions:
REMARK  status: ('A' for Active; 'I' for Inactive)
REMARK    1  A    between atoms: C_1  and  N_2
REMARK    2  A    between atoms: N_2  and  C_3
REMARK    3  A    between atoms: N_2  and  C_4
REMARK    4  A    between atoms: N_16  and  S_17
REMARK    5  A    between atoms: S_17  and  C_20
REMARK                            x       y       z     vdW  Elec       q    Type
REMARK                         _______ _______ _______ _____ _____    ______ ____
ROOT
ATOM      1  C   UNL     1       1.651   8.434  19.588  0.00  0.00    +0.000 C 
ATOM      2  C   UNL     1       2.266   8.988  18.273  0.00  0.00    +0.000 C 
ATOM      3  C   UNL     1       3.457   8.131  17.793  0.00  0.00    +0.000 C 
ATOM      4  C   UNL     1       3.122   6.678  17.875  0.00  0.00    +0.000 A 
ATOM      5  C   UNL     1       2.058   6.155  18.578  0.00  0.00    +0.000 A 
ATOM      6  C   UNL     1       2.062   4.747  18.397  0.00  0.00    +0.000 A 
ATOM      7  C   UNL     1       1.193   3.724  18.826  0.00  0.00    +0.000 A 
ATOM      8  C   UNL     1       1.484   2.405  18.499  0.00  0.00    +0.000 A 
ATOM      9  F   UNL     1       0.659   1.432  18.909  0.00  0.00    +0.000 F 
ATOM     10  C   UNL     1       2.612   2.078  17.766  0.00  0.00    +0.000 A 
ATOM     11  C   UNL     1       3.483   3.075  17.316  0.00  0.00    +0.000 A 
ATOM     12  C   UNL     1       3.195   4.419  17.628  0.00  0.00    +0.000 A 
ATOM     13  N   UNL     1       3.834   5.621  17.343  0.00  0.00    +0.000 N 
ATOM     14  C   UNL     1       1.085   7.001  19.345  0.00  0.00    +0.000 C 
ENDROOT
BRANCH   1  16
ATOM     15  C   UNL     1       0.595   9.072  21.701  0.00  0.00    +0.000 C 
ATOM     16  N   UNL     1       0.665   9.316  20.259  0.00  0.00    +0.000 NA
ATOM     17  C   UNL     1       0.835  10.742  19.998  0.00  0.00    +0.000 C 
ENDBRANCH   1  16
BRANCH  13  18
ATOM     18  S   UNL     1       5.198   5.803  16.319  0.00  0.00    +0.000 S 
ATOM     19  O   UNL     1       5.551   4.456  15.911  0.00  0.00    +0.000 OA
ATOM     20  O   UNL     1       4.893   6.830  15.347  0.00  0.00    +0.000 OA
BRANCH  18  21
ATOM     21  C   UNL     1       6.512   6.420  17.341  0.00  0.00    +0.000 A 
ATOM     22  C   UNL     1       7.033   7.688  17.052  0.00  0.00    +0.000 A 
ATOM     23  C   UNL     1       8.075   8.204  17.823  0.00  0.00    +0.000 A 
ATOM     24  C   UNL     1       8.594   7.453  18.879  0.00  0.00    +0.000 A 
ATOM     25  C   UNL     1       8.058   6.198  19.169  0.00  0.00    +0.000 A 
ATOM     26 CL   UNL     1       8.698   5.285  20.479  0.00  0.00    +0.000 Cl
ATOM     27  C   UNL     1       7.013   5.673  18.409  0.00  0.00    +0.000 A 
ENDBRANCH  18  21
ENDBRANCH  13  18
TORSDOF 3
ENDMDL
MODEL 6
REMARK VINA RESULT:      -7.1      5.791      8.693
REMARK  Name = 
REMARK  5 active torsions:
REMARK  status: ('A' for Active; 'I' for Inactive)
REMARK    1  A    between atoms: C_1  and  N_2
REMARK    2  A    between atoms: N_2  and  C_3
REMARK    3  A    between atoms: N_2  and  C_4
REMARK    4  A    between atoms: N_16  and  S_17
REMARK    5  A    between atoms: S_17  and  C_20
REMARK                            x       y       z     vdW  Elec       q    Type
REMARK                         _______ _______ _______ _____ _____    ______ ____
ROOT
ATOM      1  C   UNL     1      -4.731  13.188  22.989  0.00  0.00    +0.000 C 
ATOM      2  C   UNL     1      -3.441  14.024  23.218  0.00  0.00    +0.000 C 
ATOM      3  C   UNL     1      -2.196  13.327  22.628  0.00  0.00    +0.000 C 
ATOM      4  C   UNL     1      -2.486  12.811  21.258  0.00  0.00    +0.000 A 
ATOM      5  C   UNL     1      -3.749  12.670  20.722  0.00  0.00    +0.000 A 
ATOM      6  C   UNL     1      -3.609  12.172  19.399  0.00  0.00    +0.000 A 
ATOM      7  C   UNL     1      -4.541  11.895  18.378  0.00  0.00    +0.000 A 
ATOM      8  C   UNL     1      -4.088  11.382  17.168  0.00  0.00    +0.000 A 
ATOM      9  F   UNL     1      -4.973  11.117  16.198  0.00  0.00    +0.000 F 
ATOM     10  C   UNL     1      -2.744  11.133  16.950  0.00  0.00    +0.000 A 
ATOM     11  C   UNL     1      -1.798  11.411  17.941  0.00  0.00    +0.000 A 
ATOM     12  C   UNL     1      -2.239  11.945  19.170  0.00  0.00    +0.000 A 
ATOM     13  N   UNL     1      -1.581  12.326  20.334  0.00  0.00    +0.000 N 
ATOM     14  C   UNL     1      -5.000  13.039  21.460  0.00  0.00    +0.000 C 
ENDROOT
BRANCH   1  16
ATOM     15  C   UNL     1      -6.499  14.872  23.148  0.00  0.00    +0.000 C 
ATOM     16  N   UNL     1      -5.935  13.650  23.724  0.00  0.00    +0.000 NA
ATOM     17  C   UNL     1      -6.979  12.643  23.891  0.00  0.00    +0.000 C 
ENDBRANCH   1  16
BRANCH  13  18
ATOM     18  S   UNL     1       0.121  12.377  20.542  0.00  0.00    +0.000 S 
ATOM     19  O   UNL     1       0.629  13.054  19.364  0.00  0.00    +0.000 OA
ATOM     20  O   UNL     1       0.393  12.873  21.874  0.00  0.00    +0.000 OA
BRANCH  18  21
ATOM     21  C   UNL     1       0.683  10.694  20.483  0.00  0.00    +0.000 A 
ATOM     22  C   UNL     1       0.655   9.948  21.669  0.00  0.00    +0.000 A 
ATOM     23  C   UNL     1       1.100   8.625  21.668  0.00  0.00    +0.000 A 
ATOM     24  C   UNL     1       1.571   8.053  20.486  0.00  0.00    +0.000 A 
ATOM     25  C   UNL     1       1.580   8.799  19.307  0.00  0.00    +0.000 A 
ATOM     26 CL   UNL     1       2.154   8.081  17.852  0.00  0.00    +0.000 Cl
ATOM     27  C   UNL     1       1.134  10.121  19.293  0.00  0.00    +0.000 A 
ENDBRANCH  18  21
ENDBRANCH  13  18
TORSDOF 3
ENDMDL
MODEL 7
REMARK VINA RESULT:      -6.9      5.790      8.793
REMARK  Name = 
REMARK  5 active torsions:
REMARK  status: ('A' for Active; 'I' for Inactive)
REMARK    1  A    between atoms: C_1  and  N_2
REMARK    2  A    between atoms: N_2  and  C_3
REMARK    3  A    between atoms: N_2  and  C_4
REMARK    4  A    between atoms: N_16  and  S_17
REMARK    5  A    between atoms: S_17  and  C_20
REMARK                            x       y       z     vdW  Elec       q    Type
REMARK                         _______ _______ _______ _____ _____    ______ ____
ROOT
ATOM      1  C   UNL     1      -4.771  11.988  18.279  0.00  0.00    +0.000 C 
ATOM      2  C   UNL     1      -3.594  11.049  17.893  0.00  0.00    +0.000 C 
ATOM      3  C   UNL     1      -2.225  11.679  18.231  0.00  0.00    +0.000 C 
ATOM      4  C   UNL     1      -2.249  12.280  19.597  0.00  0.00    +0.000 A 
ATOM      5  C   UNL     1      -3.393  12.541  20.322  0.00  0.00    +0.000 A 
ATOM      6  C   UNL     1      -3.003  13.089  21.572  0.00  0.00    +0.000 A 
ATOM      7  C   UNL     1      -3.731  13.483  22.713  0.00  0.00    +0.000 A 
ATOM      8  C   UNL     1      -3.051  14.019  23.800  0.00  0.00    +0.000 A 
ATOM      9  F   UNL     1      -3.743  14.395  24.884  0.00  0.00    +0.000 F 
ATOM     10  C   UNL     1      -1.676  14.177  23.782  0.00  0.00    +0.000 A 
ATOM     11  C   UNL     1      -0.929  13.782  22.668  0.00  0.00    +0.000 A 
ATOM     12  C   UNL     1      -1.602  13.224  21.562  0.00  0.00    +0.000 A 
ATOM     13  N   UNL     1      -1.173  12.740  20.331  0.00  0.00    +0.000 N 
ATOM     14  C   UNL     1      -4.771  12.231  19.820  0.00  0.00    +0.000 C 
ENDROOT
BRANCH   1  16
ATOM     15  C   UNL     1      -6.769  10.634  18.676  0.00  0.00    +0.000 C 
ATOM     16  N   UNL     1      -6.108  11.583  17.778  0.00  0.00    +0.000 NA
ATOM     17  C   UNL     1      -7.008  12.688  17.462  0.00  0.00    +0.000 C 
ENDBRANCH   1  16
BRANCH  13  18
ATOM     18  S   UNL     1       0.464  12.552  19.852  0.00  0.00    +0.000 S 
ATOM     19  O   UNL     1       0.480  12.834  18.429  0.00  0.00    +0.000 OA
ATOM     20  O   UNL     1       1.288  13.298  20.779  0.00  0.00    +0.000 OA
BRANCH  18  21
ATOM     21  C   UNL     1       0.854  10.833  20.067  0.00  0.00    +0.000 A 
ATOM     22  C   UNL     1       0.681  10.273  21.339  0.00  0.00    +0.000 A 
ATOM     23  C   UNL     1       0.988   8.928  21.553  0.00  0.00    +0.000 A 
ATOM     24  C   UNL     1       1.466   8.150  20.499  0.00  0.00    +0.000 A 
ATOM     25  C   UNL     1       1.620   8.714  19.232  0.00  0.00    +0.000 A 
ATOM     26 CL   UNL     1       2.201   7.743  17.936  0.00  0.00    +0.000 Cl
ATOM     27  C   UNL     1       1.312  10.055  19.003  0.00  0.00    +0.000 A 
ENDBRANCH  18  21
ENDBRANCH  13  18
TORSDOF 3
ENDMDL
MODEL 8
REMARK VINA RESULT:      -6.9      4.660      8.137
REMARK  Name = 
REMARK  5 active torsions:
REMARK  status: ('A' for Active; 'I' for Inactive)
REMARK    1  A    between atoms: C_1  and  N_2
REMARK    2  A    between atoms: N_2  and  C_3
REMARK    3  A    between atoms: N_2  and  C_4
REMARK    4  A    between atoms: N_16  and  S_17
REMARK    5  A    between atoms: S_17  and  C_20
REMARK                            x       y       z     vdW  Elec       q    Type
REMARK                         _______ _______ _______ _____ _____    ______ ____
ROOT
ATOM      1  C   UNL     1       2.246   7.492  18.262  0.00  0.00    +0.000 C 
ATOM      2  C   UNL     1       2.524   8.813  17.491  0.00  0.00    +0.000 C 
ATOM      3  C   UNL     1       1.359   9.816  17.638  0.00  0.00    +0.000 C 
ATOM      4  C   UNL     1       0.912   9.892  19.061  0.00  0.00    +0.000 A 
ATOM      5  C   UNL     1       1.242   8.978  20.039  0.00  0.00    +0.000 A 
ATOM      6  C   UNL     1       0.647   9.405  21.255  0.00  0.00    +0.000 A 
ATOM      7  C   UNL     1       0.692   8.902  22.571  0.00  0.00    +0.000 A 
ATOM      8  C   UNL     1      -0.033   9.544  23.568  0.00  0.00    +0.000 A 
ATOM      9  F   UNL     1       0.009   9.065  24.819  0.00  0.00    +0.000 F 
ATOM     10  C   UNL     1      -0.801  10.662  23.293  0.00  0.00    +0.000 A 
ATOM     11  C   UNL     1      -0.852  11.189  21.999  0.00  0.00    +0.000 A 
ATOM     12  C   UNL     1      -0.111  10.558  20.978  0.00  0.00    +0.000 A 
ATOM     13  N   UNL     1       0.054  10.818  19.622  0.00  0.00    +0.000 N 
ATOM     14  C   UNL     1       2.117   7.787  19.788  0.00  0.00    +0.000 C 
ENDROOT
BRANCH   1  16
ATOM     15  C   UNL     1       4.325   6.804  17.171  0.00  0.00    +0.000 C 
ATOM     16  N   UNL     1       3.187   6.377  17.988  0.00  0.00    +0.000 NA
ATOM     17  C   UNL     1       3.656   5.661  19.170  0.00  0.00    +0.000 C 
ENDBRANCH   1  16
BRANCH  13  18
ATOM     18  S   UNL     1      -0.551  12.191  18.792  0.00  0.00    +0.000 S 
ATOM     19  O   UNL     1      -0.943  13.124  19.832  0.00  0.00    +0.000 OA
ATOM     20  O   UNL     1       0.410  12.557  17.774  0.00  0.00    +0.000 OA
BRANCH  18  21
ATOM     21  C   UNL     1      -2.026  11.662  17.957  0.00  0.00    +0.000 A 
ATOM     22  C   UNL     1      -3.244  11.766  18.641  0.00  0.00    +0.000 A 
ATOM     23  C   UNL     1      -4.424  11.349  18.025  0.00  0.00    +0.000 A 
ATOM     24  C   UNL     1      -4.385  10.829  16.731  0.00  0.00    +0.000 A 
ATOM     25  C   UNL     1      -3.169  10.744  16.052  0.00  0.00    +0.000 A 
ATOM     26 CL   UNL     1      -3.132  10.112  14.452  0.00  0.00    +0.000 Cl
ATOM     27  C   UNL     1      -1.982  11.162  16.654  0.00  0.00    +0.000 A 
ENDBRANCH  18  21
ENDBRANCH  13  18
TORSDOF 3
ENDMDL
MODEL 9
REMARK VINA RESULT:      -6.8      6.065      8.680
REMARK  Name = 
REMARK  5 active torsions:
REMARK  status: ('A' for Active; 'I' for Inactive)
REMARK    1  A    between atoms: C_1  and  N_2
REMARK    2  A    between atoms: N_2  and  C_3
REMARK    3  A    between atoms: N_2  and  C_4
REMARK    4  A    between atoms: N_16  and  S_17
REMARK    5  A    between atoms: S_17  and  C_20
REMARK                            x       y       z     vdW  Elec       q    Type
REMARK                         _______ _______ _______ _____ _____    ______ ____
ROOT
ATOM      1  C   UNL     1      -5.511  12.638  21.404  0.00  0.00    +0.000 C 
ATOM      2  C   UNL     1      -4.385  13.659  21.728  0.00  0.00    +0.000 C 
ATOM      3  C   UNL     1      -2.991  13.111  21.350  0.00  0.00    +0.000 C 
ATOM      4  C   UNL     1      -3.026  12.482  19.996  0.00  0.00    +0.000 A 
ATOM      5  C   UNL     1      -4.176  12.134  19.320  0.00  0.00    +0.000 A 
ATOM      6  C   UNL     1      -3.798  11.587  18.066  0.00  0.00    +0.000 A 
ATOM      7  C   UNL     1      -4.540  11.124  16.961  0.00  0.00    +0.000 A 
ATOM      8  C   UNL     1      -3.867  10.611  15.858  0.00  0.00    +0.000 A 
ATOM      9  F   UNL     1      -4.572  10.169  14.808  0.00  0.00    +0.000 F 
ATOM     10  C   UNL     1      -2.485  10.542  15.828  0.00  0.00    +0.000 A 
ATOM     11  C   UNL     1      -1.725  11.007  16.905  0.00  0.00    +0.000 A 
ATOM     12  C   UNL     1      -2.392  11.542  18.026  0.00  0.00    +0.000 A 
ATOM     13  N   UNL     1      -1.950  12.078  19.231  0.00  0.00    +0.000 N 
ATOM     14  C   UNL     1      -5.553  12.365  19.869  0.00  0.00    +0.000 C 
ENDROOT
BRANCH   1  16
ATOM     15  C   UNL     1      -7.391  14.203  21.378  0.00  0.00    +0.000 C 
ATOM     16  N   UNL     1      -6.852  12.966  21.947  0.00  0.00    +0.000 NA
ATOM     17  C   UNL     1      -7.838  11.894  21.847  0.00  0.00    +0.000 C 
ENDBRANCH   1  16
BRANCH  13  18
ATOM     18  S   UNL     1      -0.313  12.380  19.644  0.00  0.00    +0.000 S 
ATOM     19  O   UNL     1       0.155  13.347  18.668  0.00  0.00    +0.000 OA
ATOM     20  O   UNL     1      -0.253  12.651  21.064  0.00  0.00    +0.000 OA
BRANCH  18  21
ATOM     21  C   UNL     1       0.563  10.861  19.361  0.00  0.00    +0.000 A 
ATOM     22  C   UNL     1       1.286  10.730  18.169  0.00  0.00    +0.000 A 
ATOM     23  C   UNL     1       1.978   9.547  17.902  0.00  0.00    +0.000 A 
ATOM     24  C   UNL     1       1.945   8.502  18.826  0.00  0.00    +0.000 A 
ATOM     25  C   UNL     1       1.234   8.649  20.018  0.00  0.00    +0.000 A 
ATOM     26 CL   UNL     1       1.208   7.357  21.155  0.00  0.00    +0.000 Cl
ATOM     27  C   UNL     1       0.543   9.827  20.298  0.00  0.00    +0.000 A 
ENDBRANCH  18  21
ENDBRANCH  13  18
TORSDOF 3
ENDMDL
