MODEL 1
REMARK VINA RESULT:      -8.3      0.000      0.000
REMARK  Name = 
REMARK  7 active torsions:
REMARK  status: ('A' for Active; 'I' for Inactive)
REMARK    1  A    between atoms: C_1  and  O_2
REMARK    2  A    between atoms: O_2  and  C_3
REMARK    3  A    between atoms: C_6  and  S_7
REMARK    4  A    between atoms: S_7  and  N_10
REMARK    5  A    between atoms: C_14  and  C_16
REMARK    6  A    between atoms: C_20  and  S_21
REMARK    7  A    between atoms: S_21  and  N_24
REMARK                            x       y       z     vdW  Elec       q    Type
REMARK                         _______ _______ _______ _____ _____    ______ ____
ROOT
ATOM      1  N   UNL     1       2.186   3.021  19.009  0.00  0.00    +0.000 NA
ATOM      2  C   UNL     1       1.532   3.183  20.321  0.00  0.00    +0.000 C 
ATOM      3  C   UNL     1       1.571   4.630  20.827  0.00  0.00    +0.000 C 
ATOM      4  N   UNL     1       1.570   5.705  19.820  0.00  0.00    +0.000 N 
ATOM      5  C   UNL     1       1.791   6.994  20.340  0.00  0.00    +0.000 C 
ATOM      6  O   UNL     1       2.015   7.213  21.528  0.00  0.00    +0.000 OA
ATOM      7  C   UNL     1       1.958   5.376  18.427  0.00  0.00    +0.000 C 
ATOM      8  C   UNL     1       1.626   3.949  18.018  0.00  0.00    +0.000 C 
ENDROOT
BRANCH   5   9
ATOM      9  C   UNL     1       1.684   8.156  19.429  0.00  0.00    +0.000 A 
ATOM     10  C   UNL     1       2.554   8.309  18.348  0.00  0.00    +0.000 A 
ATOM     11  C   UNL     1       2.428   9.426  17.512  0.00  0.00    +0.000 A 
ATOM     12  C   UNL     1       1.440  10.386  17.759  0.00  0.00    +0.000 A 
ATOM     13  C   UNL     1       0.608  10.244  18.872  0.00  0.00    +0.000 A 
ATOM     14  C   UNL     1       0.742   9.142  19.710  0.00  0.00    +0.000 A 
BRANCH  13  15
ATOM     15  S   UNL     1      -0.722  11.379  19.199  0.00  0.00    +0.000 S 
ATOM     16  O   UNL     1      -0.932  11.408  20.630  0.00  0.00    +0.000 OA
ATOM     17  O   UNL     1      -0.427  12.591  18.462  0.00  0.00    +0.000 OA
BRANCH  15  18
ATOM     18  N   UNL     1      -2.062  10.643  18.481  0.00  0.00    +0.000 NA
ATOM     19  C   UNL     1      -1.884   9.937  17.200  0.00  0.00    +0.000 C 
ATOM     20  C   UNL     1      -2.637  10.790  16.199  0.00  0.00    +0.000 C 
ATOM     21  C   UNL     1      -3.811  11.343  16.989  0.00  0.00    +0.000 C 
ATOM     22  C   UNL     1      -3.364  11.353  18.451  0.00  0.00    +0.000 C 
ENDBRANCH  15  18
ENDBRANCH  13  15
ENDBRANCH   5   9
BRANCH   1  23
ATOM     23  S   UNL     1       3.784   2.506  18.875  0.00  0.00    +0.000 S 
ATOM     24  O   UNL     1       3.787   1.440  17.892  0.00  0.00    +0.000 OA
ATOM     25  O   UNL     1       4.292   2.282  20.211  0.00  0.00    +0.000 OA
BRANCH  23  29
ATOM     26  C   UNL     1       6.572   5.688  17.080  0.00  0.00    +0.000 A 
ATOM     27  C   UNL     1       6.294   5.695  18.447  0.00  0.00    +0.000 A 
ATOM     28  C   UNL     1       5.429   4.744  19.007  0.00  0.00    +0.000 A 
ATOM     29  C   UNL     1       4.770   3.830  18.182  0.00  0.00    +0.000 A 
ATOM     30  C   UNL     1       5.022   3.843  16.804  0.00  0.00    +0.000 A 
ATOM     31  C   UNL     1       5.927   4.764  16.256  0.00  0.00    +0.000 A 
BRANCH  26  33
ATOM     32  C   UNL     1       7.729   7.702  17.554  0.00  0.00    +0.000 C 
ATOM     33  O   UNL     1       7.461   6.635  16.645  0.00  0.00    +0.000 OA
ENDBRANCH  26  33
ENDBRANCH  23  29
ENDBRANCH   1  23
TORSDOF 6
ENDMDL
MODEL 2
REMARK VINA RESULT:      -8.3      3.519      9.784
REMARK  Name = 
REMARK  7 active torsions:
REMARK  status: ('A' for Active; 'I' for Inactive)
REMARK    1  A    between atoms: C_1  and  O_2
REMARK    2  A    between atoms: O_2  and  C_3
REMARK    3  A    between atoms: C_6  and  S_7
REMARK    4  A    between atoms: S_7  and  N_10
REMARK    5  A    between atoms: C_14  and  C_16
REMARK    6  A    between atoms: C_20  and  S_21
REMARK    7  A    between atoms: S_21  and  N_24
REMARK                            x       y       z     vdW  Elec       q    Type
REMARK                         _______ _______ _______ _____ _____    ______ ____
ROOT
ATOM      1  N   UNL     1      -0.693  10.107  21.026  0.00  0.00    +0.000 NA
ATOM      2  C   UNL     1      -0.935  10.542  19.638  0.00  0.00    +0.000 C 
ATOM      3  C   UNL     1       0.201  10.146  18.687  0.00  0.00    +0.000 C 
ATOM      4  N   UNL     1       0.952   8.917  18.996  0.00  0.00    +0.000 N 
ATOM      5  C   UNL     1       2.089   8.709  18.194  0.00  0.00    +0.000 C 
ATOM      6  O   UNL     1       2.464   9.504  17.335  0.00  0.00    +0.000 OA
ATOM      7  C   UNL     1       0.889   8.371  20.373  0.00  0.00    +0.000 C 
ATOM      8  C   UNL     1      -0.420   8.664  21.091  0.00  0.00    +0.000 C 
ENDROOT
BRANCH   5   9
ATOM      9  C   UNL     1       2.840   7.442  18.340  0.00  0.00    +0.000 A 
ATOM     10  C   UNL     1       2.650   6.612  19.447  0.00  0.00    +0.000 A 
ATOM     11  C   UNL     1       3.385   5.425  19.555  0.00  0.00    +0.000 A 
ATOM     12  C   UNL     1       4.308   5.071  18.565  0.00  0.00    +0.000 A 
ATOM     13  C   UNL     1       4.523   5.935  17.488  0.00  0.00    +0.000 A 
ATOM     14  C   UNL     1       3.803   7.122  17.387  0.00  0.00    +0.000 A 
BRANCH  13  15
ATOM     15  S   UNL     1       5.618   5.512  16.151  0.00  0.00    +0.000 S 
ATOM     16  O   UNL     1       5.467   4.096  15.892  0.00  0.00    +0.000 OA
ATOM     17  O   UNL     1       5.396   6.490  15.106  0.00  0.00    +0.000 OA
BRANCH  15  18
ATOM     18  N   UNL     1       7.157   5.773  16.794  0.00  0.00    +0.000 NA
ATOM     19  C   UNL     1       7.681   4.825  17.792  0.00  0.00    +0.000 C 
ATOM     20  C   UNL     1       7.722   5.625  19.078  0.00  0.00    +0.000 C 
ATOM     21  C   UNL     1       8.060   7.036  18.628  0.00  0.00    +0.000 C 
ATOM     22  C   UNL     1       7.569   7.143  17.184  0.00  0.00    +0.000 C 
ENDBRANCH  15  18
ENDBRANCH  13  15
ENDBRANCH   5   9
BRANCH   1  23
ATOM     23  S   UNL     1      -0.028  11.144  22.176  0.00  0.00    +0.000 S 
ATOM     24  O   UNL     1       1.007  11.896  21.495  0.00  0.00    +0.000 OA
ATOM     25  O   UNL     1       0.277  10.363  23.354  0.00  0.00    +0.000 OA
BRANCH  23  29
ATOM     26  C   UNL     1      -3.401  14.095  23.196  0.00  0.00    +0.000 A 
ATOM     27  C   UNL     1      -2.263  14.542  22.525  0.00  0.00    +0.000 A 
ATOM     28  C   UNL     1      -1.216  13.658  22.225  0.00  0.00    +0.000 A 
ATOM     29  C   UNL     1      -1.268  12.336  22.673  0.00  0.00    +0.000 A 
ATOM     30  C   UNL     1      -2.396  11.895  23.377  0.00  0.00    +0.000 A 
ATOM     31  C   UNL     1      -3.462  12.769  23.631  0.00  0.00    +0.000 A 
BRANCH  26  33
ATOM     32  C   UNL     1      -3.990  16.391  23.221  0.00  0.00    +0.000 C 
ATOM     33  O   UNL     1      -4.380  15.030  23.403  0.00  0.00    +0.000 OA
ENDBRANCH  26  33
ENDBRANCH  23  29
ENDBRANCH   1  23
TORSDOF 6
ENDMDL
MODEL 3
REMARK VINA RESULT:      -8.1      2.645      9.072
REMARK  Name = 
REMARK  7 active torsions:
REMARK  status: ('A' for Active; 'I' for Inactive)
REMARK    1  A    between atoms: C_1  and  O_2
REMARK    2  A    between atoms: O_2  and  C_3
REMARK    3  A    between atoms: C_6  and  S_7
REMARK    4  A    between atoms: S_7  and  N_10
REMARK    5  A    between atoms: C_14  and  C_16
REMARK    6  A    between atoms: C_20  and  S_21
REMARK    7  A    between atoms: S_21  and  N_24
REMARK                            x       y       z     vdW  Elec       q    Type
REMARK                         _______ _______ _______ _____ _____    ______ ____
ROOT
ATOM      1  N   UNL     1       0.293   9.609  20.053  0.00  0.00    +0.000 NA
ATOM      2  C   UNL     1       0.151   9.779  18.595  0.00  0.00    +0.000 C 
ATOM      3  C   UNL     1       1.324   9.176  17.813  0.00  0.00    +0.000 C 
ATOM      4  N   UNL     1       2.005   8.007  18.396  0.00  0.00    +0.000 N 
ATOM      5  C   UNL     1       3.178   7.618  17.724  0.00  0.00    +0.000 C 
ATOM      6  O   UNL     1       3.636   8.224  16.758  0.00  0.00    +0.000 OA
ATOM      7  C   UNL     1       1.838   7.735  19.844  0.00  0.00    +0.000 C 
ATOM      8  C   UNL     1       0.501   8.198  20.406  0.00  0.00    +0.000 C 
ENDROOT
BRANCH   5   9
ATOM      9  C   UNL     1       3.867   6.381  18.155  0.00  0.00    +0.000 A 
ATOM     10  C   UNL     1       5.145   6.422  18.716  0.00  0.00    +0.000 A 
ATOM     11  C   UNL     1       5.769   5.230  19.105  0.00  0.00    +0.000 A 
ATOM     12  C   UNL     1       5.119   4.002  18.930  0.00  0.00    +0.000 A 
ATOM     13  C   UNL     1       3.861   3.972  18.323  0.00  0.00    +0.000 A 
ATOM     14  C   UNL     1       3.247   5.155  17.925  0.00  0.00    +0.000 A 
BRANCH  13  15
ATOM     15  S   UNL     1       2.942   2.459  18.146  0.00  0.00    +0.000 S 
ATOM     16  O   UNL     1       2.017   2.635  17.047  0.00  0.00    +0.000 OA
ATOM     17  O   UNL     1       3.909   1.381  18.144  0.00  0.00    +0.000 OA
BRANCH  15  18
ATOM     18  N   UNL     1       2.052   2.361  19.578  0.00  0.00    +0.000 NA
ATOM     19  C   UNL     1       0.757   3.058  19.661  0.00  0.00    +0.000 C 
ATOM     20  C   UNL     1       1.000   4.174  20.656  0.00  0.00    +0.000 C 
ATOM     21  C   UNL     1       1.987   3.581  21.647  0.00  0.00    +0.000 C 
ATOM     22  C   UNL     1       2.743   2.493  20.884  0.00  0.00    +0.000 C 
ENDBRANCH  15  18
ENDBRANCH  13  15
ENDBRANCH   5   9
BRANCH   1  23
ATOM     23  S   UNL     1       0.930  10.826  21.029  0.00  0.00    +0.000 S 
ATOM     24  O   UNL     1       1.683  11.699  20.150  0.00  0.00    +0.000 OA
ATOM     25  O   UNL     1       1.562  10.197  22.167  0.00  0.00    +0.000 OA
BRANCH  23  29
ATOM     26  C   UNL     1      -2.731  13.136  22.573  0.00  0.00    +0.000 A 
ATOM     27  C   UNL     1      -2.040  13.593  21.451  0.00  0.00    +0.000 A 
ATOM     28  C   UNL     1      -0.909  12.912  20.980  0.00  0.00    +0.000 A 
ATOM     29  C   UNL     1      -0.413  11.812  21.685  0.00  0.00    +0.000 A 
ATOM     30  C   UNL     1      -1.087  11.371  22.831  0.00  0.00    +0.000 A 
ATOM     31  C   UNL     1      -2.247  12.027  23.270  0.00  0.00    +0.000 A 
BRANCH  26  33
ATOM     32  C   UNL     1      -4.941  13.786  22.012  0.00  0.00    +0.000 C 
ATOM     33  O   UNL     1      -3.845  13.852  22.924  0.00  0.00    +0.000 OA
ENDBRANCH  26  33
ENDBRANCH  23  29
ENDBRANCH   1  23
TORSDOF 6
ENDMDL
MODEL 4
REMARK VINA RESULT:      -8.0      1.712      2.286
REMARK  Name = 
REMARK  7 active torsions:
REMARK  status: ('A' for Active; 'I' for Inactive)
REMARK    1  A    between atoms: C_1  and  O_2
REMARK    2  A    between atoms: O_2  and  C_3
REMARK    3  A    between atoms: C_6  and  S_7
REMARK    4  A    between atoms: S_7  and  N_10
REMARK    5  A    between atoms: C_14  and  C_16
REMARK    6  A    between atoms: C_20  and  S_21
REMARK    7  A    between atoms: S_21  and  N_24
REMARK                            x       y       z     vdW  Elec       q    Type
REMARK                         _______ _______ _______ _____ _____    ______ ____
ROOT
ATOM      1  N   UNL     1       2.159   2.988  18.988  0.00  0.00    +0.000 NA
ATOM      2  C   UNL     1       1.492   3.117  20.297  0.00  0.00    +0.000 C 
ATOM      3  C   UNL     1       1.540   4.547  20.847  0.00  0.00    +0.000 C 
ATOM      4  N   UNL     1       1.561   5.652  19.874  0.00  0.00    +0.000 N 
ATOM      5  C   UNL     1       1.788   6.922  20.436  0.00  0.00    +0.000 C 
ATOM      6  O   UNL     1       2.002   7.104  21.632  0.00  0.00    +0.000 OA
ATOM      7  C   UNL     1       1.961   5.362  18.476  0.00  0.00    +0.000 C 
ATOM      8  C   UNL     1       1.620   3.952  18.019  0.00  0.00    +0.000 C 
ENDROOT
BRANCH   5   9
ATOM      9  C   UNL     1       1.704   8.113  19.559  0.00  0.00    +0.000 A 
ATOM     10  C   UNL     1       2.485   8.219  18.407  0.00  0.00    +0.000 A 
ATOM     11  C   UNL     1       2.383   9.364  17.606  0.00  0.00    +0.000 A 
ATOM     12  C   UNL     1       1.509  10.399  17.959  0.00  0.00    +0.000 A 
ATOM     13  C   UNL     1       0.770  10.299  19.140  0.00  0.00    +0.000 A 
ATOM     14  C   UNL     1       0.880   9.168  19.943  0.00  0.00    +0.000 A 
BRANCH  13  15
ATOM     15  S   UNL     1      -0.422  11.535  19.607  0.00  0.00    +0.000 S 
ATOM     16  O   UNL     1      -0.100  12.749  18.889  0.00  0.00    +0.000 OA
ATOM     17  O   UNL     1      -1.728  10.920  19.486  0.00  0.00    +0.000 OA
BRANCH  15  18
ATOM     18  N   UNL     1      -0.114  11.790  21.248  0.00  0.00    +0.000 NA
ATOM     19  C   UNL     1      -0.833  10.974  22.241  0.00  0.00    +0.000 C 
ATOM     20  C   UNL     1      -1.755  11.958  22.932  0.00  0.00    +0.000 C 
ATOM     21  C   UNL     1      -0.967  13.257  22.947  0.00  0.00    +0.000 C 
ATOM     22  C   UNL     1       0.003  13.173  21.768  0.00  0.00    +0.000 C 
ENDBRANCH  15  18
ENDBRANCH  13  15
ENDBRANCH   5   9
BRANCH   1  23
ATOM     23  S   UNL     1       3.754   2.461  18.856  0.00  0.00    +0.000 S 
ATOM     24  O   UNL     1       3.750   1.394  17.875  0.00  0.00    +0.000 OA
ATOM     25  O   UNL     1       4.259   2.235  20.193  0.00  0.00    +0.000 OA
BRANCH  23  29
ATOM     26  C   UNL     1       6.570   5.624  17.071  0.00  0.00    +0.000 A 
ATOM     27  C   UNL     1       6.248   5.662  18.428  0.00  0.00    +0.000 A 
ATOM     28  C   UNL     1       5.374   4.717  18.983  0.00  0.00    +0.000 A 
ATOM     29  C   UNL     1       4.749   3.777  18.161  0.00  0.00    +0.000 A 
ATOM     30  C   UNL     1       5.046   3.757  16.792  0.00  0.00    +0.000 A 
ATOM     31  C   UNL     1       5.960   4.673  16.250  0.00  0.00    +0.000 A 
BRANCH  26  33
ATOM     32  C   UNL     1       7.737   7.630  17.554  0.00  0.00    +0.000 C 
ATOM     33  O   UNL     1       7.464   6.568  16.641  0.00  0.00    +0.000 OA
ENDBRANCH  26  33
ENDBRANCH  23  29
ENDBRANCH   1  23
TORSDOF 6
ENDMDL
MODEL 5
REMARK VINA RESULT:      -8.0      1.779      2.212
REMARK  Name = 
REMARK  7 active torsions:
REMARK  status: ('A' for Active; 'I' for Inactive)
REMARK    1  A    between atoms: C_1  and  O_2
REMARK    2  A    between atoms: O_2  and  C_3
REMARK    3  A    between atoms: C_6  and  S_7
REMARK    4  A    between atoms: S_7  and  N_10
REMARK    5  A    between atoms: C_14  and  C_16
REMARK    6  A    between atoms: C_20  and  S_21
REMARK    7  A    between atoms: S_21  and  N_24
REMARK                            x       y       z     vdW  Elec       q    Type
REMARK                         _______ _______ _______ _____ _____    ______ ____
ROOT
ATOM      1  N   UNL     1       2.197   2.970  18.836  0.00  0.00    +0.000 NA
ATOM      2  C   UNL     1       1.494   3.031  20.131  0.00  0.00    +0.000 C 
ATOM      3  C   UNL     1       1.519   4.434  20.751  0.00  0.00    +0.000 C 
ATOM      4  N   UNL     1       1.559   5.585  19.833  0.00  0.00    +0.000 N 
ATOM      5  C   UNL     1       1.764   6.827  20.462  0.00  0.00    +0.000 C 
ATOM      6  O   UNL     1       1.944   6.951  21.671  0.00  0.00    +0.000 OA
ATOM      7  C   UNL     1       1.997   5.365  18.434  0.00  0.00    +0.000 C 
ATOM      8  C   UNL     1       1.677   3.977  17.900  0.00  0.00    +0.000 C 
ENDROOT
BRANCH   5   9
ATOM      9  C   UNL     1       1.695   8.058  19.642  0.00  0.00    +0.000 A 
ATOM     10  C   UNL     1       2.262   8.111  18.368  0.00  0.00    +0.000 A 
ATOM     11  C   UNL     1       2.184   9.296  17.624  0.00  0.00    +0.000 A 
ATOM     12  C   UNL     1       1.546  10.423  18.155  0.00  0.00    +0.000 A 
ATOM     13  C   UNL     1       1.026  10.370  19.450  0.00  0.00    +0.000 A 
ATOM     14  C   UNL     1       1.115   9.198  20.194  0.00  0.00    +0.000 A 
BRANCH  13  15
ATOM     15  S   UNL     1       0.129  11.735  20.157  0.00  0.00    +0.000 S 
ATOM     16  O   UNL     1      -1.278  11.512  19.905  0.00  0.00    +0.000 OA
ATOM     17  O   UNL     1       0.628  11.908  21.506  0.00  0.00    +0.000 OA
BRANCH  15  18
ATOM     18  N   UNL     1       0.629  13.062  19.240  0.00  0.00    +0.000 NA
ATOM     19  C   UNL     1       1.691  13.933  19.771  0.00  0.00    +0.000 C 
ATOM     20  C   UNL     1       0.984  15.238  20.074  0.00  0.00    +0.000 C 
ATOM     21  C   UNL     1      -0.079  15.344  18.994  0.00  0.00    +0.000 C 
ATOM     22  C   UNL     1      -0.380  13.909  18.560  0.00  0.00    +0.000 C 
ENDBRANCH  15  18
ENDBRANCH  13  15
ENDBRANCH   5   9
BRANCH   1  23
ATOM     23  S   UNL     1       3.797   2.457  18.721  0.00  0.00    +0.000 S 
ATOM     24  O   UNL     1       3.818   1.409  17.720  0.00  0.00    +0.000 OA
ATOM     25  O   UNL     1       4.282   2.211  20.061  0.00  0.00    +0.000 OA
BRANCH  23  29
ATOM     26  C   UNL     1       6.618   5.673  17.039  0.00  0.00    +0.000 A 
ATOM     27  C   UNL     1       6.277   5.682  18.392  0.00  0.00    +0.000 A 
ATOM     28  C   UNL     1       5.401   4.721  18.916  0.00  0.00    +0.000 A 
ATOM     29  C   UNL     1       4.794   3.793  18.066  0.00  0.00    +0.000 A 
ATOM     30  C   UNL     1       5.109   3.804  16.701  0.00  0.00    +0.000 A 
ATOM     31  C   UNL     1       6.024   4.737  16.191  0.00  0.00    +0.000 A 
BRANCH  26  33
ATOM     32  C   UNL     1       7.697   7.723  17.541  0.00  0.00    +0.000 C 
ATOM     33  O   UNL     1       7.511   6.632  16.640  0.00  0.00    +0.000 OA
ENDBRANCH  26  33
ENDBRANCH  23  29
ENDBRANCH   1  23
TORSDOF 6
ENDMDL
MODEL 6
REMARK VINA RESULT:      -7.9      0.868      1.045
REMARK  Name = 
REMARK  7 active torsions:
REMARK  status: ('A' for Active; 'I' for Inactive)
REMARK    1  A    between atoms: C_1  and  O_2
REMARK    2  A    between atoms: O_2  and  C_3
REMARK    3  A    between atoms: C_6  and  S_7
REMARK    4  A    between atoms: S_7  and  N_10
REMARK    5  A    between atoms: C_14  and  C_16
REMARK    6  A    between atoms: C_20  and  S_21
REMARK    7  A    between atoms: S_21  and  N_24
REMARK                            x       y       z     vdW  Elec       q    Type
REMARK                         _______ _______ _______ _____ _____    ______ ____
ROOT
ATOM      1  N   UNL     1       2.140   3.066  18.845  0.00  0.00    +0.000 NA
ATOM      2  C   UNL     1       1.374   3.156  20.102  0.00  0.00    +0.000 C 
ATOM      3  C   UNL     1       1.401   4.563  20.712  0.00  0.00    +0.000 C 
ATOM      4  N   UNL     1       1.515   5.705  19.789  0.00  0.00    +0.000 N 
ATOM      5  C   UNL     1       1.717   6.948  20.417  0.00  0.00    +0.000 C 
ATOM      6  O   UNL     1       1.838   7.078  21.633  0.00  0.00    +0.000 OA
ATOM      7  C   UNL     1       2.019   5.463  18.415  0.00  0.00    +0.000 C 
ATOM      8  C   UNL     1       1.693   4.077  17.877  0.00  0.00    +0.000 C 
ENDROOT
BRANCH   5   9
ATOM      9  C   UNL     1       1.719   8.173  19.586  0.00  0.00    +0.000 A 
ATOM     10  C   UNL     1       2.319   8.190  18.325  0.00  0.00    +0.000 A 
ATOM     11  C   UNL     1       2.308   9.369  17.570  0.00  0.00    +0.000 A 
ATOM     12  C   UNL     1       1.706  10.528  18.076  0.00  0.00    +0.000 A 
ATOM     13  C   UNL     1       1.153  10.509  19.358  0.00  0.00    +0.000 A 
ATOM     14  C   UNL     1       1.175   9.340  20.114  0.00  0.00    +0.000 A 
BRANCH  13  15
ATOM     15  S   UNL     1       0.298  11.916  20.031  0.00  0.00    +0.000 S 
ATOM     16  O   UNL     1       0.765  12.106  21.387  0.00  0.00    +0.000 OA
ATOM     17  O   UNL     1       0.402  12.976  19.050  0.00  0.00    +0.000 OA
BRANCH  15  18
ATOM     18  N   UNL     1      -1.314  11.415  20.090  0.00  0.00    +0.000 NA
ATOM     19  C   UNL     1      -1.873  10.681  18.942  0.00  0.00    +0.000 C 
ATOM     20  C   UNL     1      -2.876  11.643  18.339  0.00  0.00    +0.000 C 
ATOM     21  C   UNL     1      -3.437  12.392  19.536  0.00  0.00    +0.000 C 
ATOM     22  C   UNL     1      -2.352  12.336  20.612  0.00  0.00    +0.000 C 
ENDBRANCH  15  18
ENDBRANCH  13  15
ENDBRANCH   5   9
BRANCH   1  23
ATOM     23  S   UNL     1       3.732   2.516  18.817  0.00  0.00    +0.000 S 
ATOM     24  O   UNL     1       3.774   1.445  17.840  0.00  0.00    +0.000 OA
ATOM     25  O   UNL     1       4.147   2.288  20.183  0.00  0.00    +0.000 OA
BRANCH  23  29
ATOM     26  C   UNL     1       6.691   5.619  17.162  0.00  0.00    +0.000 A 
ATOM     27  C   UNL     1       6.422   5.572  18.530  0.00  0.00    +0.000 A 
ATOM     28  C   UNL     1       5.505   4.645  19.047  0.00  0.00    +0.000 A 
ATOM     29  C   UNL     1       4.789   3.814  18.183  0.00  0.00    +0.000 A 
ATOM     30  C   UNL     1       5.034   3.883  16.805  0.00  0.00    +0.000 A 
ATOM     31  C   UNL     1       5.988   4.777  16.297  0.00  0.00    +0.000 A 
BRANCH  26  33
ATOM     32  C   UNL     1       7.601   7.789  17.445  0.00  0.00    +0.000 C 
ATOM     33  O   UNL     1       7.631   6.533  16.767  0.00  0.00    +0.000 OA
ENDBRANCH  26  33
ENDBRANCH  23  29
ENDBRANCH   1  23
TORSDOF 6
ENDMDL
MODEL 7
REMARK VINA RESULT:      -7.9      1.631      2.228
REMARK  Name = 
REMARK  7 active torsions:
REMARK  status: ('A' for Active; 'I' for Inactive)
REMARK    1  A    between atoms: C_1  and  O_2
REMARK    2  A    between atoms: O_2  and  C_3
REMARK    3  A    between atoms: C_6  and  S_7
REMARK    4  A    between atoms: S_7  and  N_10
REMARK    5  A    between atoms: C_14  and  C_16
REMARK    6  A    between atoms: C_20  and  S_21
REMARK    7  A    between atoms: S_21  and  N_24
REMARK                            x       y       z     vdW  Elec       q    Type
REMARK                         _______ _______ _______ _____ _____    ______ ____
ROOT
ATOM      1  N   UNL     1       2.341   2.938  19.400  0.00  0.00    +0.000 NA
ATOM      2  C   UNL     1       1.823   3.131  20.767  0.00  0.00    +0.000 C 
ATOM      3  C   UNL     1       1.850   4.600  21.208  0.00  0.00    +0.000 C 
ATOM      4  N   UNL     1       1.693   5.628  20.165  0.00  0.00    +0.000 N 
ATOM      5  C   UNL     1       1.908   6.946  20.606  0.00  0.00    +0.000 C 
ATOM      6  O   UNL     1       2.247   7.228  21.754  0.00  0.00    +0.000 OA
ATOM      7  C   UNL     1       1.944   5.254  18.752  0.00  0.00    +0.000 C 
ATOM      8  C   UNL     1       1.636   3.797  18.438  0.00  0.00    +0.000 C 
ENDROOT
BRANCH   5   9
ATOM      9  C   UNL     1       1.651   8.061  19.667  0.00  0.00    +0.000 A 
ATOM     10  C   UNL     1       2.287   8.121  18.425  0.00  0.00    +0.000 A 
ATOM     11  C   UNL     1       2.026   9.196  17.565  0.00  0.00    +0.000 A 
ATOM     12  C   UNL     1       1.137  10.207  17.948  0.00  0.00    +0.000 A 
ATOM     13  C   UNL     1       0.546  10.159  19.212  0.00  0.00    +0.000 A 
ATOM     14  C   UNL     1       0.815   9.098  20.072  0.00  0.00    +0.000 A 
BRANCH  13  15
ATOM     15  S   UNL     1      -0.657  11.363  19.731  0.00  0.00    +0.000 S 
ATOM     16  O   UNL     1      -1.603  11.533  18.650  0.00  0.00    +0.000 OA
ATOM     17  O   UNL     1      -1.098  10.968  21.054  0.00  0.00    +0.000 OA
BRANCH  15  18
ATOM     18  N   UNL     1       0.240  12.786  19.883  0.00  0.00    +0.000 NA
ATOM     19  C   UNL     1       0.309  13.708  18.736  0.00  0.00    +0.000 C 
ATOM     20  C   UNL     1       1.750  13.622  18.277  0.00  0.00    +0.000 C 
ATOM     21  C   UNL     1       2.537  13.411  19.559  0.00  0.00    +0.000 C 
ATOM     22  C   UNL     1       1.567  12.753  20.542  0.00  0.00    +0.000 C 
ENDBRANCH  15  18
ENDBRANCH  13  15
ENDBRANCH   5   9
BRANCH   1  23
ATOM     23  S   UNL     1       3.938   2.484  19.114  0.00  0.00    +0.000 S 
ATOM     24  O   UNL     1       3.889   1.428  18.122  0.00  0.00    +0.000 OA
ATOM     25  O   UNL     1       4.573   2.268  20.394  0.00  0.00    +0.000 OA
BRANCH  23  29
ATOM     26  C   UNL     1       6.428   5.780  17.100  0.00  0.00    +0.000 A 
ATOM     27  C   UNL     1       6.306   5.748  18.489  0.00  0.00    +0.000 A 
ATOM     28  C   UNL     1       5.533   4.761  19.117  0.00  0.00    +0.000 A 
ATOM     29  C   UNL     1       4.806   3.850  18.348  0.00  0.00    +0.000 A 
ATOM     30  C   UNL     1       4.901   3.901  16.951  0.00  0.00    +0.000 A 
ATOM     31  C   UNL     1       5.715   4.859  16.330  0.00  0.00    +0.000 A 
BRANCH  26  33
ATOM     32  C   UNL     1       7.746   7.701  17.538  0.00  0.00    +0.000 C 
ATOM     33  O   UNL     1       7.239   6.760  16.592  0.00  0.00    +0.000 OA
ENDBRANCH  26  33
ENDBRANCH  23  29
ENDBRANCH   1  23
TORSDOF 6
ENDMDL
MODEL 8
REMARK VINA RESULT:      -7.8      6.624      9.590
REMARK  Name = 
REMARK  7 active torsions:
REMARK  status: ('A' for Active; 'I' for Inactive)
REMARK    1  A    between atoms: C_1  and  O_2
REMARK    2  A    between atoms: O_2  and  C_3
REMARK    3  A    between atoms: C_6  and  S_7
REMARK    4  A    between atoms: S_7  and  N_10
REMARK    5  A    between atoms: C_14  and  C_16
REMARK    6  A    between atoms: C_20  and  S_21
REMARK    7  A    between atoms: S_21  and  N_24
REMARK                            x       y       z     vdW  Elec       q    Type
REMARK                         _______ _______ _______ _____ _____    ______ ____
ROOT
ATOM      1  N   UNL     1       1.297  14.120  20.036  0.00  0.00    +0.000 NA
ATOM      2  C   UNL     1       1.939  12.804  20.210  0.00  0.00    +0.000 C 
ATOM      3  C   UNL     1       0.971  11.638  19.977  0.00  0.00    +0.000 C 
ATOM      4  N   UNL     1      -0.130  11.846  19.020  0.00  0.00    +0.000 N 
ATOM      5  C   UNL     1      -1.081  10.810  18.989  0.00  0.00    +0.000 C 
ATOM      6  O   UNL     1      -1.037   9.829  19.728  0.00  0.00    +0.000 OA
ATOM      7  C   UNL     1      -0.512  13.233  18.664  0.00  0.00    +0.000 C 
ATOM      8  C   UNL     1       0.642  14.223  18.725  0.00  0.00    +0.000 C 
ENDROOT
BRANCH   5   9
ATOM      9  C   UNL     1      -2.157  10.863  17.973  0.00  0.00    +0.000 A 
ATOM     10  C   UNL     1      -1.910  10.526  16.640  0.00  0.00    +0.000 A 
ATOM     11  C   UNL     1      -2.951  10.596  15.705  0.00  0.00    +0.000 A 
ATOM     12  C   UNL     1      -4.230  11.004  16.100  0.00  0.00    +0.000 A 
ATOM     13  C   UNL     1      -4.450  11.384  17.426  0.00  0.00    +0.000 A 
ATOM     14  C   UNL     1      -3.413  11.328  18.353  0.00  0.00    +0.000 A 
BRANCH  13  15
ATOM     15  S   UNL     1      -6.067  11.833  18.017  0.00  0.00    +0.000 S 
ATOM     16  O   UNL     1      -6.615  12.808  17.099  0.00  0.00    +0.000 OA
ATOM     17  O   UNL     1      -6.766  10.596  18.298  0.00  0.00    +0.000 OA
BRANCH  15  18
ATOM     18  N   UNL     1      -5.757  12.604  19.488  0.00  0.00    +0.000 NA
ATOM     19  C   UNL     1      -6.255  11.990  20.731  0.00  0.00    +0.000 C 
ATOM     20  C   UNL     1      -7.333  12.942  21.207  0.00  0.00    +0.000 C 
ATOM     21  C   UNL     1      -6.830  14.313  20.790  0.00  0.00    +0.000 C 
ATOM     22  C   UNL     1      -5.908  14.075  19.594  0.00  0.00    +0.000 C 
ENDBRANCH  15  18
ENDBRANCH  13  15
ENDBRANCH   5   9
BRANCH   1  23
ATOM     23  S   UNL     1       0.703  14.995  21.347  0.00  0.00    +0.000 S 
ATOM     24  O   UNL     1       0.421  16.328  20.853  0.00  0.00    +0.000 OA
ATOM     25  O   UNL     1       1.604  14.793  22.460  0.00  0.00    +0.000 OA
BRANCH  23  29
ATOM     26  C   UNL     1      -3.340  13.442  22.885  0.00  0.00    +0.000 A 
ATOM     27  C   UNL     1      -2.171  12.729  23.153  0.00  0.00    +0.000 A 
ATOM     28  C   UNL     1      -0.933  13.178  22.673  0.00  0.00    +0.000 A 
ATOM     29  C   UNL     1      -0.871  14.303  21.847  0.00  0.00    +0.000 A 
ATOM     30  C   UNL     1      -2.049  15.002  21.550  0.00  0.00    +0.000 A 
ATOM     31  C   UNL     1      -3.278  14.576  22.073  0.00  0.00    +0.000 A 
BRANCH  26  33
ATOM     32  C   UNL     1      -4.370  12.422  24.761  0.00  0.00    +0.000 C 
ATOM     33  O   UNL     1      -4.488  12.937  23.435  0.00  0.00    +0.000 OA
ENDBRANCH  26  33
ENDBRANCH  23  29
ENDBRANCH   1  23
TORSDOF 6
ENDMDL
MODEL 9
REMARK VINA RESULT:      -7.7      1.542      2.179
REMARK  Name = 
REMARK  7 active torsions:
REMARK  status: ('A' for Active; 'I' for Inactive)
REMARK    1  A    between atoms: C_1  and  O_2
REMARK    2  A    between atoms: O_2  and  C_3
REMARK    3  A    between atoms: C_6  and  S_7
REMARK    4  A    between atoms: S_7  and  N_10
REMARK    5  A    between atoms: C_14  and  C_16
REMARK    6  A    between atoms: C_20  and  S_21
REMARK    7  A    between atoms: S_21  and  N_24
REMARK                            x       y       z     vdW  Elec       q    Type
REMARK                         _______ _______ _______ _____ _____    ______ ____
ROOT
ATOM      1  N   UNL     1       2.152   2.975  18.864  0.00  0.00    +0.000 NA
ATOM      2  C   UNL     1       1.320   3.059  20.078  0.00  0.00    +0.000 C 
ATOM      3  C   UNL     1       1.314   4.463  20.696  0.00  0.00    +0.000 C 
ATOM      4  N   UNL     1       1.479   5.609  19.786  0.00  0.00    +0.000 N 
ATOM      5  C   UNL     1       1.647   6.848  20.431  0.00  0.00    +0.000 C 
ATOM      6  O   UNL     1       1.703   6.972  21.652  0.00  0.00    +0.000 OA
ATOM      7  C   UNL     1       2.055   5.373  18.440  0.00  0.00    +0.000 C 
ATOM      8  C   UNL     1       1.758   3.991  17.878  0.00  0.00    +0.000 C 
ENDROOT
BRANCH   5   9
ATOM      9  C   UNL     1       1.694   8.078  19.607  0.00  0.00    +0.000 A 
ATOM     10  C   UNL     1       2.205   8.058  18.308  0.00  0.00    +0.000 A 
ATOM     11  C   UNL     1       2.241   9.243  17.561  0.00  0.00    +0.000 A 
ATOM     12  C   UNL     1       1.773  10.441  18.113  0.00  0.00    +0.000 A 
ATOM     13  C   UNL     1       1.310  10.455  19.430  0.00  0.00    +0.000 A 
ATOM     14  C   UNL     1       1.286   9.281  20.177  0.00  0.00    +0.000 A 
BRANCH  13  15
ATOM     15  S   UNL     1       0.623  11.921  20.167  0.00  0.00    +0.000 S 
ATOM     16  O   UNL     1       1.526  12.351  21.213  0.00  0.00    +0.000 OA
ATOM     17  O   UNL     1       0.266  12.807  19.078  0.00  0.00    +0.000 OA
BRANCH  15  18
ATOM     18  N   UNL     1      -0.804  11.376  20.888  0.00  0.00    +0.000 NA
ATOM     19  C   UNL     1      -2.075  12.028  20.529  0.00  0.00    +0.000 C 
ATOM     20  C   UNL     1      -2.488  12.758  21.790  0.00  0.00    +0.000 C 
ATOM     21  C   UNL     1      -1.998  11.863  22.915  0.00  0.00    +0.000 C 
ATOM     22  C   UNL     1      -0.825  11.069  22.338  0.00  0.00    +0.000 C 
ENDBRANCH  15  18
ENDBRANCH  13  15
ENDBRANCH   5   9
BRANCH   1  23
ATOM     23  S   UNL     1       3.743   2.423  18.918  0.00  0.00    +0.000 S 
ATOM     24  O   UNL     1       3.813   1.296  18.009  0.00  0.00    +0.000 OA
ATOM     25  O   UNL     1       4.116   2.279  20.307  0.00  0.00    +0.000 OA
BRANCH  23  29
ATOM     26  C   UNL     1       6.256   5.871  17.208  0.00  0.00    +0.000 A 
ATOM     27  C   UNL     1       5.695   4.925  16.351  0.00  0.00    +0.000 A 
ATOM     28  C   UNL     1       4.944   3.855  16.858  0.00  0.00    +0.000 A 
ATOM     29  C   UNL     1       4.821   3.681  18.239  0.00  0.00    +0.000 A 
ATOM     30  C   UNL     1       5.412   4.613  19.103  0.00  0.00    +0.000 A 
ATOM     31  C   UNL     1       6.120   5.709  18.589  0.00  0.00    +0.000 A 
BRANCH  26  33
ATOM     32  C   UNL     1       7.516   7.860  17.485  0.00  0.00    +0.000 C 
ATOM     33  O   UNL     1       6.936   6.896  16.606  0.00  0.00    +0.000 OA
ENDBRANCH  26  33
ENDBRANCH  23  29
ENDBRANCH   1  23
TORSDOF 6
ENDMDL
