MODEL 1
REMARK VINA RESULT:      -9.7      0.000      0.000
REMARK  Name = 
REMARK  5 active torsions:
REMARK  status: ('A' for Active; 'I' for Inactive)
REMARK    1  A    between atoms: C_1  and  C_2
REMARK    2  A    between atoms: C_5  and  C_6
REMARK    3  A    between atoms: C_6  and  C_7
REMARK    4  A    between atoms: C_13  and  C_14
REMARK    5  A    between atoms: C_17  and  C_18
REMARK                            x       y       z     vdW  Elec       q    Type
REMARK                         _______ _______ _______ _____ _____    ______ ____
ROOT
ATOM      1  C   UNL     1       6.206   5.614  16.955  0.00  0.00    +0.000 A 
ATOM      2  C   UNL     1       6.850   4.961  17.943  0.00  0.00    +0.000 A 
ATOM      3  C   UNL     1       7.797   5.687  18.837  0.00  0.00    +0.000 A 
ATOM      4  O   UNL     1       8.342   5.175  19.799  0.00  0.00    +0.000 OA
ATOM      5  N   UNL     1       7.964   7.033  18.503  0.00  0.00    +0.000 N 
ATOM      6  N   UNL     1       8.785   7.887  19.149  0.00  0.00    +0.000 NA
ATOM      7  C   UNL     1       8.563   9.033  18.484  0.00  0.00    +0.000 A 
ATOM      8  N   UNL     1       7.641   8.935  17.457  0.00  0.00    +0.000 NA
ATOM      9  C   UNL     1       7.303   7.674  17.483  0.00  0.00    +0.000 A 
ATOM     10  N   UNL     1       6.440   6.966  16.725  0.00  0.00    +0.000 N 
ATOM     11  H   UNL     1       5.923   7.428  15.984  0.00  0.00    +0.000 HD
ENDROOT
BRANCH   7  12
ATOM     12  C   UNL     1       9.236  10.283  18.801  0.00  0.00    +0.000 A 
ATOM     13  C   UNL     1       9.446  10.663  20.134  0.00  0.00    +0.000 A 
ATOM     14  C   UNL     1      10.109  11.854  20.436  0.00  0.00    +0.000 A 
ATOM     15  C   UNL     1      10.562  12.690  19.408  0.00  0.00    +0.000 A 
ATOM     16  C   UNL     1      11.274  13.973  19.716  0.00  0.00    +0.000 C 
ATOM     17  C   UNL     1      10.339  12.318  18.077  0.00  0.00    +0.000 A 
ATOM     18  C   UNL     1       9.686  11.121  17.775  0.00  0.00    +0.000 A 
ENDBRANCH   7  12
BRANCH   1  19
ATOM     19  C   UNL     1       5.123   4.918  16.148  0.00  0.00    +0.000 C 
BRANCH  19  24
ATOM     20  C   UNL     1       0.660   2.624  19.134  0.00  0.00    +0.000 C 
ATOM     21  C   UNL     1       1.821   3.229  18.403  0.00  0.00    +0.000 A 
ATOM     22  C   UNL     1       2.005   4.614  18.326  0.00  0.00    +0.000 A 
ATOM     23  C   UNL     1       3.082   5.149  17.611  0.00  0.00    +0.000 A 
ATOM     24  C   UNL     1       4.005   4.311  16.966  0.00  0.00    +0.000 A 
ATOM     25  C   UNL     1       3.834   2.924  17.086  0.00  0.00    +0.000 A 
ATOM     26  C   UNL     1       2.744   2.391  17.776  0.00  0.00    +0.000 A 
ENDBRANCH  19  24
ENDBRANCH   1  19
TORSDOF 3
ENDMDL
MODEL 2
REMARK VINA RESULT:      -9.6      0.136      1.369
REMARK  Name = 
REMARK  5 active torsions:
REMARK  status: ('A' for Active; 'I' for Inactive)
REMARK    1  A    between atoms: C_1  and  C_2
REMARK    2  A    between atoms: C_5  and  C_6
REMARK    3  A    between atoms: C_6  and  C_7
REMARK    4  A    between atoms: C_13  and  C_14
REMARK    5  A    between atoms: C_17  and  C_18
REMARK                            x       y       z     vdW  Elec       q    Type
REMARK                         _______ _______ _______ _____ _____    ______ ____
ROOT
ATOM      1  C   UNL     1       6.162   5.644  16.956  0.00  0.00    +0.000 A 
ATOM      2  C   UNL     1       6.809   4.977  17.933  0.00  0.00    +0.000 A 
ATOM      3  C   UNL     1       7.772   5.687  18.823  0.00  0.00    +0.000 A 
ATOM      4  O   UNL     1       8.321   5.163  19.775  0.00  0.00    +0.000 OA
ATOM      5  N   UNL     1       7.949   7.034  18.496  0.00  0.00    +0.000 N 
ATOM      6  N   UNL     1       8.785   7.875  19.141  0.00  0.00    +0.000 NA
ATOM      7  C   UNL     1       8.568   9.028  18.487  0.00  0.00    +0.000 A 
ATOM      8  N   UNL     1       7.635   8.947  17.469  0.00  0.00    +0.000 NA
ATOM      9  C   UNL     1       7.285   7.689  17.489  0.00  0.00    +0.000 A 
ATOM     10  N   UNL     1       6.407   6.996  16.733  0.00  0.00    +0.000 N 
ATOM     11  H   UNL     1       5.887   7.469  16.002  0.00  0.00    +0.000 HD
ENDROOT
BRANCH   7  12
ATOM     12  C   UNL     1       9.256  10.269  18.807  0.00  0.00    +0.000 A 
ATOM     13  C   UNL     1       9.729  11.107  17.787  0.00  0.00    +0.000 A 
ATOM     14  C   UNL     1      10.372  12.307  18.097  0.00  0.00    +0.000 A 
ATOM     15  C   UNL     1      10.563  12.682  19.432  0.00  0.00    +0.000 A 
ATOM     16  C   UNL     1      11.253  13.967  19.781  0.00  0.00    +0.000 C 
ATOM     17  C   UNL     1      10.104  11.838  20.450  0.00  0.00    +0.000 A 
ATOM     18  C   UNL     1       9.450  10.643  20.141  0.00  0.00    +0.000 A 
ENDBRANCH   7  12
BRANCH   1  19
ATOM     19  C   UNL     1       5.064   4.964  16.154  0.00  0.00    +0.000 C 
BRANCH  19  24
ATOM     20  C   UNL     1       0.754   2.852  19.479  0.00  0.00    +0.000 C 
ATOM     21  C   UNL     1       1.841   3.380  18.591  0.00  0.00    +0.000 A 
ATOM     22  C   UNL     1       2.644   2.531  17.822  0.00  0.00    +0.000 A 
ATOM     23  C   UNL     1       3.670   3.052  17.026  0.00  0.00    +0.000 A 
ATOM     24  C   UNL     1       3.908   4.435  16.973  0.00  0.00    +0.000 A 
ATOM     25  C   UNL     1       3.069   5.278  17.715  0.00  0.00    +0.000 A 
ATOM     26  C   UNL     1       2.064   4.756  18.531  0.00  0.00    +0.000 A 
ENDBRANCH  19  24
ENDBRANCH   1  19
TORSDOF 3
ENDMDL
MODEL 3
REMARK VINA RESULT:      -8.6      0.963      1.368
REMARK  Name = 
REMARK  5 active torsions:
REMARK  status: ('A' for Active; 'I' for Inactive)
REMARK    1  A    between atoms: C_1  and  C_2
REMARK    2  A    between atoms: C_5  and  C_6
REMARK    3  A    between atoms: C_6  and  C_7
REMARK    4  A    between atoms: C_13  and  C_14
REMARK    5  A    between atoms: C_17  and  C_18
REMARK                            x       y       z     vdW  Elec       q    Type
REMARK                         _______ _______ _______ _____ _____    ______ ____
ROOT
ATOM      1  C   UNL     1       6.021   5.244  17.178  0.00  0.00    +0.000 A 
ATOM      2  C   UNL     1       6.856   4.715  18.095  0.00  0.00    +0.000 A 
ATOM      3  C   UNL     1       7.847   5.577  18.803  0.00  0.00    +0.000 A 
ATOM      4  O   UNL     1       8.566   5.178  19.700  0.00  0.00    +0.000 OA
ATOM      5  N   UNL     1       7.837   6.907  18.377  0.00  0.00    +0.000 N 
ATOM      6  N   UNL     1       8.657   7.869  18.851  0.00  0.00    +0.000 NA
ATOM      7  C   UNL     1       8.237   8.946  18.166  0.00  0.00    +0.000 A 
ATOM      8  N   UNL     1       7.193   8.702  17.291  0.00  0.00    +0.000 NA
ATOM      9  C   UNL     1       6.983   7.421  17.432  0.00  0.00    +0.000 A 
ATOM     10  N   UNL     1       6.092   6.593  16.846  0.00  0.00    +0.000 N 
ATOM     11  H   UNL     1       5.435   6.960  16.165  0.00  0.00    +0.000 HD
ENDROOT
BRANCH   7  12
ATOM     12  C   UNL     1       8.826  10.267  18.315  0.00  0.00    +0.000 A 
ATOM     13  C   UNL     1       8.351  11.350  17.563  0.00  0.00    +0.000 A 
ATOM     14  C   UNL     1       8.906  12.622  17.723  0.00  0.00    +0.000 A 
ATOM     15  C   UNL     1       9.954  12.827  18.629  0.00  0.00    +0.000 A 
ATOM     16  C   UNL     1      10.561  14.186  18.810  0.00  0.00    +0.000 C 
ATOM     17  C   UNL     1      10.438  11.741  19.369  0.00  0.00    +0.000 A 
ATOM     18  C   UNL     1       9.875  10.472  19.218  0.00  0.00    +0.000 A 
ENDBRANCH   7  12
BRANCH   1  19
ATOM     19  C   UNL     1       4.907   4.406  16.576  0.00  0.00    +0.000 C 
BRANCH  19  24
ATOM     20  C   UNL     1       0.652   3.161  20.376  0.00  0.00    +0.000 C 
ATOM     21  C   UNL     1       1.758   3.441  19.404  0.00  0.00    +0.000 A 
ATOM     22  C   UNL     1       3.104   3.382  19.780  0.00  0.00    +0.000 A 
ATOM     23  C   UNL     1       4.114   3.679  18.856  0.00  0.00    +0.000 A 
ATOM     24  C   UNL     1       3.799   4.029  17.534  0.00  0.00    +0.000 A 
ATOM     25  C   UNL     1       2.448   4.043  17.158  0.00  0.00    +0.000 A 
ATOM     26  C   UNL     1       1.440   3.774  18.087  0.00  0.00    +0.000 A 
ENDBRANCH  19  24
ENDBRANCH   1  19
TORSDOF 3
ENDMDL
MODEL 4
REMARK VINA RESULT:      -8.4      6.558      8.999
REMARK  Name = 
REMARK  5 active torsions:
REMARK  status: ('A' for Active; 'I' for Inactive)
REMARK    1  A    between atoms: C_1  and  C_2
REMARK    2  A    between atoms: C_5  and  C_6
REMARK    3  A    between atoms: C_6  and  C_7
REMARK    4  A    between atoms: C_13  and  C_14
REMARK    5  A    between atoms: C_17  and  C_18
REMARK                            x       y       z     vdW  Elec       q    Type
REMARK                         _______ _______ _______ _____ _____    ______ ____
ROOT
ATOM      1  C   UNL     1      -0.135  10.870  19.312  0.00  0.00    +0.000 A 
ATOM      2  C   UNL     1      -0.023  10.289  20.523  0.00  0.00    +0.000 A 
ATOM      3  C   UNL     1       0.863   9.105  20.715  0.00  0.00    +0.000 A 
ATOM      4  O   UNL     1       1.074   8.590  21.799  0.00  0.00    +0.000 OA
ATOM      5  N   UNL     1       1.477   8.667  19.539  0.00  0.00    +0.000 N 
ATOM      6  N   UNL     1       2.302   7.603  19.455  0.00  0.00    +0.000 NA
ATOM      7  C   UNL     1       2.643   7.625  18.156  0.00  0.00    +0.000 A 
ATOM      8  N   UNL     1       2.074   8.653  17.427  0.00  0.00    +0.000 NA
ATOM      9  C   UNL     1       1.339   9.271  18.313  0.00  0.00    +0.000 A 
ATOM     10  N   UNL     1       0.541  10.354  18.210  0.00  0.00    +0.000 N 
ATOM     11  H   UNL     1       0.448  10.829  17.318  0.00  0.00    +0.000 HD
ENDROOT
BRANCH   7  12
ATOM     12  C   UNL     1       3.534   6.648  17.548  0.00  0.00    +0.000 A 
ATOM     13  C   UNL     1       3.291   5.275  17.691  0.00  0.00    +0.000 A 
ATOM     14  C   UNL     1       4.136   4.340  17.090  0.00  0.00    +0.000 A 
ATOM     15  C   UNL     1       5.245   4.764  16.347  0.00  0.00    +0.000 A 
ATOM     16  C   UNL     1       6.162   3.772  15.698  0.00  0.00    +0.000 C 
ATOM     17  C   UNL     1       5.494   6.135  16.217  0.00  0.00    +0.000 A 
ATOM     18  C   UNL     1       4.643   7.071  16.808  0.00  0.00    +0.000 A 
ENDBRANCH   7  12
BRANCH   1  19
ATOM     19  C   UNL     1      -0.906  12.169  19.147  0.00  0.00    +0.000 C 
BRANCH  19  24
ATOM     20  C   UNL     1      -6.617  11.765  18.000  0.00  0.00    +0.000 C 
ATOM     21  C   UNL     1      -5.156  11.841  18.326  0.00  0.00    +0.000 A 
ATOM     22  C   UNL     1      -4.697  12.349  19.546  0.00  0.00    +0.000 A 
ATOM     23  C   UNL     1      -3.325  12.436  19.809  0.00  0.00    +0.000 A 
ATOM     24  C   UNL     1      -2.382  12.005  18.862  0.00  0.00    +0.000 A 
ATOM     25  C   UNL     1      -2.856  11.458  17.661  0.00  0.00    +0.000 A 
ATOM     26  C   UNL     1      -4.224  11.398  17.387  0.00  0.00    +0.000 A 
ENDBRANCH  19  24
ENDBRANCH   1  19
TORSDOF 3
ENDMDL
MODEL 5
REMARK VINA RESULT:      -8.3      6.347      8.069
REMARK  Name = 
REMARK  5 active torsions:
REMARK  status: ('A' for Active; 'I' for Inactive)
REMARK    1  A    between atoms: C_1  and  C_2
REMARK    2  A    between atoms: C_5  and  C_6
REMARK    3  A    between atoms: C_6  and  C_7
REMARK    4  A    between atoms: C_13  and  C_14
REMARK    5  A    between atoms: C_17  and  C_18
REMARK                            x       y       z     vdW  Elec       q    Type
REMARK                         _______ _______ _______ _____ _____    ______ ____
ROOT
ATOM      1  C   UNL     1       2.569   6.549  19.569  0.00  0.00    +0.000 A 
ATOM      2  C   UNL     1       2.552   7.241  18.413  0.00  0.00    +0.000 A 
ATOM      3  C   UNL     1       1.965   8.612  18.360  0.00  0.00    +0.000 A 
ATOM      4  O   UNL     1       1.998   9.320  17.370  0.00  0.00    +0.000 OA
ATOM      5  N   UNL     1       1.418   9.034  19.574  0.00  0.00    +0.000 N 
ATOM      6  N   UNL     1       0.812  10.224  19.769  0.00  0.00    +0.000 NA
ATOM      7  C   UNL     1       0.503  10.162  21.075  0.00  0.00    +0.000 A 
ATOM      8  N   UNL     1       0.891   8.992  21.704  0.00  0.00    +0.000 NA
ATOM      9  C   UNL     1       1.439   8.305  20.738  0.00  0.00    +0.000 A 
ATOM     10  N   UNL     1       2.006   7.081  20.726  0.00  0.00    +0.000 N 
ATOM     11  H   UNL     1       2.055   6.539  21.582  0.00  0.00    +0.000 HD
ENDROOT
BRANCH   7  12
ATOM     12  C   UNL     1      -0.191  11.227  21.783  0.00  0.00    +0.000 A 
ATOM     13  C   UNL     1       0.083  12.571  21.495  0.00  0.00    +0.000 A 
ATOM     14  C   UNL     1      -0.598  13.591  22.162  0.00  0.00    +0.000 A 
ATOM     15  C   UNL     1      -1.554  13.282  23.137  0.00  0.00    +0.000 A 
ATOM     16  C   UNL     1      -2.292  14.367  23.864  0.00  0.00    +0.000 C 
ATOM     17  C   UNL     1      -1.816  11.939  23.435  0.00  0.00    +0.000 A 
ATOM     18  C   UNL     1      -1.144  10.919  22.759  0.00  0.00    +0.000 A 
ENDBRANCH   7  12
BRANCH   1  19
ATOM     19  C   UNL     1       3.307   5.224  19.665  0.00  0.00    +0.000 C 
BRANCH  19  24
ATOM     20  C   UNL     1       7.012   4.371  15.233  0.00  0.00    +0.000 C 
ATOM     21  C   UNL     1       6.058   4.549  16.376  0.00  0.00    +0.000 A 
ATOM     22  C   UNL     1       4.742   4.079  16.319  0.00  0.00    +0.000 A 
ATOM     23  C   UNL     1       3.866   4.287  17.391  0.00  0.00    +0.000 A 
ATOM     24  C   UNL     1       4.292   4.959  18.548  0.00  0.00    +0.000 A 
ATOM     25  C   UNL     1       5.626   5.386  18.610  0.00  0.00    +0.000 A 
ATOM     26  C   UNL     1       6.491   5.204  17.530  0.00  0.00    +0.000 A 
ENDBRANCH  19  24
ENDBRANCH   1  19
TORSDOF 3
ENDMDL
MODEL 6
REMARK VINA RESULT:      -8.3      6.538      9.034
REMARK  Name = 
REMARK  5 active torsions:
REMARK  status: ('A' for Active; 'I' for Inactive)
REMARK    1  A    between atoms: C_1  and  C_2
REMARK    2  A    between atoms: C_5  and  C_6
REMARK    3  A    between atoms: C_6  and  C_7
REMARK    4  A    between atoms: C_13  and  C_14
REMARK    5  A    between atoms: C_17  and  C_18
REMARK                            x       y       z     vdW  Elec       q    Type
REMARK                         _______ _______ _______ _____ _____    ______ ____
ROOT
ATOM      1  C   UNL     1      -0.148  10.905  19.303  0.00  0.00    +0.000 A 
ATOM      2  C   UNL     1      -0.056  10.306  20.507  0.00  0.00    +0.000 A 
ATOM      3  C   UNL     1       0.819   9.113  20.693  0.00  0.00    +0.000 A 
ATOM      4  O   UNL     1       1.012   8.581  21.772  0.00  0.00    +0.000 OA
ATOM      5  N   UNL     1       1.446   8.689  19.519  0.00  0.00    +0.000 N 
ATOM      6  N   UNL     1       2.266   7.620  19.431  0.00  0.00    +0.000 NA
ATOM      7  C   UNL     1       2.626   7.659  18.137  0.00  0.00    +0.000 A 
ATOM      8  N   UNL     1       2.073   8.702  17.416  0.00  0.00    +0.000 NA
ATOM      9  C   UNL     1       1.329   9.311  18.300  0.00  0.00    +0.000 A 
ATOM     10  N   UNL     1       0.540  10.401  18.203  0.00  0.00    +0.000 N 
ATOM     11  H   UNL     1       0.462  10.890  17.317  0.00  0.00    +0.000 HD
ENDROOT
BRANCH   7  12
ATOM     12  C   UNL     1       3.518   6.685  17.527  0.00  0.00    +0.000 A 
ATOM     13  C   UNL     1       4.615   7.104  16.762  0.00  0.00    +0.000 A 
ATOM     14  C   UNL     1       5.481   6.168  16.194  0.00  0.00    +0.000 A 
ATOM     15  C   UNL     1       5.255   4.797  16.371  0.00  0.00    +0.000 A 
ATOM     16  C   UNL     1       6.175   3.779  15.765  0.00  0.00    +0.000 C 
ATOM     17  C   UNL     1       4.150   4.379  17.122  0.00  0.00    +0.000 A 
ATOM     18  C   UNL     1       3.291   5.316  17.701  0.00  0.00    +0.000 A 
ENDBRANCH   7  12
BRANCH   1  19
ATOM     19  C   UNL     1      -0.908  12.211  19.147  0.00  0.00    +0.000 C 
BRANCH  19  24
ATOM     20  C   UNL     1      -6.600  11.408  18.124  0.00  0.00    +0.000 C 
ATOM     21  C   UNL     1      -5.137  11.640  18.354  0.00  0.00    +0.000 A 
ATOM     22  C   UNL     1      -4.173  11.272  17.409  0.00  0.00    +0.000 A 
ATOM     23  C   UNL     1      -2.812  11.476  17.666  0.00  0.00    +0.000 A 
ATOM     24  C   UNL     1      -2.387  12.062  18.869  0.00  0.00    +0.000 A 
ATOM     25  C   UNL     1      -3.365  12.465  19.789  0.00  0.00    +0.000 A 
ATOM     26  C   UNL     1      -4.721  12.237  19.545  0.00  0.00    +0.000 A 
ENDBRANCH  19  24
ENDBRANCH   1  19
TORSDOF 3
ENDMDL
MODEL 7
REMARK VINA RESULT:      -8.3      6.114      8.279
REMARK  Name = 
REMARK  5 active torsions:
REMARK  status: ('A' for Active; 'I' for Inactive)
REMARK    1  A    between atoms: C_1  and  C_2
REMARK    2  A    between atoms: C_5  and  C_6
REMARK    3  A    between atoms: C_6  and  C_7
REMARK    4  A    between atoms: C_13  and  C_14
REMARK    5  A    between atoms: C_17  and  C_18
REMARK                            x       y       z     vdW  Elec       q    Type
REMARK                         _______ _______ _______ _____ _____    ______ ____
ROOT
ATOM      1  C   UNL     1       2.934   6.628  19.328  0.00  0.00    +0.000 A 
ATOM      2  C   UNL     1       2.902   7.359  18.195  0.00  0.00    +0.000 A 
ATOM      3  C   UNL     1       2.120   8.627  18.134  0.00  0.00    +0.000 A 
ATOM      4  O   UNL     1       2.122   9.374  17.172  0.00  0.00    +0.000 OA
ATOM      5  N   UNL     1       1.422   8.912  19.310  0.00  0.00    +0.000 N 
ATOM      6  N   UNL     1       0.629   9.989  19.489  0.00  0.00    +0.000 NA
ATOM      7  C   UNL     1       0.232   9.826  20.762  0.00  0.00    +0.000 A 
ATOM      8  N   UNL     1       0.743   8.702  21.387  0.00  0.00    +0.000 NA
ATOM      9  C   UNL     1       1.463   8.146  20.450  0.00  0.00    +0.000 A 
ATOM     10  N   UNL     1       2.209   7.021  20.449  0.00  0.00    +0.000 N 
ATOM     11  H   UNL     1       2.273   6.457  21.290  0.00  0.00    +0.000 HD
ENDROOT
BRANCH   7  12
ATOM     12  C   UNL     1      -0.668  10.745  21.442  0.00  0.00    +0.000 A 
ATOM     13  C   UNL     1      -0.929  10.607  22.811  0.00  0.00    +0.000 A 
ATOM     14  C   UNL     1      -1.778  11.502  23.465  0.00  0.00    +0.000 A 
ATOM     15  C   UNL     1      -2.390  12.543  22.755  0.00  0.00    +0.000 A 
ATOM     16  C   UNL     1      -3.306  13.511  23.442  0.00  0.00    +0.000 C 
ATOM     17  C   UNL     1      -2.140  12.671  21.383  0.00  0.00    +0.000 A 
ATOM     18  C   UNL     1      -1.282  11.783  20.732  0.00  0.00    +0.000 A 
ENDBRANCH   7  12
BRANCH   1  19
ATOM     19  C   UNL     1       3.856   5.426  19.445  0.00  0.00    +0.000 C 
BRANCH  19  24
ATOM     20  C   UNL     1       7.100   4.585  14.663  0.00  0.00    +0.000 C 
ATOM     21  C   UNL     1       6.269   4.760  15.899  0.00  0.00    +0.000 A 
ATOM     22  C   UNL     1       5.017   4.152  16.040  0.00  0.00    +0.000 A 
ATOM     23  C   UNL     1       4.253   4.359  17.195  0.00  0.00    +0.000 A 
ATOM     24  C   UNL     1       4.729   5.169  18.237  0.00  0.00    +0.000 A 
ATOM     25  C   UNL     1       6.004   5.737  18.103  0.00  0.00    +0.000 A 
ATOM     26  C   UNL     1       6.755   5.553  16.939  0.00  0.00    +0.000 A 
ENDBRANCH  19  24
ENDBRANCH   1  19
TORSDOF 3
ENDMDL
MODEL 8
REMARK VINA RESULT:      -8.3      6.545      9.028
REMARK  Name = 
REMARK  5 active torsions:
REMARK  status: ('A' for Active; 'I' for Inactive)
REMARK    1  A    between atoms: C_1  and  C_2
REMARK    2  A    between atoms: C_5  and  C_6
REMARK    3  A    between atoms: C_6  and  C_7
REMARK    4  A    between atoms: C_13  and  C_14
REMARK    5  A    between atoms: C_17  and  C_18
REMARK                            x       y       z     vdW  Elec       q    Type
REMARK                         _______ _______ _______ _____ _____    ______ ____
ROOT
ATOM      1  C   UNL     1       0.140  10.937  19.410  0.00  0.00    +0.000 A 
ATOM      2  C   UNL     1       0.152  10.258  20.574  0.00  0.00    +0.000 A 
ATOM      3  C   UNL     1       0.941   9.000  20.709  0.00  0.00    +0.000 A 
ATOM      4  O   UNL     1       1.062   8.389  21.755  0.00  0.00    +0.000 OA
ATOM      5  N   UNL     1       1.580   8.610  19.529  0.00  0.00    +0.000 N 
ATOM      6  N   UNL     1       2.332   7.497  19.396  0.00  0.00    +0.000 NA
ATOM      7  C   UNL     1       2.737   7.594  18.119  0.00  0.00    +0.000 A 
ATOM      8  N   UNL     1       2.278   8.715  17.451  0.00  0.00    +0.000 NA
ATOM      9  C   UNL     1       1.545   9.315  18.351  0.00  0.00    +0.000 A 
ATOM     10  N   UNL     1       0.832  10.459  18.300  0.00  0.00    +0.000 N 
ATOM     11  H   UNL     1       0.816  11.007  17.447  0.00  0.00    +0.000 HD
ENDROOT
BRANCH   7  12
ATOM     12  C   UNL     1       3.585   6.604  17.474  0.00  0.00    +0.000 A 
ATOM     13  C   UNL     1       3.374   5.235  17.688  0.00  0.00    +0.000 A 
ATOM     14  C   UNL     1       4.177   4.286  17.052  0.00  0.00    +0.000 A 
ATOM     15  C   UNL     1       5.213   4.693  16.201  0.00  0.00    +0.000 A 
ATOM     16  C   UNL     1       6.085   3.686  15.513  0.00  0.00    +0.000 C 
ATOM     17  C   UNL     1       5.433   6.061  16.000  0.00  0.00    +0.000 A 
ATOM     18  C   UNL     1       4.622   7.009  16.627  0.00  0.00    +0.000 A 
ENDBRANCH   7  12
BRANCH   1  19
ATOM     19  C   UNL     1      -0.528  12.298  19.316  0.00  0.00    +0.000 C 
BRANCH  19  24
ATOM     20  C   UNL     1      -6.356  11.955  19.183  0.00  0.00    +0.000 C 
ATOM     21  C   UNL     1      -4.861  12.066  19.182  0.00  0.00    +0.000 A 
ATOM     22  C   UNL     1      -4.080  11.527  18.154  0.00  0.00    +0.000 A 
ATOM     23  C   UNL     1      -2.684  11.621  18.197  0.00  0.00    +0.000 A 
ATOM     24  C   UNL     1      -2.040  12.267  19.264  0.00  0.00    +0.000 A 
ATOM     25  C   UNL     1      -2.835  12.841  20.266  0.00  0.00    +0.000 A 
ATOM     26  C   UNL     1      -4.226  12.722  20.237  0.00  0.00    +0.000 A 
ENDBRANCH  19  24
ENDBRANCH   1  19
TORSDOF 3
ENDMDL
MODEL 9
REMARK VINA RESULT:      -8.2      2.143      3.691
REMARK  Name = 
REMARK  5 active torsions:
REMARK  status: ('A' for Active; 'I' for Inactive)
REMARK    1  A    between atoms: C_1  and  C_2
REMARK    2  A    between atoms: C_5  and  C_6
REMARK    3  A    between atoms: C_6  and  C_7
REMARK    4  A    between atoms: C_13  and  C_14
REMARK    5  A    between atoms: C_17  and  C_18
REMARK                            x       y       z     vdW  Elec       q    Type
REMARK                         _______ _______ _______ _____ _____    ______ ____
ROOT
ATOM      1  C   UNL     1       6.232   5.857  16.723  0.00  0.00    +0.000 A 
ATOM      2  C   UNL     1       6.806   5.147  17.715  0.00  0.00    +0.000 A 
ATOM      3  C   UNL     1       7.729   5.807  18.682  0.00  0.00    +0.000 A 
ATOM      4  O   UNL     1       8.209   5.242  19.648  0.00  0.00    +0.000 OA
ATOM      5  N   UNL     1       7.953   7.159  18.409  0.00  0.00    +0.000 N 
ATOM      6  N   UNL     1       8.767   7.961  19.128  0.00  0.00    +0.000 NA
ATOM      7  C   UNL     1       8.613   9.138  18.498  0.00  0.00    +0.000 A 
ATOM      8  N   UNL     1       7.741   9.109  17.425  0.00  0.00    +0.000 NA
ATOM      9  C   UNL     1       7.364   7.859  17.385  0.00  0.00    +0.000 A 
ATOM     10  N   UNL     1       6.519   7.209  16.558  0.00  0.00    +0.000 N 
ATOM     11  H   UNL     1       6.053   7.715  15.812  0.00  0.00    +0.000 HD
ENDROOT
BRANCH   7  12
ATOM     12  C   UNL     1       9.307  10.353  18.897  0.00  0.00    +0.000 A 
ATOM     13  C   UNL     1       9.821  11.230  17.932  0.00  0.00    +0.000 A 
ATOM     14  C   UNL     1      10.469  12.406  18.317  0.00  0.00    +0.000 A 
ATOM     15  C   UNL     1      10.624  12.715  19.674  0.00  0.00    +0.000 A 
ATOM     16  C   UNL     1      11.320  13.972  20.103  0.00  0.00    +0.000 C 
ATOM     17  C   UNL     1      10.124  11.831  20.637  0.00  0.00    +0.000 A 
ATOM     18  C   UNL     1       9.465  10.662  20.252  0.00  0.00    +0.000 A 
ENDBRANCH   7  12
BRANCH   1  19
ATOM     19  C   UNL     1       5.170   5.227  15.838  0.00  0.00    +0.000 C 
BRANCH  19  24
ATOM     20  C   UNL     1       7.271   2.778  10.971  0.00  0.00    +0.000 C 
ATOM     21  C   UNL     1       6.737   3.444  12.203  0.00  0.00    +0.000 A 
ATOM     22  C   UNL     1       7.523   4.302  12.980  0.00  0.00    +0.000 A 
ATOM     23  C   UNL     1       7.005   4.886  14.141  0.00  0.00    +0.000 A 
ATOM     24  C   UNL     1       5.684   4.633  14.545  0.00  0.00    +0.000 A 
ATOM     25  C   UNL     1       4.892   3.807  13.735  0.00  0.00    +0.000 A 
ATOM     26  C   UNL     1       5.418   3.202  12.592  0.00  0.00    +0.000 A 
ENDBRANCH  19  24
ENDBRANCH   1  19
TORSDOF 3
ENDMDL
