MODEL 1
REMARK VINA RESULT:      -7.0      0.000      0.000
REMARK  Name = 
REMARK  5 active torsions:
REMARK  status: ('A' for Active; 'I' for Inactive)
REMARK    1  A    between atoms: C_1  and  N_2
REMARK    2  A    between atoms: N_2  and  C_3
REMARK    3  A    between atoms: C_4  and  S_5
REMARK    4  A    between atoms: S_5  and  C_6
REMARK    5  A    between atoms: C_14  and  C_15
REMARK                            x       y       z     vdW  Elec       q    Type
REMARK                         _______ _______ _______ _____ _____    ______ ____
ROOT
ATOM      1  C   UNL     1       4.042   3.412  19.243  0.00  0.00    +0.000 C 
ATOM      2  C   UNL     1       3.255   4.452  19.567  0.00  0.00    +0.000 C 
ATOM      3  C   UNL     1       3.040   5.519  18.541  0.00  0.00    +0.000 C 
ATOM      4  O   UNL     1       2.284   6.463  18.686  0.00  0.00    +0.000 OA
ATOM      5  C   UNL     1       3.926   5.441  17.360  0.00  0.00    +0.000 A 
ATOM      6  C   UNL     1       4.471   6.538  16.734  0.00  0.00    +0.000 A 
ATOM      7  C   UNL     1       5.478   6.318  15.783  0.00  0.00    +0.000 A 
ATOM      8  C   UNL     1       5.858   5.012  15.471  0.00  0.00    +0.000 A 
ATOM      9  C   UNL     1       7.075   4.715  14.656  0.00  0.00    +0.000 C 
ATOM     10  N   UNL     1       5.267   3.930  16.025  0.00  0.00    +0.000 NA
ATOM     11  C   UNL     1       4.329   4.189  16.949  0.00  0.00    +0.000 A 
ATOM     12  C   UNL     1       3.914   3.068  17.791  0.00  0.00    +0.000 C 
ATOM     13  O   UNL     1       3.490   2.008  17.376  0.00  0.00    +0.000 OA
ENDROOT
BRANCH   2  14
ATOM     14  S   UNL     1       2.111   4.280  20.848  0.00  0.00    +0.000 S 
ATOM     15  C   UNL     1       0.817   3.384  19.999  0.00  0.00    +0.000 C 
ATOM     16  O   UNL     1       2.615   3.386  21.882  0.00  0.00    +0.000 OA
ATOM     17  O   UNL     1       1.582   5.569  21.235  0.00  0.00    +0.000 OA
ENDBRANCH   2  14
BRANCH   1  19
ATOM     18  C   UNL     1       4.786   1.295  20.362  0.00  0.00    +0.000 C 
ATOM     19  N   UNL     1       4.956   2.701  20.005  0.00  0.00    +0.000 N 
ATOM     20  H   UNL     1       5.929   2.950  19.814  0.00  0.00    +0.000 HD
ENDBRANCH   1  19
TORSDOF 2
ENDMDL
MODEL 2
REMARK VINA RESULT:      -6.4      2.884      5.431
REMARK  Name = 
REMARK  5 active torsions:
REMARK  status: ('A' for Active; 'I' for Inactive)
REMARK    1  A    between atoms: C_1  and  N_2
REMARK    2  A    between atoms: N_2  and  C_3
REMARK    3  A    between atoms: C_4  and  S_5
REMARK    4  A    between atoms: S_5  and  C_6
REMARK    5  A    between atoms: C_14  and  C_15
REMARK                            x       y       z     vdW  Elec       q    Type
REMARK                         _______ _______ _______ _____ _____    ______ ____
ROOT
ATOM      1  C   UNL     1       5.515   4.802  18.442  0.00  0.00    +0.000 C 
ATOM      2  C   UNL     1       5.283   4.459  17.164  0.00  0.00    +0.000 C 
ATOM      3  C   UNL     1       3.939   3.901  16.818  0.00  0.00    +0.000 C 
ATOM      4  O   UNL     1       3.582   3.634  15.685  0.00  0.00    +0.000 OA
ATOM      5  C   UNL     1       3.088   3.550  17.976  0.00  0.00    +0.000 A 
ATOM      6  C   UNL     1       2.274   2.442  18.023  0.00  0.00    +0.000 A 
ATOM      7  C   UNL     1       1.710   2.096  19.259  0.00  0.00    +0.000 A 
ATOM      8  C   UNL     1       1.949   2.899  20.376  0.00  0.00    +0.000 A 
ATOM      9  C   UNL     1       1.583   2.462  21.757  0.00  0.00    +0.000 C 
ATOM     10  N   UNL     1       2.682   4.032  20.314  0.00  0.00    +0.000 NA
ATOM     11  C   UNL     1       3.225   4.309  19.118  0.00  0.00    +0.000 A 
ATOM     12  C   UNL     1       4.275   5.326  19.096  0.00  0.00    +0.000 C 
ATOM     13  O   UNL     1       4.153   6.458  19.521  0.00  0.00    +0.000 OA
ENDROOT
BRANCH   2  14
ATOM     14  S   UNL     1       6.249   5.151  15.913  0.00  0.00    +0.000 S 
ATOM     15  C   UNL     1       6.267   3.801  14.742  0.00  0.00    +0.000 C 
ATOM     16  O   UNL     1       5.548   6.249  15.259  0.00  0.00    +0.000 OA
ATOM     17  O   UNL     1       7.604   5.364  16.373  0.00  0.00    +0.000 OA
ENDBRANCH   2  14
BRANCH   1  19
ATOM     18  C   UNL     1       7.554   5.795  19.514  0.00  0.00    +0.000 C 
ATOM     19  N   UNL     1       6.660   4.679  19.216  0.00  0.00    +0.000 N 
ATOM     20  H   UNL     1       6.557   4.029  19.998  0.00  0.00    +0.000 HD
ENDBRANCH   1  19
TORSDOF 2
ENDMDL
MODEL 3
REMARK VINA RESULT:      -6.4      2.774      5.436
REMARK  Name = 
REMARK  5 active torsions:
REMARK  status: ('A' for Active; 'I' for Inactive)
REMARK    1  A    between atoms: C_1  and  N_2
REMARK    2  A    between atoms: N_2  and  C_3
REMARK    3  A    between atoms: C_4  and  S_5
REMARK    4  A    between atoms: S_5  and  C_6
REMARK    5  A    between atoms: C_14  and  C_15
REMARK                            x       y       z     vdW  Elec       q    Type
REMARK                         _______ _______ _______ _____ _____    ______ ____
ROOT
ATOM      1  C   UNL     1       5.425   4.693  18.461  0.00  0.00    +0.000 C 
ATOM      2  C   UNL     1       5.217   4.248  17.211  0.00  0.00    +0.000 C 
ATOM      3  C   UNL     1       3.879   3.665  16.885  0.00  0.00    +0.000 C 
ATOM      4  O   UNL     1       3.544   3.308  15.769  0.00  0.00    +0.000 OA
ATOM      5  C   UNL     1       3.006   3.408  18.050  0.00  0.00    +0.000 A 
ATOM      6  C   UNL     1       2.188   2.309  18.170  0.00  0.00    +0.000 A 
ATOM      7  C   UNL     1       1.600   2.063  19.419  0.00  0.00    +0.000 A 
ATOM      8  C   UNL     1       1.819   2.953  20.472  0.00  0.00    +0.000 A 
ATOM      9  C   UNL     1       1.425   2.629  21.876  0.00  0.00    +0.000 C 
ATOM     10  N   UNL     1       2.555   4.077  20.333  0.00  0.00    +0.000 NA
ATOM     11  C   UNL     1       3.121   4.257  19.130  0.00  0.00    +0.000 A 
ATOM     12  C   UNL     1       4.174   5.269  19.046  0.00  0.00    +0.000 C 
ATOM     13  O   UNL     1       4.046   6.431  19.377  0.00  0.00    +0.000 OA
ENDROOT
BRANCH   2  14
ATOM     14  S   UNL     1       6.209   4.838  15.927  0.00  0.00    +0.000 S 
ATOM     15  C   UNL     1       5.338   6.345  15.520  0.00  0.00    +0.000 C 
ATOM     16  O   UNL     1       7.518   5.243  16.421  0.00  0.00    +0.000 OA
ATOM     17  O   UNL     1       6.137   3.957  14.782  0.00  0.00    +0.000 OA
ENDBRANCH   2  14
BRANCH   1  19
ATOM     18  C   UNL     1       7.413   5.782  19.535  0.00  0.00    +0.000 C 
ATOM     19  N   UNL     1       6.554   4.632  19.264  0.00  0.00    +0.000 N 
ATOM     20  H   UNL     1       6.450   4.013  20.071  0.00  0.00    +0.000 HD
ENDBRANCH   1  19
TORSDOF 2
ENDMDL
MODEL 4
REMARK VINA RESULT:      -6.3      3.157      5.166
REMARK  Name = 
REMARK  5 active torsions:
REMARK  status: ('A' for Active; 'I' for Inactive)
REMARK    1  A    between atoms: C_1  and  N_2
REMARK    2  A    between atoms: N_2  and  C_3
REMARK    3  A    between atoms: C_4  and  S_5
REMARK    4  A    between atoms: S_5  and  C_6
REMARK    5  A    between atoms: C_14  and  C_15
REMARK                            x       y       z     vdW  Elec       q    Type
REMARK                         _______ _______ _______ _____ _____    ______ ____
ROOT
ATOM      1  C   UNL     1       4.889   4.146  17.338  0.00  0.00    +0.000 C 
ATOM      2  C   UNL     1       5.206   4.965  16.322  0.00  0.00    +0.000 C 
ATOM      3  C   UNL     1       4.900   6.421  16.469  0.00  0.00    +0.000 C 
ATOM      4  O   UNL     1       5.216   7.271  15.655  0.00  0.00    +0.000 OA
ATOM      5  C   UNL     1       4.045   6.770  17.624  0.00  0.00    +0.000 A 
ATOM      6  C   UNL     1       3.062   7.731  17.590  0.00  0.00    +0.000 A 
ATOM      7  C   UNL     1       2.170   7.794  18.670  0.00  0.00    +0.000 A 
ATOM      8  C   UNL     1       2.332   6.926  19.751  0.00  0.00    +0.000 A 
ATOM      9  C   UNL     1       1.289   6.777  20.810  0.00  0.00    +0.000 C 
ATOM     10  N   UNL     1       3.346   6.036  19.823  0.00  0.00    +0.000 NA
ATOM     11  C   UNL     1       4.158   5.991  18.756  0.00  0.00    +0.000 A 
ATOM     12  C   UNL     1       5.048   4.835  18.658  0.00  0.00    +0.000 C 
ATOM     13  O   UNL     1       5.837   4.492  19.516  0.00  0.00    +0.000 OA
ENDROOT
BRANCH   2  14
ATOM     14  S   UNL     1       6.404   4.473  15.181  0.00  0.00    +0.000 S 
ATOM     15  C   UNL     1       5.389   4.262  13.725  0.00  0.00    +0.000 C 
ATOM     16  O   UNL     1       7.322   5.564  14.884  0.00  0.00    +0.000 OA
ATOM     17  O   UNL     1       6.948   3.181  15.538  0.00  0.00    +0.000 OA
ENDBRANCH   2  14
BRANCH   1  19
ATOM     18  C   UNL     1       3.073   2.491  17.842  0.00  0.00    +0.000 C 
ATOM     19  N   UNL     1       4.394   2.851  17.333  0.00  0.00    +0.000 N 
ATOM     20  H   UNL     1       4.664   2.313  16.506  0.00  0.00    +0.000 HD
ENDBRANCH   1  19
TORSDOF 2
ENDMDL
MODEL 5
REMARK VINA RESULT:      -6.3      3.171      5.067
REMARK  Name = 
REMARK  5 active torsions:
REMARK  status: ('A' for Active; 'I' for Inactive)
REMARK    1  A    between atoms: C_1  and  N_2
REMARK    2  A    between atoms: N_2  and  C_3
REMARK    3  A    between atoms: C_4  and  S_5
REMARK    4  A    between atoms: S_5  and  C_6
REMARK    5  A    between atoms: C_14  and  C_15
REMARK                            x       y       z     vdW  Elec       q    Type
REMARK                         _______ _______ _______ _____ _____    ______ ____
ROOT
ATOM      1  C   UNL     1       2.214   4.914  18.837  0.00  0.00    +0.000 C 
ATOM      2  C   UNL     1       3.139   5.152  17.893  0.00  0.00    +0.000 C 
ATOM      3  C   UNL     1       3.592   6.563  17.690  0.00  0.00    +0.000 C 
ATOM      4  O   UNL     1       4.484   6.890  16.927  0.00  0.00    +0.000 OA
ATOM      5  C   UNL     1       2.783   7.587  18.384  0.00  0.00    +0.000 A 
ATOM      6  C   UNL     1       2.469   8.813  17.845  0.00  0.00    +0.000 A 
ATOM      7  C   UNL     1       1.502   9.589  18.500  0.00  0.00    +0.000 A 
ATOM      8  C   UNL     1       0.932   9.123  19.686  0.00  0.00    +0.000 A 
ATOM      9  C   UNL     1      -0.263   9.778  20.300  0.00  0.00    +0.000 C 
ATOM     10  N   UNL     1       1.299   7.957  20.261  0.00  0.00    +0.000 NA
ATOM     11  C   UNL     1       2.205   7.235  19.585  0.00  0.00    +0.000 A 
ATOM     12  C   UNL     1       2.375   5.843  20.000  0.00  0.00    +0.000 C 
ATOM     13  O   UNL     1       2.643   5.484  21.129  0.00  0.00    +0.000 OA
ENDROOT
BRANCH   2  14
ATOM     14  S   UNL     1       4.155   3.862  17.360  0.00  0.00    +0.000 S 
ATOM     15  C   UNL     1       5.534   4.060  18.481  0.00  0.00    +0.000 C 
ATOM     16  O   UNL     1       3.561   2.567  17.669  0.00  0.00    +0.000 OA
ATOM     17  O   UNL     1       4.631   4.109  16.017  0.00  0.00    +0.000 OA
ENDBRANCH   2  14
BRANCH   1  19
ATOM     18  C   UNL     1       0.992   2.971  19.849  0.00  0.00    +0.000 C 
ATOM     19  N   UNL     1       1.147   4.028  18.852  0.00  0.00    +0.000 N 
ATOM     20  H   UNL     1       0.258   4.452  18.578  0.00  0.00    +0.000 HD
ENDBRANCH   1  19
TORSDOF 2
ENDMDL
MODEL 6
REMARK VINA RESULT:      -6.3     10.552     11.894
REMARK  Name = 
REMARK  5 active torsions:
REMARK  status: ('A' for Active; 'I' for Inactive)
REMARK    1  A    between atoms: C_1  and  N_2
REMARK    2  A    between atoms: N_2  and  C_3
REMARK    3  A    between atoms: C_4  and  S_5
REMARK    4  A    between atoms: S_5  and  C_6
REMARK    5  A    between atoms: C_14  and  C_15
REMARK                            x       y       z     vdW  Elec       q    Type
REMARK                         _______ _______ _______ _____ _____    ______ ____
ROOT
ATOM      1  C   UNL     1      -6.450  11.254  19.044  0.00  0.00    +0.000 C 
ATOM      2  C   UNL     1      -5.743  11.796  20.049  0.00  0.00    +0.000 C 
ATOM      3  C   UNL     1      -4.364  12.293  19.752  0.00  0.00    +0.000 C 
ATOM      4  O   UNL     1      -3.661  12.878  20.557  0.00  0.00    +0.000 OA
ATOM      5  C   UNL     1      -3.827  11.903  18.431  0.00  0.00    +0.000 A 
ATOM      6  C   UNL     1      -2.518  11.547  18.207  0.00  0.00    +0.000 A 
ATOM      7  C   UNL     1      -2.197  10.971  16.970  0.00  0.00    +0.000 A 
ATOM      8  C   UNL     1      -3.190  10.821  16.000  0.00  0.00    +0.000 A 
ATOM      9  C   UNL     1      -2.975  10.005  14.767  0.00  0.00    +0.000 C 
ATOM     10  N   UNL     1      -4.459  11.245  16.187  0.00  0.00    +0.000 NA
ATOM     11  C   UNL     1      -4.727  11.764  17.395  0.00  0.00    +0.000 A 
ATOM     12  C   UNL     1      -6.139  11.923  17.741  0.00  0.00    +0.000 C 
ATOM     13  O   UNL     1      -6.950  12.541  17.080  0.00  0.00    +0.000 OA
ENDROOT
BRANCH   2  14
ATOM     14  S   UNL     1      -6.572  12.408  21.434  0.00  0.00    +0.000 S 
ATOM     15  C   UNL     1      -6.779  14.117  20.951  0.00  0.00    +0.000 C 
ATOM     16  O   UNL     1      -7.913  11.846  21.531  0.00  0.00    +0.000 OA
ATOM     17  O   UNL     1      -5.715  12.373  22.598  0.00  0.00    +0.000 OA
ENDBRANCH   2  14
BRANCH   1  19
ATOM     18  C   UNL     1      -7.052   8.914  19.714  0.00  0.00    +0.000 C 
ATOM     19  N   UNL     1      -7.324  10.177  19.034  0.00  0.00    +0.000 N 
ATOM     20  H   UNL     1      -8.309  10.449  19.073  0.00  0.00    +0.000 HD
ENDBRANCH   1  19
TORSDOF 2
ENDMDL
MODEL 7
REMARK VINA RESULT:      -6.2      2.980      4.960
REMARK  Name = 
REMARK  5 active torsions:
REMARK  status: ('A' for Active; 'I' for Inactive)
REMARK    1  A    between atoms: C_1  and  N_2
REMARK    2  A    between atoms: N_2  and  C_3
REMARK    3  A    between atoms: C_4  and  S_5
REMARK    4  A    between atoms: S_5  and  C_6
REMARK    5  A    between atoms: C_14  and  C_15
REMARK                            x       y       z     vdW  Elec       q    Type
REMARK                         _______ _______ _______ _____ _____    ______ ____
ROOT
ATOM      1  C   UNL     1       5.757   4.538  17.425  0.00  0.00    +0.000 C 
ATOM      2  C   UNL     1       5.595   5.866  17.307  0.00  0.00    +0.000 C 
ATOM      3  C   UNL     1       4.334   6.472  17.836  0.00  0.00    +0.000 C 
ATOM      4  O   UNL     1       4.112   7.669  17.864  0.00  0.00    +0.000 OA
ATOM      5  C   UNL     1       3.282   5.503  18.210  0.00  0.00    +0.000 A 
ATOM      6  C   UNL     1       1.939   5.704  17.987  0.00  0.00    +0.000 A 
ATOM      7  C   UNL     1       1.075   4.613  18.166  0.00  0.00    +0.000 A 
ATOM      8  C   UNL     1       1.588   3.391  18.603  0.00  0.00    +0.000 A 
ATOM      9  C   UNL     1       0.774   2.139  18.583  0.00  0.00    +0.000 C 
ATOM     10  N   UNL     1       2.894   3.215  18.901  0.00  0.00    +0.000 NA
ATOM     11  C   UNL     1       3.687   4.276  18.689  0.00  0.00    +0.000 A 
ATOM     12  C   UNL     1       5.128   4.026  18.684  0.00  0.00    +0.000 C 
ATOM     13  O   UNL     1       5.744   3.501  19.590  0.00  0.00    +0.000 OA
ENDROOT
BRANCH   2  14
ATOM     14  S   UNL     1       6.982   6.872  17.096  0.00  0.00    +0.000 S 
ATOM     15  C   UNL     1       7.860   6.526  18.615  0.00  0.00    +0.000 C 
ATOM     16  O   UNL     1       7.826   6.378  16.016  0.00  0.00    +0.000 OA
ATOM     17  O   UNL     1       6.605   8.268  17.104  0.00  0.00    +0.000 OA
ENDBRANCH   2  14
BRANCH   1  19
ATOM     18  C   UNL     1       6.107   3.625  15.116  0.00  0.00    +0.000 C 
ATOM     19  N   UNL     1       6.329   3.618  16.559  0.00  0.00    +0.000 N 
ATOM     20  H   UNL     1       7.283   3.352  16.816  0.00  0.00    +0.000 HD
ENDBRANCH   1  19
TORSDOF 2
ENDMDL
MODEL 8
REMARK VINA RESULT:      -6.2      0.842      1.056
REMARK  Name = 
REMARK  5 active torsions:
REMARK  status: ('A' for Active; 'I' for Inactive)
REMARK    1  A    between atoms: C_1  and  N_2
REMARK    2  A    between atoms: N_2  and  C_3
REMARK    3  A    between atoms: C_4  and  S_5
REMARK    4  A    between atoms: S_5  and  C_6
REMARK    5  A    between atoms: C_14  and  C_15
REMARK                            x       y       z     vdW  Elec       q    Type
REMARK                         _______ _______ _______ _____ _____    ______ ____
ROOT
ATOM      1  C   UNL     1       3.956   3.480  19.300  0.00  0.00    +0.000 C 
ATOM      2  C   UNL     1       3.103   4.495  19.516  0.00  0.00    +0.000 C 
ATOM      3  C   UNL     1       2.908   5.496  18.422  0.00  0.00    +0.000 C 
ATOM      4  O   UNL     1       2.101   6.408  18.467  0.00  0.00    +0.000 OA
ATOM      5  C   UNL     1       3.873   5.401  17.306  0.00  0.00    +0.000 A 
ATOM      6  C   UNL     1       4.407   6.490  16.657  0.00  0.00    +0.000 A 
ATOM      7  C   UNL     1       5.484   6.271  15.786  0.00  0.00    +0.000 A 
ATOM      8  C   UNL     1       5.943   4.970  15.570  0.00  0.00    +0.000 A 
ATOM      9  C   UNL     1       7.224   4.692  14.852  0.00  0.00    +0.000 C 
ATOM     10  N   UNL     1       5.367   3.891  16.143  0.00  0.00    +0.000 NA
ATOM     11  C   UNL     1       4.359   4.151  16.990  0.00  0.00    +0.000 A 
ATOM     12  C   UNL     1       3.940   3.056  17.864  0.00  0.00    +0.000 C 
ATOM     13  O   UNL     1       3.594   1.956  17.481  0.00  0.00    +0.000 OA
ENDROOT
BRANCH   2  14
ATOM     14  S   UNL     1       1.885   4.334  20.729  0.00  0.00    +0.000 S 
ATOM     15  C   UNL     1       1.587   6.055  21.111  0.00  0.00    +0.000 C 
ATOM     16  O   UNL     1       0.646   3.821  20.160  0.00  0.00    +0.000 OA
ATOM     17  O   UNL     1       2.425   3.700  21.912  0.00  0.00    +0.000 OA
ENDBRANCH   2  14
BRANCH   1  19
ATOM     18  C   UNL     1       4.729   1.458  20.567  0.00  0.00    +0.000 C 
ATOM     19  N   UNL     1       4.850   2.855  20.157  0.00  0.00    +0.000 N 
ATOM     20  H   UNL     1       5.819   3.150  20.022  0.00  0.00    +0.000 HD
ENDBRANCH   1  19
TORSDOF 2
ENDMDL
MODEL 9
REMARK VINA RESULT:      -6.1      2.211      3.579
REMARK  Name = 
REMARK  5 active torsions:
REMARK  status: ('A' for Active; 'I' for Inactive)
REMARK    1  A    between atoms: C_1  and  N_2
REMARK    2  A    between atoms: N_2  and  C_3
REMARK    3  A    between atoms: C_4  and  S_5
REMARK    4  A    between atoms: S_5  and  C_6
REMARK    5  A    between atoms: C_14  and  C_15
REMARK                            x       y       z     vdW  Elec       q    Type
REMARK                         _______ _______ _______ _____ _____    ______ ____
ROOT
ATOM      1  C   UNL     1       5.034   5.990  17.684  0.00  0.00    +0.000 C 
ATOM      2  C   UNL     1       4.298   4.875  17.813  0.00  0.00    +0.000 C 
ATOM      3  C   UNL     1       4.657   3.693  16.969  0.00  0.00    +0.000 C 
ATOM      4  O   UNL     1       4.120   2.603  17.058  0.00  0.00    +0.000 OA
ATOM      5  C   UNL     1       5.634   3.964  15.893  0.00  0.00    +0.000 A 
ATOM      6  C   UNL     1       5.569   3.405  14.638  0.00  0.00    +0.000 A 
ATOM      7  C   UNL     1       6.410   3.927  13.644  0.00  0.00    +0.000 A 
ATOM      8  C   UNL     1       7.306   4.948  13.965  0.00  0.00    +0.000 A 
ATOM      9  C   UNL     1       8.050   5.706  12.914  0.00  0.00    +0.000 C 
ATOM     10  N   UNL     1       7.428   5.442  15.216  0.00  0.00    +0.000 NA
ATOM     11  C   UNL     1       6.585   4.933  16.127  0.00  0.00    +0.000 A 
ATOM     12  C   UNL     1       6.465   5.664  17.388  0.00  0.00    +0.000 C 
ATOM     13  O   UNL     1       7.395   5.945  18.118  0.00  0.00    +0.000 OA
ENDROOT
BRANCH   2  14
ATOM     14  S   UNL     1       3.384   4.626  19.256  0.00  0.00    +0.000 S 
ATOM     15  C   UNL     1       1.756   4.374  18.561  0.00  0.00    +0.000 C 
ATOM     16  O   UNL     1       3.752   3.371  19.898  0.00  0.00    +0.000 OA
ATOM     17  O   UNL     1       3.349   5.833  20.052  0.00  0.00    +0.000 OA
ENDBRANCH   2  14
BRANCH   1  19
ATOM     18  C   UNL     1       3.307   7.790  17.423  0.00  0.00    +0.000 C 
ATOM     19  N   UNL     1       4.661   7.326  17.714  0.00  0.00    +0.000 N 
ATOM     20  H   UNL     1       5.117   7.862  18.456  0.00  0.00    +0.000 HD
ENDBRANCH   1  19
TORSDOF 2
ENDMDL
