MODEL 1
REMARK VINA RESULT:      -7.0      0.000      0.000
REMARK  Name = 
REMARK  9 active torsions:
REMARK  status: ('A' for Active; 'I' for Inactive)
REMARK    1  A    between atoms: C_1  and  C_2
REMARK    2  A    between atoms: C_2  and  O_3
REMARK    3  A    between atoms: O_3  and  C_4
REMARK    4  A    between atoms: C_4  and  C_6
REMARK    5  A    between atoms: C_11  and  C_13
REMARK    6  A    between atoms: C_16  and  S_17
REMARK    7  A    between atoms: S_17  and  N_20
REMARK    8  A    between atoms: N_20  and  C_21
REMARK    9  A    between atoms: N_20  and  C_22
REMARK                            x       y       z     vdW  Elec       q    Type
REMARK                         _______ _______ _______ _____ _____    ______ ____
ROOT
ATOM      1  C   UNL     1       4.106   4.573  18.938  0.00  0.00    +0.000 A 
ATOM      2  C   UNL     1       3.605   3.537  19.709  0.00  0.00    +0.000 A 
ATOM      3  S   UNL     1       2.450   4.137  20.830  0.00  0.00    +0.000 S 
ATOM      4  C   UNL     1       2.620   5.688  20.141  0.00  0.00    +0.000 A 
ATOM      5  N   UNL     1       1.810   6.651  20.679  0.00  0.00    +0.000 N 
ATOM      6  C   UNL     1       1.716   7.895  20.092  0.00  0.00    +0.000 C 
ATOM      7  O   UNL     1       2.238   8.242  19.038  0.00  0.00    +0.000 OA
ATOM      8  N   UNL     1       3.504   5.802  19.188  0.00  0.00    +0.000 NA
ATOM      9  H   UNL     1       1.311   6.401  21.515  0.00  0.00    +0.000 HD
ENDROOT
BRANCH   6  10
ATOM     10  C   UNL     1       0.902   8.917  20.811  0.00  0.00    +0.000 A 
ATOM     11  C   UNL     1       0.210   9.846  20.016  0.00  0.00    +0.000 A 
ATOM     12  C   UNL     1      -0.555  10.856  20.598  0.00  0.00    +0.000 A 
ATOM     13  C   UNL     1      -0.649  10.926  21.988  0.00  0.00    +0.000 A 
ATOM     14  C   UNL     1       0.025   9.999  22.795  0.00  0.00    +0.000 A 
ATOM     15  C   UNL     1       0.793   8.987  22.205  0.00  0.00    +0.000 A 
BRANCH  13  16
ATOM     16  S   UNL     1      -1.544  12.276  22.735  0.00  0.00    +0.000 S 
ATOM     17  O   UNL     1      -2.641  11.689  23.480  0.00  0.00    +0.000 OA
ATOM     18  O   UNL     1      -0.575  13.131  23.384  0.00  0.00    +0.000 OA
BRANCH  16  19
ATOM     19  N   UNL     1      -2.194  13.104  21.402  0.00  0.00    +0.000 NA
ATOM     20  C   UNL     1      -3.659  13.113  21.266  0.00  0.00    +0.000 C 
ATOM     21  C   UNL     1      -1.562  14.382  21.042  0.00  0.00    +0.000 C 
ENDBRANCH  16  19
ENDBRANCH  13  16
ENDBRANCH   6  10
BRANCH   1  22
ATOM     22  C   UNL     1       5.209   4.422  17.990  0.00  0.00    +0.000 C 
ATOM     23  O   UNL     1       5.037   4.313  16.779  0.00  0.00    +0.000 OA
BRANCH  22  24
ATOM     24  O   UNL     1       6.416   4.302  18.614  0.00  0.00    +0.000 OA
BRANCH  24  26
ATOM     25  C   UNL     1       7.434   6.344  17.900  0.00  0.00    +0.000 C 
ATOM     26  C   UNL     1       6.992   5.520  19.097  0.00  0.00    +0.000 C 
ENDBRANCH  24  26
ENDBRANCH  22  24
ENDBRANCH   1  22
TORSDOF 6
ENDMDL
MODEL 2
REMARK VINA RESULT:      -6.9      0.887      1.283
REMARK  Name = 
REMARK  9 active torsions:
REMARK  status: ('A' for Active; 'I' for Inactive)
REMARK    1  A    between atoms: C_1  and  C_2
REMARK    2  A    between atoms: C_2  and  O_3
REMARK    3  A    between atoms: O_3  and  C_4
REMARK    4  A    between atoms: C_4  and  C_6
REMARK    5  A    between atoms: C_11  and  C_13
REMARK    6  A    between atoms: C_16  and  S_17
REMARK    7  A    between atoms: S_17  and  N_20
REMARK    8  A    between atoms: N_20  and  C_21
REMARK    9  A    between atoms: N_20  and  C_22
REMARK                            x       y       z     vdW  Elec       q    Type
REMARK                         _______ _______ _______ _____ _____    ______ ____
ROOT
ATOM      1  C   UNL     1       4.310   4.553  18.874  0.00  0.00    +0.000 A 
ATOM      2  C   UNL     1       3.776   3.491  19.585  0.00  0.00    +0.000 A 
ATOM      3  S   UNL     1       2.564   4.052  20.666  0.00  0.00    +0.000 S 
ATOM      4  C   UNL     1       2.763   5.625  20.037  0.00  0.00    +0.000 A 
ATOM      5  N   UNL     1       1.924   6.569  20.565  0.00  0.00    +0.000 N 
ATOM      6  C   UNL     1       1.856   7.831  20.016  0.00  0.00    +0.000 C 
ATOM      7  O   UNL     1       2.428   8.213  19.001  0.00  0.00    +0.000 OA
ATOM      8  N   UNL     1       3.693   5.772  19.134  0.00  0.00    +0.000 NA
ATOM      9  H   UNL     1       1.385   6.291  21.367  0.00  0.00    +0.000 HD
ENDROOT
BRANCH   6  10
ATOM     10  C   UNL     1       1.004   8.828  20.726  0.00  0.00    +0.000 A 
ATOM     11  C   UNL     1       0.599   9.953  19.988  0.00  0.00    +0.000 A 
ATOM     12  C   UNL     1      -0.176  10.953  20.575  0.00  0.00    +0.000 A 
ATOM     13  C   UNL     1      -0.571  10.817  21.905  0.00  0.00    +0.000 A 
ATOM     14  C   UNL     1      -0.186   9.695  22.652  0.00  0.00    +0.000 A 
ATOM     15  C   UNL     1       0.593   8.693  22.058  0.00  0.00    +0.000 A 
BRANCH  13  16
ATOM     16  S   UNL     1      -1.476  12.141  22.686  0.00  0.00    +0.000 S 
ATOM     17  O   UNL     1      -2.510  11.522  23.492  0.00  0.00    +0.000 OA
ATOM     18  O   UNL     1      -0.507  13.038  23.276  0.00  0.00    +0.000 OA
BRANCH  16  19
ATOM     19  N   UNL     1      -2.224  12.930  21.381  0.00  0.00    +0.000 NA
ATOM     20  C   UNL     1      -3.689  12.832  21.286  0.00  0.00    +0.000 C 
ATOM     21  C   UNL     1      -1.698  14.255  21.017  0.00  0.00    +0.000 C 
ENDBRANCH  16  19
ENDBRANCH  13  16
ENDBRANCH   6  10
BRANCH   1  22
ATOM     22  C   UNL     1       5.459   4.434  17.977  0.00  0.00    +0.000 C 
ATOM     23  O   UNL     1       6.602   4.235  18.379  0.00  0.00    +0.000 OA
BRANCH  22  24
ATOM     24  O   UNL     1       5.130   4.682  16.676  0.00  0.00    +0.000 OA
BRANCH  24  26
ATOM     25  C   UNL     1       6.585   4.660  14.780  0.00  0.00    +0.000 C 
ATOM     26  C   UNL     1       5.727   3.816  15.706  0.00  0.00    +0.000 C 
ENDBRANCH  24  26
ENDBRANCH  22  24
ENDBRANCH   1  22
TORSDOF 6
ENDMDL
MODEL 3
REMARK VINA RESULT:      -6.9      2.571      9.479
REMARK  Name = 
REMARK  9 active torsions:
REMARK  status: ('A' for Active; 'I' for Inactive)
REMARK    1  A    between atoms: C_1  and  C_2
REMARK    2  A    between atoms: C_2  and  O_3
REMARK    3  A    between atoms: O_3  and  C_4
REMARK    4  A    between atoms: C_4  and  C_6
REMARK    5  A    between atoms: C_11  and  C_13
REMARK    6  A    between atoms: C_16  and  S_17
REMARK    7  A    between atoms: S_17  and  N_20
REMARK    8  A    between atoms: N_20  and  C_21
REMARK    9  A    between atoms: N_20  and  C_22
REMARK                            x       y       z     vdW  Elec       q    Type
REMARK                         _______ _______ _______ _____ _____    ______ ____
ROOT
ATOM      1  C   UNL     1      -1.348  11.646  20.460  0.00  0.00    +0.000 A 
ATOM      2  C   UNL     1      -1.156  11.565  21.830  0.00  0.00    +0.000 A 
ATOM      3  S   UNL     1      -0.063  10.291  22.199  0.00  0.00    +0.000 S 
ATOM      4  C   UNL     1       0.152  10.021  20.529  0.00  0.00    +0.000 A 
ATOM      5  N   UNL     1       1.052   9.038  20.214  0.00  0.00    +0.000 N 
ATOM      6  C   UNL     1       1.453   8.848  18.909  0.00  0.00    +0.000 C 
ATOM      7  O   UNL     1       1.146   9.544  17.947  0.00  0.00    +0.000 OA
ATOM      8  N   UNL     1      -0.565  10.761  19.728  0.00  0.00    +0.000 NA
ATOM      9  H   UNL     1       1.382   8.472  20.977  0.00  0.00    +0.000 HD
ENDROOT
BRANCH   6  10
ATOM     10  C   UNL     1       2.343   7.682  18.643  0.00  0.00    +0.000 A 
ATOM     11  C   UNL     1       2.154   6.546  19.448  0.00  0.00    +0.000 A 
ATOM     12  C   UNL     1       2.957   5.417  19.293  0.00  0.00    +0.000 A 
ATOM     13  C   UNL     1       3.944   5.412  18.308  0.00  0.00    +0.000 A 
ATOM     14  C   UNL     1       4.138   6.533  17.488  0.00  0.00    +0.000 A 
ATOM     15  C   UNL     1       3.328   7.665  17.649  0.00  0.00    +0.000 A 
BRANCH  13  16
ATOM     16  S   UNL     1       5.037   4.009  18.174  0.00  0.00    +0.000 S 
ATOM     17  O   UNL     1       5.758   3.919  19.428  0.00  0.00    +0.000 OA
ATOM     18  O   UNL     1       4.254   2.896  17.683  0.00  0.00    +0.000 OA
BRANCH  16  19
ATOM     19  N   UNL     1       6.134   4.478  16.965  0.00  0.00    +0.000 NA
ATOM     20  C   UNL     1       7.537   4.665  17.367  0.00  0.00    +0.000 C 
ATOM     21  C   UNL     1       5.979   3.845  15.647  0.00  0.00    +0.000 C 
ENDBRANCH  16  19
ENDBRANCH  13  16
ENDBRANCH   6  10
BRANCH   1  22
ATOM     22  C   UNL     1      -2.328  12.529  19.828  0.00  0.00    +0.000 C 
ATOM     23  O   UNL     1      -2.928  13.408  20.442  0.00  0.00    +0.000 OA
BRANCH  22  24
ATOM     24  O   UNL     1      -2.572  12.188  18.530  0.00  0.00    +0.000 OA
BRANCH  24  26
ATOM     25  C   UNL     1      -3.513  10.183  17.629  0.00  0.00    +0.000 C 
ATOM     26  C   UNL     1      -3.814  11.521  18.284  0.00  0.00    +0.000 C 
ENDBRANCH  24  26
ENDBRANCH  22  24
ENDBRANCH   1  22
TORSDOF 6
ENDMDL
MODEL 4
REMARK VINA RESULT:      -6.9      0.910      1.595
REMARK  Name = 
REMARK  9 active torsions:
REMARK  status: ('A' for Active; 'I' for Inactive)
REMARK    1  A    between atoms: C_1  and  C_2
REMARK    2  A    between atoms: C_2  and  O_3
REMARK    3  A    between atoms: O_3  and  C_4
REMARK    4  A    between atoms: C_4  and  C_6
REMARK    5  A    between atoms: C_11  and  C_13
REMARK    6  A    between atoms: C_16  and  S_17
REMARK    7  A    between atoms: S_17  and  N_20
REMARK    8  A    between atoms: N_20  and  C_21
REMARK    9  A    between atoms: N_20  and  C_22
REMARK                            x       y       z     vdW  Elec       q    Type
REMARK                         _______ _______ _______ _____ _____    ______ ____
ROOT
ATOM      1  C   UNL     1       3.858   4.697  19.301  0.00  0.00    +0.000 A 
ATOM      2  C   UNL     1       3.273   3.711  20.079  0.00  0.00    +0.000 A 
ATOM      3  S   UNL     1       2.067   4.394  21.094  0.00  0.00    +0.000 S 
ATOM      4  C   UNL     1       2.334   5.908  20.355  0.00  0.00    +0.000 A 
ATOM      5  N   UNL     1       1.523   6.918  20.797  0.00  0.00    +0.000 N 
ATOM      6  C   UNL     1       1.510   8.138  20.155  0.00  0.00    +0.000 C 
ATOM      7  O   UNL     1       2.112   8.422  19.125  0.00  0.00    +0.000 OA
ATOM      8  N   UNL     1       3.283   5.954  19.460  0.00  0.00    +0.000 NA
ATOM      9  H   UNL     1       0.962   6.720  21.608  0.00  0.00    +0.000 HD
ENDROOT
BRANCH   6  10
ATOM     10  C   UNL     1       0.686   9.215  20.775  0.00  0.00    +0.000 A 
ATOM     11  C   UNL     1       0.436   9.104  22.153  0.00  0.00    +0.000 A 
ATOM     12  C   UNL     1      -0.348  10.047  22.817  0.00  0.00    +0.000 A 
ATOM     13  C   UNL     1      -0.867  11.126  22.102  0.00  0.00    +0.000 A 
ATOM     14  C   UNL     1      -0.616  11.259  20.729  0.00  0.00    +0.000 A 
ATOM     15  C   UNL     1       0.171  10.307  20.067  0.00  0.00    +0.000 A 
BRANCH  13  16
ATOM     16  S   UNL     1      -1.951  12.278  22.926  0.00  0.00    +0.000 S 
ATOM     17  O   UNL     1      -2.941  11.489  23.633  0.00  0.00    +0.000 OA
ATOM     18  O   UNL     1      -1.117  13.231  23.626  0.00  0.00    +0.000 OA
BRANCH  16  19
ATOM     19  N   UNL     1      -2.728  13.075  21.643  0.00  0.00    +0.000 NA
ATOM     20  C   UNL     1      -4.157  12.790  21.443  0.00  0.00    +0.000 C 
ATOM     21  C   UNL     1      -2.373  14.485  21.426  0.00  0.00    +0.000 C 
ENDBRANCH  16  19
ENDBRANCH  13  16
ENDBRANCH   6  10
BRANCH   1  22
ATOM     22  C   UNL     1       5.015   4.470  18.436  0.00  0.00    +0.000 C 
ATOM     23  O   UNL     1       6.085   4.037  18.853  0.00  0.00    +0.000 OA
BRANCH  22  24
ATOM     24  O   UNL     1       4.800   4.901  17.160  0.00  0.00    +0.000 OA
BRANCH  24  26
ATOM     25  C   UNL     1       6.343   4.601  15.358  0.00  0.00    +0.000 C 
ATOM     26  C   UNL     1       5.181   3.991  16.123  0.00  0.00    +0.000 C 
ENDBRANCH  24  26
ENDBRANCH  22  24
ENDBRANCH   1  22
TORSDOF 6
ENDMDL
MODEL 5
REMARK VINA RESULT:      -6.9      2.476      9.380
REMARK  Name = 
REMARK  9 active torsions:
REMARK  status: ('A' for Active; 'I' for Inactive)
REMARK    1  A    between atoms: C_1  and  C_2
REMARK    2  A    between atoms: C_2  and  O_3
REMARK    3  A    between atoms: O_3  and  C_4
REMARK    4  A    between atoms: C_4  and  C_6
REMARK    5  A    between atoms: C_11  and  C_13
REMARK    6  A    between atoms: C_16  and  S_17
REMARK    7  A    between atoms: S_17  and  N_20
REMARK    8  A    between atoms: N_20  and  C_21
REMARK    9  A    between atoms: N_20  and  C_22
REMARK                            x       y       z     vdW  Elec       q    Type
REMARK                         _______ _______ _______ _____ _____    ______ ____
ROOT
ATOM      1  C   UNL     1      -1.427  11.712  20.468  0.00  0.00    +0.000 A 
ATOM      2  C   UNL     1      -1.242  11.668  21.841  0.00  0.00    +0.000 A 
ATOM      3  S   UNL     1      -0.143  10.412  22.250  0.00  0.00    +0.000 S 
ATOM      4  C   UNL     1       0.083  10.099  20.589  0.00  0.00    +0.000 A 
ATOM      5  N   UNL     1       0.991   9.114  20.306  0.00  0.00    +0.000 N 
ATOM      6  C   UNL     1       1.400   8.892  19.008  0.00  0.00    +0.000 C 
ATOM      7  O   UNL     1       1.095   9.559  18.026  0.00  0.00    +0.000 OA
ATOM      8  N   UNL     1      -0.633  10.812  19.764  0.00  0.00    +0.000 NA
ATOM      9  H   UNL     1       1.320   8.570  21.085  0.00  0.00    +0.000 HD
ENDROOT
BRANCH   6  10
ATOM     10  C   UNL     1       2.300   7.725  18.779  0.00  0.00    +0.000 A 
ATOM     11  C   UNL     1       2.227   6.677  19.713  0.00  0.00    +0.000 A 
ATOM     12  C   UNL     1       3.048   5.557  19.598  0.00  0.00    +0.000 A 
ATOM     13  C   UNL     1       3.936   5.469  18.526  0.00  0.00    +0.000 A 
ATOM     14  C   UNL     1       4.012   6.499  17.577  0.00  0.00    +0.000 A 
ATOM     15  C   UNL     1       3.184   7.623  17.699  0.00  0.00    +0.000 A 
BRANCH  13  16
ATOM     16  S   UNL     1       5.057   4.085  18.432  0.00  0.00    +0.000 S 
ATOM     17  O   UNL     1       5.329   3.862  17.025  0.00  0.00    +0.000 OA
ATOM     18  O   UNL     1       6.130   4.333  19.369  0.00  0.00    +0.000 OA
BRANCH  16  19
ATOM     19  N   UNL     1       4.126   2.784  19.003  0.00  0.00    +0.000 NA
ATOM     20  C   UNL     1       3.550   1.878  17.997  0.00  0.00    +0.000 C 
ATOM     21  C   UNL     1       4.617   2.094  20.205  0.00  0.00    +0.000 C 
ENDBRANCH  16  19
ENDBRANCH  13  16
ENDBRANCH   6  10
BRANCH   1  22
ATOM     22  C   UNL     1      -2.408  12.572  19.808  0.00  0.00    +0.000 C 
ATOM     23  O   UNL     1      -3.064  13.419  20.407  0.00  0.00    +0.000 OA
BRANCH  22  24
ATOM     24  O   UNL     1      -2.585  12.244  18.495  0.00  0.00    +0.000 OA
BRANCH  24  26
ATOM     25  C   UNL     1      -3.351  10.127  17.689  0.00  0.00    +0.000 C 
ATOM     26  C   UNL     1      -3.768  11.498  18.193  0.00  0.00    +0.000 C 
ENDBRANCH  24  26
ENDBRANCH  22  24
ENDBRANCH   1  22
TORSDOF 6
ENDMDL
MODEL 6
REMARK VINA RESULT:      -6.7      1.264      1.703
REMARK  Name = 
REMARK  9 active torsions:
REMARK  status: ('A' for Active; 'I' for Inactive)
REMARK    1  A    between atoms: C_1  and  C_2
REMARK    2  A    between atoms: C_2  and  O_3
REMARK    3  A    between atoms: O_3  and  C_4
REMARK    4  A    between atoms: C_4  and  C_6
REMARK    5  A    between atoms: C_11  and  C_13
REMARK    6  A    between atoms: C_16  and  S_17
REMARK    7  A    between atoms: S_17  and  N_20
REMARK    8  A    between atoms: N_20  and  C_21
REMARK    9  A    between atoms: N_20  and  C_22
REMARK                            x       y       z     vdW  Elec       q    Type
REMARK                         _______ _______ _______ _____ _____    ______ ____
ROOT
ATOM      1  C   UNL     1       4.320   4.563  19.085  0.00  0.00    +0.000 A 
ATOM      2  C   UNL     1       3.751   3.517  19.793  0.00  0.00    +0.000 A 
ATOM      3  S   UNL     1       2.477   4.099  20.787  0.00  0.00    +0.000 S 
ATOM      4  C   UNL     1       2.704   5.656  20.130  0.00  0.00    +0.000 A 
ATOM      5  N   UNL     1       1.832   6.608  20.584  0.00  0.00    +0.000 N 
ATOM      6  C   UNL     1       1.789   7.855  19.999  0.00  0.00    +0.000 C 
ATOM      7  O   UNL     1       2.417   8.214  19.008  0.00  0.00    +0.000 OA
ATOM      8  N   UNL     1       3.684   5.785  19.277  0.00  0.00    +0.000 NA
ATOM      9  H   UNL     1       1.249   6.348  21.361  0.00  0.00    +0.000 HD
ENDROOT
BRANCH   6  10
ATOM     10  C   UNL     1       0.894   8.865  20.633  0.00  0.00    +0.000 A 
ATOM     11  C   UNL     1       0.175   9.705  19.766  0.00  0.00    +0.000 A 
ATOM     12  C   UNL     1      -0.667  10.698  20.265  0.00  0.00    +0.000 A 
ATOM     13  C   UNL     1      -0.811  10.839  21.645  0.00  0.00    +0.000 A 
ATOM     14  C   UNL     1      -0.111  10.001  22.524  0.00  0.00    +0.000 A 
ATOM     15  C   UNL     1       0.734   9.005  22.016  0.00  0.00    +0.000 A 
BRANCH  13  16
ATOM     16  S   UNL     1      -1.808  12.172  22.287  0.00  0.00    +0.000 S 
ATOM     17  O   UNL     1      -2.547  12.719  21.166  0.00  0.00    +0.000 OA
ATOM     18  O   UNL     1      -2.491  11.674  23.460  0.00  0.00    +0.000 OA
BRANCH  16  19
ATOM     19  N   UNL     1      -0.658  13.324  22.775  0.00  0.00    +0.000 NA
ATOM     20  C   UNL     1       0.309  13.779  21.763  0.00  0.00    +0.000 C 
ATOM     21  C   UNL     1      -1.130  14.397  23.662  0.00  0.00    +0.000 C 
ENDBRANCH  16  19
ENDBRANCH  13  16
ENDBRANCH   6  10
BRANCH   1  22
ATOM     22  C   UNL     1       5.519   4.428  18.259  0.00  0.00    +0.000 C 
ATOM     23  O   UNL     1       6.656   4.462  18.722  0.00  0.00    +0.000 OA
BRANCH  22  24
ATOM     24  O   UNL     1       5.228   4.379  16.927  0.00  0.00    +0.000 OA
BRANCH  24  26
ATOM     25  C   UNL     1       6.868   4.648  15.208  0.00  0.00    +0.000 C 
ATOM     26  C   UNL     1       5.875   5.360  16.111  0.00  0.00    +0.000 C 
ENDBRANCH  24  26
ENDBRANCH  22  24
ENDBRANCH   1  22
TORSDOF 6
ENDMDL
MODEL 7
REMARK VINA RESULT:      -6.7      2.068      9.632
REMARK  Name = 
REMARK  9 active torsions:
REMARK  status: ('A' for Active; 'I' for Inactive)
REMARK    1  A    between atoms: C_1  and  C_2
REMARK    2  A    between atoms: C_2  and  O_3
REMARK    3  A    between atoms: O_3  and  C_4
REMARK    4  A    between atoms: C_4  and  C_6
REMARK    5  A    between atoms: C_11  and  C_13
REMARK    6  A    between atoms: C_16  and  S_17
REMARK    7  A    between atoms: S_17  and  N_20
REMARK    8  A    between atoms: N_20  and  C_21
REMARK    9  A    between atoms: N_20  and  C_22
REMARK                            x       y       z     vdW  Elec       q    Type
REMARK                         _______ _______ _______ _____ _____    ______ ____
ROOT
ATOM      1  C   UNL     1      -1.298  11.697  21.261  0.00  0.00    +0.000 A 
ATOM      2  C   UNL     1      -1.344  11.409  22.616  0.00  0.00    +0.000 A 
ATOM      3  S   UNL     1      -0.476   9.963  22.943  0.00  0.00    +0.000 S 
ATOM      4  C   UNL     1      -0.022   9.890  21.301  0.00  0.00    +0.000 A 
ATOM      5  N   UNL     1       0.802   8.846  20.976  0.00  0.00    +0.000 N 
ATOM      6  C   UNL     1       1.388   8.779  19.730  0.00  0.00    +0.000 C 
ATOM      7  O   UNL     1       1.324   9.631  18.850  0.00  0.00    +0.000 OA
ATOM      8  N   UNL     1      -0.509  10.819  20.526  0.00  0.00    +0.000 NA
ATOM      9  H   UNL     1       0.937   8.144  21.683  0.00  0.00    +0.000 HD
ENDROOT
BRANCH   6  10
ATOM     10  C   UNL     1       2.174   7.549  19.423  0.00  0.00    +0.000 A 
ATOM     11  C   UNL     1       2.896   7.546  18.217  0.00  0.00    +0.000 A 
ATOM     12  C   UNL     1       3.639   6.431  17.830  0.00  0.00    +0.000 A 
ATOM     13  C   UNL     1       3.681   5.316  18.667  0.00  0.00    +0.000 A 
ATOM     14  C   UNL     1       2.977   5.308  19.880  0.00  0.00    +0.000 A 
ATOM     15  C   UNL     1       2.232   6.431  20.263  0.00  0.00    +0.000 A 
BRANCH  13  16
ATOM     16  S   UNL     1       4.548   3.853  18.128  0.00  0.00    +0.000 S 
ATOM     17  O   UNL     1       5.179   3.285  19.302  0.00  0.00    +0.000 OA
ATOM     18  O   UNL     1       3.628   3.077  17.326  0.00  0.00    +0.000 OA
BRANCH  16  19
ATOM     19  N   UNL     1       5.766   4.468  17.117  0.00  0.00    +0.000 NA
ATOM     20  C   UNL     1       7.067   4.766  17.737  0.00  0.00    +0.000 C 
ATOM     21  C   UNL     1       5.876   3.875  15.775  0.00  0.00    +0.000 C 
ENDBRANCH  16  19
ENDBRANCH  13  16
ENDBRANCH   6  10
BRANCH   1  22
ATOM     22  C   UNL     1      -2.056  12.780  20.635  0.00  0.00    +0.000 C 
ATOM     23  O   UNL     1      -1.538  13.833  20.272  0.00  0.00    +0.000 OA
BRANCH  22  24
ATOM     24  O   UNL     1      -3.396  12.528  20.610  0.00  0.00    +0.000 OA
BRANCH  24  26
ATOM     25  C   UNL     1      -4.856  12.949  22.457  0.00  0.00    +0.000 C 
ATOM     26  C   UNL     1      -4.229  13.531  21.201  0.00  0.00    +0.000 C 
ENDBRANCH  24  26
ENDBRANCH  22  24
ENDBRANCH   1  22
TORSDOF 6
ENDMDL
MODEL 8
REMARK VINA RESULT:      -6.7      2.357      9.327
REMARK  Name = 
REMARK  9 active torsions:
REMARK  status: ('A' for Active; 'I' for Inactive)
REMARK    1  A    between atoms: C_1  and  C_2
REMARK    2  A    between atoms: C_2  and  O_3
REMARK    3  A    between atoms: O_3  and  C_4
REMARK    4  A    between atoms: C_4  and  C_6
REMARK    5  A    between atoms: C_11  and  C_13
REMARK    6  A    between atoms: C_16  and  S_17
REMARK    7  A    between atoms: S_17  and  N_20
REMARK    8  A    between atoms: N_20  and  C_21
REMARK    9  A    between atoms: N_20  and  C_22
REMARK                            x       y       z     vdW  Elec       q    Type
REMARK                         _______ _______ _______ _____ _____    ______ ____
ROOT
ATOM      1  C   UNL     1      -1.542  11.796  20.814  0.00  0.00    +0.000 A 
ATOM      2  C   UNL     1      -1.478  11.677  22.192  0.00  0.00    +0.000 A 
ATOM      3  S   UNL     1      -0.473  10.353  22.626  0.00  0.00    +0.000 S 
ATOM      4  C   UNL     1      -0.118  10.110  20.976  0.00  0.00    +0.000 A 
ATOM      5  N   UNL     1       0.769   9.099  20.719  0.00  0.00    +0.000 N 
ATOM      6  C   UNL     1       1.279   8.921  19.451  0.00  0.00    +0.000 C 
ATOM      7  O   UNL     1       1.088   9.649  18.482  0.00  0.00    +0.000 OA
ATOM      8  N   UNL     1      -0.730  10.896  20.132  0.00  0.00    +0.000 NA
ATOM      9  H   UNL     1       1.007   8.504  21.493  0.00  0.00    +0.000 HD
ENDROOT
BRANCH   6  10
ATOM     10  C   UNL     1       2.145   7.726  19.236  0.00  0.00    +0.000 A 
ATOM     11  C   UNL     1       2.924   7.712  18.067  0.00  0.00    +0.000 A 
ATOM     12  C   UNL     1       3.744   6.626  17.766  0.00  0.00    +0.000 A 
ATOM     13  C   UNL     1       3.806   5.552  18.653  0.00  0.00    +0.000 A 
ATOM     14  C   UNL     1       3.044   5.555  19.831  0.00  0.00    +0.000 A 
ATOM     15  C   UNL     1       2.221   6.650  20.128  0.00  0.00    +0.000 A 
BRANCH  13  16
ATOM     16  S   UNL     1       4.776   4.118  18.222  0.00  0.00    +0.000 S 
ATOM     17  O   UNL     1       4.744   4.010  16.777  0.00  0.00    +0.000 OA
ATOM     18  O   UNL     1       6.030   4.215  18.936  0.00  0.00    +0.000 OA
BRANCH  16  19
ATOM     19  N   UNL     1       3.880   2.828  18.870  0.00  0.00    +0.000 NA
ATOM     20  C   UNL     1       3.201   1.936  17.916  0.00  0.00    +0.000 C 
ATOM     21  C   UNL     1       4.469   2.122  20.018  0.00  0.00    +0.000 C 
ENDBRANCH  16  19
ENDBRANCH  13  16
ENDBRANCH   6  10
BRANCH   1  22
ATOM     22  C   UNL     1      -2.425  12.731  20.119  0.00  0.00    +0.000 C 
ATOM     23  O   UNL     1      -2.326  13.951  20.229  0.00  0.00    +0.000 OA
BRANCH  22  24
ATOM     24  O   UNL     1      -3.424  12.096  19.441  0.00  0.00    +0.000 OA
BRANCH  24  26
ATOM     25  C   UNL     1      -3.672  10.345  17.831  0.00  0.00    +0.000 C 
ATOM     26  C   UNL     1      -3.130  11.741  18.086  0.00  0.00    +0.000 C 
ENDBRANCH  24  26
ENDBRANCH  22  24
ENDBRANCH   1  22
TORSDOF 6
ENDMDL
MODEL 9
REMARK VINA RESULT:      -6.7      1.211      1.685
REMARK  Name = 
REMARK  9 active torsions:
REMARK  status: ('A' for Active; 'I' for Inactive)
REMARK    1  A    between atoms: C_1  and  C_2
REMARK    2  A    between atoms: C_2  and  O_3
REMARK    3  A    between atoms: O_3  and  C_4
REMARK    4  A    between atoms: C_4  and  C_6
REMARK    5  A    between atoms: C_11  and  C_13
REMARK    6  A    between atoms: C_16  and  S_17
REMARK    7  A    between atoms: S_17  and  N_20
REMARK    8  A    between atoms: N_20  and  C_21
REMARK    9  A    between atoms: N_20  and  C_22
REMARK                            x       y       z     vdW  Elec       q    Type
REMARK                         _______ _______ _______ _____ _____    ______ ____
ROOT
ATOM      1  C   UNL     1       3.910   4.610  19.098  0.00  0.00    +0.000 A 
ATOM      2  C   UNL     1       3.332   3.659  19.924  0.00  0.00    +0.000 A 
ATOM      3  S   UNL     1       2.184   4.399  20.965  0.00  0.00    +0.000 S 
ATOM      4  C   UNL     1       2.459   5.886  20.176  0.00  0.00    +0.000 A 
ATOM      5  N   UNL     1       1.690   6.928  20.622  0.00  0.00    +0.000 N 
ATOM      6  C   UNL     1       1.682   8.130  19.948  0.00  0.00    +0.000 C 
ATOM      7  O   UNL     1       2.250   8.373  18.889  0.00  0.00    +0.000 OA
ATOM      8  N   UNL     1       3.373   5.884  19.245  0.00  0.00    +0.000 NA
ATOM      9  H   UNL     1       1.157   6.765  21.458  0.00  0.00    +0.000 HD
ENDROOT
BRANCH   6  10
ATOM     10  C   UNL     1       0.909   9.243  20.570  0.00  0.00    +0.000 A 
ATOM     11  C   UNL     1       0.636  10.355  19.755  0.00  0.00    +0.000 A 
ATOM     12  C   UNL     1      -0.056  11.457  20.256  0.00  0.00    +0.000 A 
ATOM     13  C   UNL     1      -0.502  11.439  21.577  0.00  0.00    +0.000 A 
ATOM     14  C   UNL     1      -0.250  10.332  22.400  0.00  0.00    +0.000 A 
ATOM     15  C   UNL     1       0.447   9.228  21.891  0.00  0.00    +0.000 A 
BRANCH  13  16
ATOM     16  S   UNL     1      -1.300  12.886  22.248  0.00  0.00    +0.000 S 
ATOM     17  O   UNL     1      -0.710  13.123  23.551  0.00  0.00    +0.000 OA
ATOM     18  O   UNL     1      -1.278  13.907  21.223  0.00  0.00    +0.000 OA
BRANCH  16  19
ATOM     19  N   UNL     1      -2.905  12.380  22.478  0.00  0.00    +0.000 NA
ATOM     20  C   UNL     1      -3.467  12.520  23.831  0.00  0.00    +0.000 C 
ATOM     21  C   UNL     1      -3.861  12.701  21.407  0.00  0.00    +0.000 C 
ENDBRANCH  16  19
ENDBRANCH  13  16
ENDBRANCH   6  10
BRANCH   1  22
ATOM     22  C   UNL     1       5.027   4.332  18.196  0.00  0.00    +0.000 C 
ATOM     23  O   UNL     1       6.161   4.078  18.596  0.00  0.00    +0.000 OA
BRANCH  22  24
ATOM     24  O   UNL     1       4.689   4.500  16.885  0.00  0.00    +0.000 OA
BRANCH  24  26
ATOM     25  C   UNL     1       6.012   4.941  14.943  0.00  0.00    +0.000 C 
ATOM     26  C   UNL     1       5.560   3.882  15.933  0.00  0.00    +0.000 C 
ENDBRANCH  24  26
ENDBRANCH  22  24
ENDBRANCH   1  22
TORSDOF 6
ENDMDL
