MODEL 1
REMARK VINA RESULT:      -8.4      0.000      0.000
REMARK  Name = 
REMARK  6 active torsions:
REMARK  status: ('A' for Active; 'I' for Inactive)
REMARK    1  A    between atoms: C_1  and  C_2
REMARK    2  A    between atoms: C_2  and  C_3
REMARK    3  A    between atoms: C_5  and  N_6
REMARK    4  A    between atoms: C_7  and  C_9
REMARK    5  A    between atoms: C_23  and  C_24
REMARK    6  A    between atoms: C_23  and  C_25
REMARK                            x       y       z     vdW  Elec       q    Type
REMARK                         _______ _______ _______ _____ _____    ______ ____
ROOT
ATOM      1  C   UNL     1       2.668   5.553  19.104  0.00  0.00    +0.000 A 
ATOM      2  C   UNL     1       2.625   6.963  19.032  0.00  0.00    +0.000 A 
ATOM      3  C   UNL     1       1.887   7.764  19.916  0.00  0.00    +0.000 A 
ATOM      4  C   UNL     1       1.143   7.125  20.908  0.00  0.00    +0.000 A 
ATOM      5  C   UNL     1       1.168   5.727  21.011  0.00  0.00    +0.000 A 
ATOM      6  C   UNL     1       1.931   4.959  20.127  0.00  0.00    +0.000 A 
ATOM      7  F   UNL     1       1.953   3.634  20.317  0.00  0.00    +0.000 F 
ENDROOT
BRANCH   1   9
ATOM      8  C   UNL     1       2.878   3.609  17.415  0.00  0.00    +0.000 C 
ATOM      9  C   UNL     1       3.578   4.793  18.119  0.00  0.00    +0.000 C 
ATOM     10  C   UNL     1       4.788   4.227  18.915  0.00  0.00    +0.000 C 
ATOM     11  O   UNL     1       6.110   4.639  18.620  0.00  0.00    +0.000 OA
ATOM     12  C   UNL     1       6.349   5.416  17.454  0.00  0.00    +0.000 C 
ATOM     13  C   UNL     1       7.169   6.595  18.005  0.00  0.00    +0.000 C 
ATOM     14  C   UNL     1       5.136   5.998  16.719  0.00  0.00    +0.000 C 
ATOM     15  N   UNL     1       5.297   6.905  15.701  0.00  0.00    +0.000 N 
ATOM     16  N   UNL     1       3.919   5.695  17.004  0.00  0.00    +0.000 NA
ATOM     17  H   UNL     1       6.125   6.871  15.117  0.00  0.00    +0.000 HD
ATOM     18  H   UNL     1       4.438   7.078  15.186  0.00  0.00    +0.000 HD
BRANCH  12  19
ATOM     19  C   UNL     1       7.182   4.616  16.419  0.00  0.00    +0.000 C 
ATOM     20  F   UNL     1       6.472   3.620  15.836  0.00  0.00    +0.000 F 
ATOM     21  F   UNL     1       7.650   5.388  15.406  0.00  0.00    +0.000 F 
ATOM     22  F   UNL     1       8.274   4.038  16.981  0.00  0.00    +0.000 F 
ENDBRANCH  12  19
ENDBRANCH   1   9
BRANCH   3  23
ATOM     23  N   UNL     1       1.873   9.178  19.846  0.00  0.00    +0.000 N 
ATOM     24  C   UNL     1       1.226   9.931  18.865  0.00  0.00    +0.000 C 
ATOM     25  O   UNL     1       0.633   9.483  17.892  0.00  0.00    +0.000 OA
ATOM     26  H   UNL     1       2.413   9.701  20.530  0.00  0.00    +0.000 HD
BRANCH  24  27
ATOM     27  C   UNL     1       1.344  11.417  18.974  0.00  0.00    +0.000 A 
ATOM     28  N   UNL     1       2.345  11.983  18.231  0.00  0.00    +0.000 NA
ATOM     29  C   UNL     1       2.307  13.337  18.111  0.00  0.00    +0.000 A 
ATOM     30  C   UNL     1       1.346  14.148  18.706  0.00  0.00    +0.000 A 
ATOM     31 CL   UNL     1       1.330  15.843  18.447  0.00  0.00    +0.000 Cl
ATOM     32  C   UNL     1       0.382  13.555  19.511  0.00  0.00    +0.000 A 
ATOM     33  C   UNL     1       0.378  12.167  19.661  0.00  0.00    +0.000 A 
ATOM     34 CL   UNL     1      -0.801  11.508  20.738  0.00  0.00    +0.000 Cl
ENDBRANCH  24  27
ENDBRANCH   3  23
TORSDOF 4
ENDMDL
MODEL 2
REMARK VINA RESULT:      -8.2      3.004      4.135
REMARK  Name = 
REMARK  6 active torsions:
REMARK  status: ('A' for Active; 'I' for Inactive)
REMARK    1  A    between atoms: C_1  and  C_2
REMARK    2  A    between atoms: C_2  and  C_3
REMARK    3  A    between atoms: C_5  and  N_6
REMARK    4  A    between atoms: C_7  and  C_9
REMARK    5  A    between atoms: C_23  and  C_24
REMARK    6  A    between atoms: C_23  and  C_25
REMARK                            x       y       z     vdW  Elec       q    Type
REMARK                         _______ _______ _______ _____ _____    ______ ____
ROOT
ATOM      1  C   UNL     1       2.311   7.199  19.155  0.00  0.00    +0.000 A 
ATOM      2  C   UNL     1       1.596   8.144  19.925  0.00  0.00    +0.000 A 
ATOM      3  C   UNL     1       1.374   9.468  19.519  0.00  0.00    +0.000 A 
ATOM      4  C   UNL     1       1.906   9.872  18.294  0.00  0.00    +0.000 A 
ATOM      5  C   UNL     1       2.616   8.958  17.503  0.00  0.00    +0.000 A 
ATOM      6  C   UNL     1       2.801   7.639  17.927  0.00  0.00    +0.000 A 
ATOM      7  F   UNL     1       3.440   6.805  17.098  0.00  0.00    +0.000 F 
ENDROOT
BRANCH   1   9
ATOM      8  C   UNL     1       1.683   5.522  21.018  0.00  0.00    +0.000 C 
ATOM      9  C   UNL     1       2.420   5.754  19.680  0.00  0.00    +0.000 C 
ATOM     10  C   UNL     1       3.925   5.432  19.903  0.00  0.00    +0.000 C 
ATOM     11  O   UNL     1       4.563   4.399  19.175  0.00  0.00    +0.000 OA
ATOM     12  C   UNL     1       3.774   3.516  18.388  0.00  0.00    +0.000 C 
ATOM     13  C   UNL     1       4.491   3.556  17.028  0.00  0.00    +0.000 C 
ATOM     14  C   UNL     1       2.306   3.888  18.149  0.00  0.00    +0.000 C 
ATOM     15  N   UNL     1       1.539   3.186  17.253  0.00  0.00    +0.000 N 
ATOM     16  N   UNL     1       1.712   4.861  18.745  0.00  0.00    +0.000 NA
ATOM     17  H   UNL     1       1.722   2.203  17.088  0.00  0.00    +0.000 HD
ATOM     18  H   UNL     1       0.551   3.415  17.315  0.00  0.00    +0.000 HD
BRANCH  12  19
ATOM     19  C   UNL     1       3.804   2.080  18.972  0.00  0.00    +0.000 C 
ATOM     20  F   UNL     1       3.887   1.128  18.011  0.00  0.00    +0.000 F 
ATOM     21  F   UNL     1       4.854   1.869  19.804  0.00  0.00    +0.000 F 
ATOM     22  F   UNL     1       2.691   1.803  19.699  0.00  0.00    +0.000 F 
ENDBRANCH  12  19
ENDBRANCH   1   9
BRANCH   3  23
ATOM     23  N   UNL     1       0.635  10.397  20.291  0.00  0.00    +0.000 N 
ATOM     24  C   UNL     1      -0.702  10.735  20.082  0.00  0.00    +0.000 C 
ATOM     25  O   UNL     1      -1.410  10.331  19.169  0.00  0.00    +0.000 OA
ATOM     26  H   UNL     1       1.117  10.902  21.030  0.00  0.00    +0.000 HD
BRANCH  24  27
ATOM     27  C   UNL     1      -1.291  11.748  21.011  0.00  0.00    +0.000 A 
ATOM     28  N   UNL     1      -1.778  12.879  20.414  0.00  0.00    +0.000 NA
ATOM     29  C   UNL     1      -2.542  13.686  21.199  0.00  0.00    +0.000 A 
ATOM     30  C   UNL     1      -2.822  13.437  22.539  0.00  0.00    +0.000 A 
ATOM     31 CL   UNL     1      -3.852  14.471  23.439  0.00  0.00    +0.000 Cl
ATOM     32  C   UNL     1      -2.257  12.319  23.138  0.00  0.00    +0.000 A 
ATOM     33  C   UNL     1      -1.469  11.458  22.372  0.00  0.00    +0.000 A 
ATOM     34 CL   UNL     1      -0.737  10.133  23.202  0.00  0.00    +0.000 Cl
ENDBRANCH  24  27
ENDBRANCH   3  23
TORSDOF 4
ENDMDL
MODEL 3
REMARK VINA RESULT:      -8.1      1.059      1.103
REMARK  Name = 
REMARK  6 active torsions:
REMARK  status: ('A' for Active; 'I' for Inactive)
REMARK    1  A    between atoms: C_1  and  C_2
REMARK    2  A    between atoms: C_2  and  C_3
REMARK    3  A    between atoms: C_5  and  N_6
REMARK    4  A    between atoms: C_7  and  C_9
REMARK    5  A    between atoms: C_23  and  C_24
REMARK    6  A    between atoms: C_23  and  C_25
REMARK                            x       y       z     vdW  Elec       q    Type
REMARK                         _______ _______ _______ _____ _____    ______ ____
ROOT
ATOM      1  C   UNL     1       2.733   5.485  19.156  0.00  0.00    +0.000 A 
ATOM      2  C   UNL     1       2.546   6.876  18.999  0.00  0.00    +0.000 A 
ATOM      3  C   UNL     1       1.810   7.666  19.894  0.00  0.00    +0.000 A 
ATOM      4  C   UNL     1       1.219   7.033  20.989  0.00  0.00    +0.000 A 
ATOM      5  C   UNL     1       1.390   5.655  21.177  0.00  0.00    +0.000 A 
ATOM      6  C   UNL     1       2.148   4.900  20.277  0.00  0.00    +0.000 A 
ATOM      7  F   UNL     1       2.316   3.599  20.547  0.00  0.00    +0.000 F 
ENDROOT
BRANCH   1   9
ATOM      8  C   UNL     1       2.929   3.548  17.457  0.00  0.00    +0.000 C 
ATOM      9  C   UNL     1       3.627   4.744  18.142  0.00  0.00    +0.000 C 
ATOM     10  C   UNL     1       4.872   4.200  18.900  0.00  0.00    +0.000 C 
ATOM     11  O   UNL     1       6.176   4.637  18.566  0.00  0.00    +0.000 OA
ATOM     12  C   UNL     1       6.365   5.420  17.394  0.00  0.00    +0.000 C 
ATOM     13  C   UNL     1       7.178   6.614  17.922  0.00  0.00    +0.000 C 
ATOM     14  C   UNL     1       5.119   5.980  16.698  0.00  0.00    +0.000 C 
ATOM     15  N   UNL     1       5.231   6.892  15.678  0.00  0.00    +0.000 N 
ATOM     16  N   UNL     1       3.917   5.654  17.019  0.00  0.00    +0.000 NA
ATOM     17  H   UNL     1       6.041   6.875  15.068  0.00  0.00    +0.000 HD
ATOM     18  H   UNL     1       4.354   7.049  15.190  0.00  0.00    +0.000 HD
BRANCH  12  19
ATOM     19  C   UNL     1       7.181   4.638  16.333  0.00  0.00    +0.000 C 
ATOM     20  F   UNL     1       6.459   3.657  15.739  0.00  0.00    +0.000 F 
ATOM     21  F   UNL     1       7.638   5.428  15.329  0.00  0.00    +0.000 F 
ATOM     22  F   UNL     1       8.278   4.045  16.869  0.00  0.00    +0.000 F 
ENDBRANCH  12  19
ENDBRANCH   1   9
BRANCH   3  23
ATOM     23  N   UNL     1       1.651   9.064  19.737  0.00  0.00    +0.000 N 
ATOM     24  C   UNL     1       0.605   9.821  20.266  0.00  0.00    +0.000 C 
ATOM     25  O   UNL     1      -0.356   9.383  20.884  0.00  0.00    +0.000 OA
ATOM     26  H   UNL     1       2.317   9.564  19.155  0.00  0.00    +0.000 HD
BRANCH  24  27
ATOM     27  C   UNL     1       0.623  11.288  19.973  0.00  0.00    +0.000 A 
ATOM     28  N   UNL     1       1.481  12.029  20.740  0.00  0.00    +0.000 NA
ATOM     29  C   UNL     1       1.704  13.304  20.323  0.00  0.00    +0.000 A 
ATOM     30  C   UNL     1       1.106  13.877  19.205  0.00  0.00    +0.000 A 
ATOM     31 CL   UNL     1       1.496  15.471  18.707  0.00  0.00    +0.000 Cl
ATOM     32  C   UNL     1       0.187  13.125  18.485  0.00  0.00    +0.000 A 
ATOM     33  C   UNL     1      -0.073  11.810  18.873  0.00  0.00    +0.000 A 
ATOM     34 CL   UNL     1      -1.283  10.962  17.978  0.00  0.00    +0.000 Cl
ENDBRANCH  24  27
ENDBRANCH   3  23
TORSDOF 4
ENDMDL
MODEL 4
REMARK VINA RESULT:      -8.1      2.835      4.245
REMARK  Name = 
REMARK  6 active torsions:
REMARK  status: ('A' for Active; 'I' for Inactive)
REMARK    1  A    between atoms: C_1  and  C_2
REMARK    2  A    between atoms: C_2  and  C_3
REMARK    3  A    between atoms: C_5  and  N_6
REMARK    4  A    between atoms: C_7  and  C_9
REMARK    5  A    between atoms: C_23  and  C_24
REMARK    6  A    between atoms: C_23  and  C_25
REMARK                            x       y       z     vdW  Elec       q    Type
REMARK                         _______ _______ _______ _____ _____    ______ ____
ROOT
ATOM      1  C   UNL     1       2.299   7.209  19.090  0.00  0.00    +0.000 A 
ATOM      2  C   UNL     1       1.490   8.132  19.790  0.00  0.00    +0.000 A 
ATOM      3  C   UNL     1       1.269   9.450  19.364  0.00  0.00    +0.000 A 
ATOM      4  C   UNL     1       1.900   9.872  18.193  0.00  0.00    +0.000 A 
ATOM      5  C   UNL     1       2.706   8.980  17.472  0.00  0.00    +0.000 A 
ATOM      6  C   UNL     1       2.888   7.666  17.912  0.00  0.00    +0.000 A 
ATOM      7  F   UNL     1       3.626   6.852  17.146  0.00  0.00    +0.000 F 
ENDROOT
BRANCH   1   9
ATOM      8  C   UNL     1       1.618   5.534  20.935  0.00  0.00    +0.000 C 
ATOM      9  C   UNL     1       2.401   5.767  19.623  0.00  0.00    +0.000 C 
ATOM     10  C   UNL     1       3.899   5.457  19.901  0.00  0.00    +0.000 C 
ATOM     11  O   UNL     1       4.571   4.427  19.200  0.00  0.00    +0.000 OA
ATOM     12  C   UNL     1       3.817   3.535  18.389  0.00  0.00    +0.000 C 
ATOM     13  C   UNL     1       4.582   3.576  17.055  0.00  0.00    +0.000 C 
ATOM     14  C   UNL     1       2.356   3.895  18.097  0.00  0.00    +0.000 C 
ATOM     15  N   UNL     1       1.626   3.184  17.176  0.00  0.00    +0.000 N 
ATOM     16  N   UNL     1       1.734   4.865  18.667  0.00  0.00    +0.000 NA
ATOM     17  H   UNL     1       1.823   2.202  17.021  0.00  0.00    +0.000 HD
ATOM     18  H   UNL     1       0.635   3.405  17.202  0.00  0.00    +0.000 HD
BRANCH  12  19
ATOM     19  C   UNL     1       3.837   2.102  18.979  0.00  0.00    +0.000 C 
ATOM     20  F   UNL     1       2.725   1.820  19.700  0.00  0.00    +0.000 F 
ATOM     21  F   UNL     1       3.922   1.139  18.027  0.00  0.00    +0.000 F 
ATOM     22  F   UNL     1       4.897   1.904  19.804  0.00  0.00    +0.000 F 
ENDBRANCH  12  19
ENDBRANCH   1   9
BRANCH   3  23
ATOM     23  N   UNL     1       0.435  10.356  20.063  0.00  0.00    +0.000 N 
ATOM     24  C   UNL     1       0.553  10.681  21.415  0.00  0.00    +0.000 C 
ATOM     25  O   UNL     1       1.346  10.187  22.205  0.00  0.00    +0.000 OA
ATOM     26  H   UNL     1      -0.346  10.775  19.567  0.00  0.00    +0.000 HD
BRANCH  24  27
ATOM     27  C   UNL     1      -0.439  11.659  21.959  0.00  0.00    +0.000 A 
ATOM     28  N   UNL     1      -1.493  11.110  22.638  0.00  0.00    +0.000 NA
ATOM     29  C   UNL     1      -2.257  11.977  23.355  0.00  0.00    +0.000 A 
ATOM     30  C   UNL     1      -2.040  13.351  23.409  0.00  0.00    +0.000 A 
ATOM     31 CL   UNL     1      -3.010  14.366  24.394  0.00  0.00    +0.000 Cl
ATOM     32  C   UNL     1      -1.006  13.890  22.655  0.00  0.00    +0.000 A 
ATOM     33  C   UNL     1      -0.192  13.039  21.906  0.00  0.00    +0.000 A 
ATOM     34 CL   UNL     1       1.023  13.787  20.933  0.00  0.00    +0.000 Cl
ENDBRANCH  24  27
ENDBRANCH   3  23
TORSDOF 4
ENDMDL
MODEL 5
REMARK VINA RESULT:      -7.8      4.606      6.628
REMARK  Name = 
REMARK  6 active torsions:
REMARK  status: ('A' for Active; 'I' for Inactive)
REMARK    1  A    between atoms: C_1  and  C_2
REMARK    2  A    between atoms: C_2  and  C_3
REMARK    3  A    between atoms: C_5  and  N_6
REMARK    4  A    between atoms: C_7  and  C_9
REMARK    5  A    between atoms: C_23  and  C_24
REMARK    6  A    between atoms: C_23  and  C_25
REMARK                            x       y       z     vdW  Elec       q    Type
REMARK                         _______ _______ _______ _____ _____    ______ ____
ROOT
ATOM      1  C   UNL     1       6.377   6.351  17.759  0.00  0.00    +0.000 A 
ATOM      2  C   UNL     1       6.705   7.700  17.499  0.00  0.00    +0.000 A 
ATOM      3  C   UNL     1       7.836   8.340  18.028  0.00  0.00    +0.000 A 
ATOM      4  C   UNL     1       8.669   7.602  18.869  0.00  0.00    +0.000 A 
ATOM      5  C   UNL     1       8.376   6.259  19.143  0.00  0.00    +0.000 A 
ATOM      6  C   UNL     1       7.252   5.645  18.583  0.00  0.00    +0.000 A 
ATOM      7  F   UNL     1       7.062   4.345  18.843  0.00  0.00    +0.000 F 
ENDROOT
BRANCH   1   9
ATOM      8  C   UNL     1       5.213   5.818  15.515  0.00  0.00    +0.000 C 
ATOM      9  C   UNL     1       5.147   5.744  17.057  0.00  0.00    +0.000 C 
ATOM     10  C   UNL     1       3.888   6.532  17.518  0.00  0.00    +0.000 C 
ATOM     11  O   UNL     1       2.844   5.888  18.223  0.00  0.00    +0.000 OA
ATOM     12  C   UNL     1       2.851   4.469  18.329  0.00  0.00    +0.000 C 
ATOM     13  C   UNL     1       2.661   4.250  19.839  0.00  0.00    +0.000 C 
ATOM     14  C   UNL     1       4.125   3.727  17.909  0.00  0.00    +0.000 C 
ATOM     15  N   UNL     1       4.272   2.385  18.156  0.00  0.00    +0.000 N 
ATOM     16  N   UNL     1       5.121   4.295  17.325  0.00  0.00    +0.000 NA
ATOM     17  H   UNL     1       3.459   1.780  18.175  0.00  0.00    +0.000 HD
ATOM     18  H   UNL     1       5.073   1.980  17.680  0.00  0.00    +0.000 HD
BRANCH  12  19
ATOM     19  C   UNL     1       1.669   3.851  17.539  0.00  0.00    +0.000 C 
ATOM     20  F   UNL     1       0.783   4.783  17.112  0.00  0.00    +0.000 F 
ATOM     21  F   UNL     1       2.068   3.175  16.432  0.00  0.00    +0.000 F 
ATOM     22  F   UNL     1       0.967   2.961  18.286  0.00  0.00    +0.000 F 
ENDBRANCH  12  19
ENDBRANCH   1   9
BRANCH   3  23
ATOM     23  N   UNL     1       8.164   9.687  17.739  0.00  0.00    +0.000 N 
ATOM     24  C   UNL     1       8.920  10.526  18.559  0.00  0.00    +0.000 C 
ATOM     25  O   UNL     1       9.353  10.245  19.669  0.00  0.00    +0.000 OA
ATOM     26  H   UNL     1       7.787  10.105  16.894  0.00  0.00    +0.000 HD
BRANCH  24  27
ATOM     27  C   UNL     1       9.145  11.920  18.066  0.00  0.00    +0.000 A 
ATOM     28  N   UNL     1       8.011  12.654  17.845  0.00  0.00    +0.000 NA
ATOM     29  C   UNL     1       8.192  13.988  17.650  0.00  0.00    +0.000 A 
ATOM     30  C   UNL     1       9.435  14.615  17.643  0.00  0.00    +0.000 A 
ATOM     31 CL   UNL     1       9.570  16.315  17.460  0.00  0.00    +0.000 Cl
ATOM     32  C   UNL     1      10.573  13.836  17.801  0.00  0.00    +0.000 A 
ATOM     33  C   UNL     1      10.437  12.462  18.007  0.00  0.00    +0.000 A 
ATOM     34 CL   UNL     1      11.897  11.547  18.117  0.00  0.00    +0.000 Cl
ENDBRANCH  24  27
ENDBRANCH   3  23
TORSDOF 4
ENDMDL
MODEL 6
REMARK VINA RESULT:      -7.8      1.241      1.407
REMARK  Name = 
REMARK  6 active torsions:
REMARK  status: ('A' for Active; 'I' for Inactive)
REMARK    1  A    between atoms: C_1  and  C_2
REMARK    2  A    between atoms: C_2  and  C_3
REMARK    3  A    between atoms: C_5  and  N_6
REMARK    4  A    between atoms: C_7  and  C_9
REMARK    5  A    between atoms: C_23  and  C_24
REMARK    6  A    between atoms: C_23  and  C_25
REMARK                            x       y       z     vdW  Elec       q    Type
REMARK                         _______ _______ _______ _____ _____    ______ ____
ROOT
ATOM      1  C   UNL     1       2.587   6.009  19.188  0.00  0.00    +0.000 A 
ATOM      2  C   UNL     1       2.408   7.378  18.890  0.00  0.00    +0.000 A 
ATOM      3  C   UNL     1       1.716   8.270  19.723  0.00  0.00    +0.000 A 
ATOM      4  C   UNL     1       1.162   7.765  20.901  0.00  0.00    +0.000 A 
ATOM      5  C   UNL     1       1.326   6.412  21.228  0.00  0.00    +0.000 A 
ATOM      6  C   UNL     1       2.040   5.555  20.386  0.00  0.00    +0.000 A 
ATOM      7  F   UNL     1       2.205   4.288  20.787  0.00  0.00    +0.000 F 
ENDROOT
BRANCH   1   9
ATOM      8  C   UNL     1       2.660   3.962  17.612  0.00  0.00    +0.000 C 
ATOM      9  C   UNL     1       3.432   5.151  18.226  0.00  0.00    +0.000 C 
ATOM     10  C   UNL     1       4.639   4.577  19.021  0.00  0.00    +0.000 C 
ATOM     11  O   UNL     1       5.968   4.909  18.668  0.00  0.00    +0.000 OA
ATOM     12  C   UNL     1       6.208   5.605  17.451  0.00  0.00    +0.000 C 
ATOM     13  C   UNL     1       7.096   6.774  17.909  0.00  0.00    +0.000 C 
ATOM     14  C   UNL     1       5.002   6.199  16.716  0.00  0.00    +0.000 C 
ATOM     15  N   UNL     1       5.173   7.037  15.642  0.00  0.00    +0.000 N 
ATOM     16  N   UNL     1       3.781   5.971  17.051  0.00  0.00    +0.000 NA
ATOM     17  H   UNL     1       5.981   6.931  15.039  0.00  0.00    +0.000 HD
ATOM     18  H   UNL     1       4.309   7.220  15.141  0.00  0.00    +0.000 HD
BRANCH  12  19
ATOM     19  C   UNL     1       6.974   4.708  16.444  0.00  0.00    +0.000 C 
ATOM     20  F   UNL     1       6.196   3.729  15.922  0.00  0.00    +0.000 F 
ATOM     21  F   UNL     1       7.467   5.401  15.387  0.00  0.00    +0.000 F 
ATOM     22  F   UNL     1       8.041   4.093  17.017  0.00  0.00    +0.000 F 
ENDBRANCH  12  19
ENDBRANCH   1   9
BRANCH   3  23
ATOM     23  N   UNL     1       1.565   9.645  19.423  0.00  0.00    +0.000 N 
ATOM     24  C   UNL     1       0.351  10.330  19.366  0.00  0.00    +0.000 C 
ATOM     25  O   UNL     1      -0.760   9.833  19.502  0.00  0.00    +0.000 OA
ATOM     26  H   UNL     1       2.394  10.180  19.181  0.00  0.00    +0.000 HD
BRANCH  24  27
ATOM     27  C   UNL     1       0.416  11.784  19.024  0.00  0.00    +0.000 A 
ATOM     28  N   UNL     1      -0.629  12.542  19.478  0.00  0.00    +0.000 NA
ATOM     29  C   UNL     1      -0.465  13.890  19.405  0.00  0.00    +0.000 A 
ATOM     30  C   UNL     1       0.667  14.512  18.888  0.00  0.00    +0.000 A 
ATOM     31 CL   UNL     1       0.824  16.221  18.897  0.00  0.00    +0.000 Cl
ATOM     32  C   UNL     1       1.683  13.720  18.370  0.00  0.00    +0.000 A 
ATOM     33  C   UNL     1       1.561  12.331  18.426  0.00  0.00    +0.000 A 
ATOM     34 CL   UNL     1       2.826  11.412  17.693  0.00  0.00    +0.000 Cl
ENDBRANCH  24  27
ENDBRANCH   3  23
TORSDOF 4
ENDMDL
MODEL 7
REMARK VINA RESULT:      -7.7      1.377      1.607
REMARK  Name = 
REMARK  6 active torsions:
REMARK  status: ('A' for Active; 'I' for Inactive)
REMARK    1  A    between atoms: C_1  and  C_2
REMARK    2  A    between atoms: C_2  and  C_3
REMARK    3  A    between atoms: C_5  and  N_6
REMARK    4  A    between atoms: C_7  and  C_9
REMARK    5  A    between atoms: C_23  and  C_24
REMARK    6  A    between atoms: C_23  and  C_25
REMARK                            x       y       z     vdW  Elec       q    Type
REMARK                         _______ _______ _______ _____ _____    ______ ____
ROOT
ATOM      1  C   UNL     1       2.574   6.187  19.239  0.00  0.00    +0.000 A 
ATOM      2  C   UNL     1       2.344   7.528  18.857  0.00  0.00    +0.000 A 
ATOM      3  C   UNL     1       1.635   8.449  19.643  0.00  0.00    +0.000 A 
ATOM      4  C   UNL     1       1.117   8.004  20.860  0.00  0.00    +0.000 A 
ATOM      5  C   UNL     1       1.331   6.681  21.271  0.00  0.00    +0.000 A 
ATOM      6  C   UNL     1       2.061   5.795  20.473  0.00  0.00    +0.000 A 
ATOM      7  F   UNL     1       2.274   4.562  20.952  0.00  0.00    +0.000 F 
ENDROOT
BRANCH   1   9
ATOM      8  C   UNL     1       2.679   4.069  17.764  0.00  0.00    +0.000 C 
ATOM      9  C   UNL     1       3.433   5.298  18.319  0.00  0.00    +0.000 C 
ATOM     10  C   UNL     1       4.647   4.780  19.141  0.00  0.00    +0.000 C 
ATOM     11  O   UNL     1       5.972   5.115  18.772  0.00  0.00    +0.000 OA
ATOM     12  C   UNL     1       6.202   5.755  17.523  0.00  0.00    +0.000 C 
ATOM     13  C   UNL     1       7.071   6.959  17.924  0.00  0.00    +0.000 C 
ATOM     14  C   UNL     1       4.987   6.294  16.760  0.00  0.00    +0.000 C 
ATOM     15  N   UNL     1       5.146   7.082  15.647  0.00  0.00    +0.000 N 
ATOM     16  N   UNL     1       3.769   6.064  17.106  0.00  0.00    +0.000 NA
ATOM     17  H   UNL     1       5.956   6.959  15.050  0.00  0.00    +0.000 HD
ATOM     18  H   UNL     1       4.279   7.227  15.138  0.00  0.00    +0.000 HD
BRANCH  12  19
ATOM     19  C   UNL     1       6.981   4.822  16.560  0.00  0.00    +0.000 C 
ATOM     20  F   UNL     1       7.994   4.166  17.176  0.00  0.00    +0.000 F 
ATOM     21  F   UNL     1       6.198   3.866  16.000  0.00  0.00    +0.000 F 
ATOM     22  F   UNL     1       7.533   5.505  15.524  0.00  0.00    +0.000 F 
ENDBRANCH  12  19
ENDBRANCH   1   9
BRANCH   3  23
ATOM     23  N   UNL     1       1.434   9.797  19.258  0.00  0.00    +0.000 N 
ATOM     24  C   UNL     1       1.077  10.836  20.118  0.00  0.00    +0.000 C 
ATOM     25  O   UNL     1       0.823  10.725  21.310  0.00  0.00    +0.000 OA
ATOM     26  H   UNL     1       1.505  10.033  18.273  0.00  0.00    +0.000 HD
BRANCH  24  27
ATOM     27  C   UNL     1       0.908  12.188  19.502  0.00  0.00    +0.000 A 
ATOM     28  N   UNL     1      -0.107  12.294  18.590  0.00  0.00    +0.000 NA
ATOM     29  C   UNL     1      -0.443  13.558  18.216  0.00  0.00    +0.000 A 
ATOM     30  C   UNL     1       0.189  14.706  18.683  0.00  0.00    +0.000 A 
ATOM     31 CL   UNL     1      -0.343  16.267  18.214  0.00  0.00    +0.000 Cl
ATOM     32  C   UNL     1       1.261  14.566  19.555  0.00  0.00    +0.000 A 
ATOM     33  C   UNL     1       1.641  13.288  19.970  0.00  0.00    +0.000 A 
ATOM     34 CL   UNL     1       3.029  13.186  20.992  0.00  0.00    +0.000 Cl
ENDBRANCH  24  27
ENDBRANCH   3  23
TORSDOF 4
ENDMDL
MODEL 8
REMARK VINA RESULT:      -7.7      0.778      1.042
REMARK  Name = 
REMARK  6 active torsions:
REMARK  status: ('A' for Active; 'I' for Inactive)
REMARK    1  A    between atoms: C_1  and  C_2
REMARK    2  A    between atoms: C_2  and  C_3
REMARK    3  A    between atoms: C_5  and  N_6
REMARK    4  A    between atoms: C_7  and  C_9
REMARK    5  A    between atoms: C_23  and  C_24
REMARK    6  A    between atoms: C_23  and  C_25
REMARK                            x       y       z     vdW  Elec       q    Type
REMARK                         _______ _______ _______ _____ _____    ______ ____
ROOT
ATOM      1  C   UNL     1       2.738   5.444  19.052  0.00  0.00    +0.000 A 
ATOM      2  C   UNL     1       2.610   6.848  18.960  0.00  0.00    +0.000 A 
ATOM      3  C   UNL     1       1.892   7.624  19.883  0.00  0.00    +0.000 A 
ATOM      4  C   UNL     1       1.258   6.964  20.936  0.00  0.00    +0.000 A 
ATOM      5  C   UNL     1       1.369   5.572  21.059  0.00  0.00    +0.000 A 
ATOM      6  C   UNL     1       2.111   4.831  20.134  0.00  0.00    +0.000 A 
ATOM      7  F   UNL     1       2.221   3.512  20.343  0.00  0.00    +0.000 F 
ENDROOT
BRANCH   1   9
ATOM      8  C   UNL     1       2.912   3.526  17.330  0.00  0.00    +0.000 C 
ATOM      9  C   UNL     1       3.617   4.717  18.016  0.00  0.00    +0.000 C 
ATOM     10  C   UNL     1       4.876   4.169  18.748  0.00  0.00    +0.000 C 
ATOM     11  O   UNL     1       6.172   4.614  18.398  0.00  0.00    +0.000 OA
ATOM     12  C   UNL     1       6.340   5.410  17.231  0.00  0.00    +0.000 C 
ATOM     13  C   UNL     1       7.159   6.601  17.759  0.00  0.00    +0.000 C 
ATOM     14  C   UNL     1       5.082   5.973  16.561  0.00  0.00    +0.000 C 
ATOM     15  N   UNL     1       5.175   6.896  15.549  0.00  0.00    +0.000 N 
ATOM     16  N   UNL     1       3.886   5.641  16.898  0.00  0.00    +0.000 NA
ATOM     17  H   UNL     1       5.976   6.888  14.927  0.00  0.00    +0.000 HD
ATOM     18  H   UNL     1       4.290   7.056  15.077  0.00  0.00    +0.000 HD
BRANCH  12  19
ATOM     19  C   UNL     1       7.142   4.642  16.149  0.00  0.00    +0.000 C 
ATOM     20  F   UNL     1       7.567   5.447  15.146  0.00  0.00    +0.000 F 
ATOM     21  F   UNL     1       8.251   4.036  16.642  0.00  0.00    +0.000 F 
ATOM     22  F   UNL     1       6.405   3.658  15.572  0.00  0.00    +0.000 F 
ENDBRANCH  12  19
ENDBRANCH   1   9
BRANCH   3  23
ATOM     23  N   UNL     1       1.792   9.034  19.792  0.00  0.00    +0.000 N 
ATOM     24  C   UNL     1       0.644   9.779  20.060  0.00  0.00    +0.000 C 
ATOM     25  O   UNL     1      -0.456   9.326  20.347  0.00  0.00    +0.000 OA
ATOM     26  H   UNL     1       2.599   9.554  19.461  0.00  0.00    +0.000 HD
BRANCH  24  27
ATOM     27  C   UNL     1       0.753  11.262  19.894  0.00  0.00    +0.000 A 
ATOM     28  N   UNL     1       1.474  11.680  18.808  0.00  0.00    +0.000 NA
ATOM     29  C   UNL     1       1.369  12.999  18.495  0.00  0.00    +0.000 A 
ATOM     30  C   UNL     1       0.610  13.916  19.215  0.00  0.00    +0.000 A 
ATOM     31 CL   UNL     1       0.477  15.550  18.711  0.00  0.00    +0.000 Cl
ATOM     32  C   UNL     1      -0.055  13.479  20.353  0.00  0.00    +0.000 A 
ATOM     33  C   UNL     1       0.019  12.133  20.713  0.00  0.00    +0.000 A 
ATOM     34 CL   UNL     1      -0.769  11.678  22.181  0.00  0.00    +0.000 Cl
ENDBRANCH  24  27
ENDBRANCH   3  23
TORSDOF 4
ENDMDL
MODEL 9
REMARK VINA RESULT:      -7.5      5.059      8.705
REMARK  Name = 
REMARK  6 active torsions:
REMARK  status: ('A' for Active; 'I' for Inactive)
REMARK    1  A    between atoms: C_1  and  C_2
REMARK    2  A    between atoms: C_2  and  C_3
REMARK    3  A    between atoms: C_5  and  N_6
REMARK    4  A    between atoms: C_7  and  C_9
REMARK    5  A    between atoms: C_23  and  C_24
REMARK    6  A    between atoms: C_23  and  C_25
REMARK                            x       y       z     vdW  Elec       q    Type
REMARK                         _______ _______ _______ _____ _____    ______ ____
ROOT
ATOM      1  C   UNL     1       1.168   9.219  19.521  0.00  0.00    +0.000 A 
ATOM      2  C   UNL     1       2.010   8.554  18.602  0.00  0.00    +0.000 A 
ATOM      3  C   UNL     1       2.565   7.287  18.836  0.00  0.00    +0.000 A 
ATOM      4  C   UNL     1       2.279   6.663  20.051  0.00  0.00    +0.000 A 
ATOM      5  C   UNL     1       1.443   7.294  20.982  0.00  0.00    +0.000 A 
ATOM      6  C   UNL     1       0.888   8.548  20.710  0.00  0.00    +0.000 A 
ATOM      7  F   UNL     1       0.055   9.068  21.620  0.00  0.00    +0.000 F 
ENDROOT
BRANCH   1   9
ATOM      8  C   UNL     1      -0.703  10.452  18.233  0.00  0.00    +0.000 C 
ATOM      9  C   UNL     1       0.561  10.576  19.113  0.00  0.00    +0.000 C 
ATOM     10  C   UNL     1       1.631  11.361  18.301  0.00  0.00    +0.000 C 
ATOM     11  O   UNL     1       2.137  12.597  18.769  0.00  0.00    +0.000 OA
ATOM     12  C   UNL     1       1.512  13.225  19.882  0.00  0.00    +0.000 C 
ATOM     13  C   UNL     1       2.705  13.525  20.805  0.00  0.00    +0.000 C 
ATOM     14  C   UNL     1       0.496  12.408  20.688  0.00  0.00    +0.000 C 
ATOM     15  N   UNL     1      -0.005  12.880  21.875  0.00  0.00    +0.000 N 
ATOM     16  N   UNL     1       0.064  11.252  20.325  0.00  0.00    +0.000 NA
ATOM     17  H   UNL     1      -0.105  13.878  22.023  0.00  0.00    +0.000 HD
ATOM     18  H   UNL     1      -0.790  12.333  22.219  0.00  0.00    +0.000 HD
BRANCH  12  19
ATOM     19  C   UNL     1       0.816  14.543  19.453  0.00  0.00    +0.000 C 
ATOM     20  F   UNL     1      -0.467  14.351  19.060  0.00  0.00    +0.000 F 
ATOM     21  F   UNL     1       0.771  15.465  20.447  0.00  0.00    +0.000 F 
ATOM     22  F   UNL     1       1.455  15.143  18.416  0.00  0.00    +0.000 F 
ENDBRANCH  12  19
ENDBRANCH   1   9
BRANCH   3  23
ATOM     23  N   UNL     1       3.388   6.621  17.895  0.00  0.00    +0.000 N 
ATOM     24  C   UNL     1       4.489   5.824  18.209  0.00  0.00    +0.000 C 
ATOM     25  O   UNL     1       4.942   5.636  19.330  0.00  0.00    +0.000 OA
ATOM     26  H   UNL     1       3.203   6.764  16.906  0.00  0.00    +0.000 HD
BRANCH  24  27
ATOM     27  C   UNL     1       5.228   5.218  17.059  0.00  0.00    +0.000 A 
ATOM     28  N   UNL     1       4.598   4.170  16.443  0.00  0.00    +0.000 NA
ATOM     29  C   UNL     1       5.120   3.777  15.250  0.00  0.00    +0.000 A 
ATOM     30  C   UNL     1       6.239   4.356  14.659  0.00  0.00    +0.000 A 
ATOM     31 CL   UNL     1       6.792   3.846  13.117  0.00  0.00    +0.000 Cl
ATOM     32  C   UNL     1       6.900   5.370  15.338  0.00  0.00    +0.000 A 
ATOM     33  C   UNL     1       6.399   5.810  16.564  0.00  0.00    +0.000 A 
ATOM     34 CL   UNL     1       7.316   7.020  17.387  0.00  0.00    +0.000 Cl
ENDBRANCH  24  27
ENDBRANCH   3  23
TORSDOF 4
ENDMDL
