MODEL 1
REMARK VINA RESULT:      -7.4      0.000      0.000
REMARK  Name = 
REMARK  5 active torsions:
REMARK  status: ('A' for Active; 'I' for Inactive)
REMARK    1  A    between atoms: C_7  and  C_8
REMARK    2  A    between atoms: C_8  and  N_9
REMARK    3  A    between atoms: C_11  and  C_12
REMARK    4  A    between atoms: C_12  and  S_13
REMARK    5  A    between atoms: S_13  and  C_14
REMARK                            x       y       z     vdW  Elec       q    Type
REMARK                         _______ _______ _______ _____ _____    ______ ____
ROOT
ATOM      1  N   UNL     1       1.706   5.610  20.771  0.00  0.00    +0.000 N 
ATOM      2  C   UNL     1       2.827   4.847  20.914  0.00  0.00    +0.000 A 
ATOM      3  C   UNL     1       2.497   3.657  20.302  0.00  0.00    +0.000 A 
ATOM      4  N   UNL     1       1.177   3.698  19.928  0.00  0.00    +0.000 NA
ATOM      5  N   UNL     1       0.696   4.894  20.241  0.00  0.00    +0.000 NA
ENDROOT
BRANCH   1   6
ATOM      6  C   UNL     1       1.501   6.992  21.163  0.00  0.00    +0.000 C 
BRANCH   6  13
ATOM      7 BR   UNL     1      -0.039   9.895  21.354  0.00  0.00    +0.000 Br
ATOM      8  C   UNL     1       1.027   9.207  19.940  0.00  0.00    +0.000 A 
ATOM      9  C   UNL     1       1.170  10.021  18.809  0.00  0.00    +0.000 A 
ATOM     10  C   UNL     1       1.939   9.599  17.727  0.00  0.00    +0.000 A 
ATOM     11  C   UNL     1       2.582   8.366  17.779  0.00  0.00    +0.000 A 
ATOM     12  C   UNL     1       2.439   7.552  18.904  0.00  0.00    +0.000 A 
ATOM     13  C   UNL     1       1.644   7.946  19.998  0.00  0.00    +0.000 A 
ENDBRANCH   6  13
ENDBRANCH   1   6
BRANCH   3  14
ATOM     14  C   UNL     1       3.347   2.474  20.001  0.00  0.00    +0.000 C 
BRANCH  14  15
ATOM     15  S   UNL     1       3.637   2.394  18.208  0.00  0.00    +0.000 S 
BRANCH  15  16
ATOM     16  C   UNL     1       4.762   3.709  17.991  0.00  0.00    +0.000 A 
ATOM     17  N   UNL     1       5.817   3.867  18.756  0.00  0.00    +0.000 NA
ATOM     18  C   UNL     1       6.451   5.054  18.428  0.00  0.00    +0.000 A 
ATOM     19  C   UNL     1       7.586   5.591  19.070  0.00  0.00    +0.000 A 
ATOM     20  C   UNL     1       8.079   6.841  18.680  0.00  0.00    +0.000 A 
ATOM     21  C   UNL     1       7.475   7.548  17.645  0.00  0.00    +0.000 A 
ATOM     22  C   UNL     1       6.371   7.021  16.966  0.00  0.00    +0.000 A 
ATOM     23  C   UNL     1       5.871   5.776  17.382  0.00  0.00    +0.000 A 
ATOM     24  S   UNL     1       4.519   4.898  16.783  0.00  0.00    +0.000 S 
ENDBRANCH  15  16
ENDBRANCH  14  15
ENDBRANCH   3  14
TORSDOF 5
ENDMDL
MODEL 2
REMARK VINA RESULT:      -6.8      4.696      8.577
REMARK  Name = 
REMARK  5 active torsions:
REMARK  status: ('A' for Active; 'I' for Inactive)
REMARK    1  A    between atoms: C_7  and  C_8
REMARK    2  A    between atoms: C_8  and  N_9
REMARK    3  A    between atoms: C_11  and  C_12
REMARK    4  A    between atoms: C_12  and  S_13
REMARK    5  A    between atoms: S_13  and  C_14
REMARK                            x       y       z     vdW  Elec       q    Type
REMARK                         _______ _______ _______ _____ _____    ______ ____
ROOT
ATOM      1  N   UNL     1       2.489   7.023  19.686  0.00  0.00    +0.000 N 
ATOM      2  C   UNL     1       2.386   7.691  18.502  0.00  0.00    +0.000 A 
ATOM      3  C   UNL     1       1.656   8.816  18.821  0.00  0.00    +0.000 A 
ATOM      4  N   UNL     1       1.248   8.729  20.128  0.00  0.00    +0.000 NA
ATOM      5  N   UNL     1       1.747   7.612  20.643  0.00  0.00    +0.000 NA
ENDROOT
BRANCH   1   6
ATOM      6  C   UNL     1       3.217   5.799  19.969  0.00  0.00    +0.000 C 
BRANCH   6  13
ATOM      7 BR   UNL     1       4.175   4.418  17.139  0.00  0.00    +0.000 Br
ATOM      8  C   UNL     1       2.768   3.891  18.300  0.00  0.00    +0.000 A 
ATOM      9  C   UNL     1       2.010   2.781  17.904  0.00  0.00    +0.000 A 
ATOM     10  C   UNL     1       0.962   2.322  18.699  0.00  0.00    +0.000 A 
ATOM     11  C   UNL     1       0.677   2.961  19.900  0.00  0.00    +0.000 A 
ATOM     12  C   UNL     1       1.429   4.069  20.296  0.00  0.00    +0.000 A 
ATOM     13  C   UNL     1       2.475   4.568  19.496  0.00  0.00    +0.000 A 
ENDBRANCH   6  13
ENDBRANCH   1   6
BRANCH   3  14
ATOM     14  C   UNL     1       1.333  10.008  17.991  0.00  0.00    +0.000 C 
BRANCH  14  15
ATOM     15  S   UNL     1       0.952  11.407  19.087  0.00  0.00    +0.000 S 
BRANCH  15  16
ATOM     16  C   UNL     1      -0.784  11.488  18.938  0.00  0.00    +0.000 A 
ATOM     17  N   UNL     1      -1.417  11.094  17.857  0.00  0.00    +0.000 NA
ATOM     18  C   UNL     1      -2.765  11.388  17.980  0.00  0.00    +0.000 A 
ATOM     19  C   UNL     1      -3.752  11.166  16.998  0.00  0.00    +0.000 A 
ATOM     20  C   UNL     1      -5.069  11.581  17.229  0.00  0.00    +0.000 A 
ATOM     21  C   UNL     1      -5.417  12.187  18.432  0.00  0.00    +0.000 A 
ATOM     22  C   UNL     1      -4.465  12.384  19.438  0.00  0.00    +0.000 A 
ATOM     23  C   UNL     1      -3.143  11.985  19.185  0.00  0.00    +0.000 A 
ATOM     24  S   UNL     1      -1.756  12.132  20.191  0.00  0.00    +0.000 S 
ENDBRANCH  15  16
ENDBRANCH  14  15
ENDBRANCH   3  14
TORSDOF 5
ENDMDL
MODEL 3
REMARK VINA RESULT:      -6.8      1.336      1.856
REMARK  Name = 
REMARK  5 active torsions:
REMARK  status: ('A' for Active; 'I' for Inactive)
REMARK    1  A    between atoms: C_7  and  C_8
REMARK    2  A    between atoms: C_8  and  N_9
REMARK    3  A    between atoms: C_11  and  C_12
REMARK    4  A    between atoms: C_12  and  S_13
REMARK    5  A    between atoms: S_13  and  C_14
REMARK                            x       y       z     vdW  Elec       q    Type
REMARK                         _______ _______ _______ _____ _____    ______ ____
ROOT
ATOM      1  N   UNL     1       2.252   6.808  19.286  0.00  0.00    +0.000 N 
ATOM      2  C   UNL     1       2.332   5.941  18.236  0.00  0.00    +0.000 A 
ATOM      3  C   UNL     1       1.932   4.736  18.773  0.00  0.00    +0.000 A 
ATOM      4  N   UNL     1       1.747   4.888  20.125  0.00  0.00    +0.000 NA
ATOM      5  N   UNL     1       1.968   6.160  20.431  0.00  0.00    +0.000 NA
ENDROOT
BRANCH   1   6
ATOM      6  C   UNL     1       2.487   8.240  19.290  0.00  0.00    +0.000 C 
BRANCH   6  13
ATOM      7 BR   UNL     1       1.087   9.171  22.119  0.00  0.00    +0.000 Br
ATOM      8  C   UNL     1       0.490   9.477  20.342  0.00  0.00    +0.000 A 
ATOM      9  C   UNL     1      -0.719  10.171  20.196  0.00  0.00    +0.000 A 
ATOM     10  C   UNL     1      -1.228  10.445  18.929  0.00  0.00    +0.000 A 
ATOM     11  C   UNL     1      -0.522  10.039  17.801  0.00  0.00    +0.000 A 
ATOM     12  C   UNL     1       0.681   9.345  17.944  0.00  0.00    +0.000 A 
ATOM     13  C   UNL     1       1.201   9.033  19.214  0.00  0.00    +0.000 A 
ENDBRANCH   6  13
ENDBRANCH   1   6
BRANCH   3  14
ATOM     14  C   UNL     1       1.669   3.436  18.101  0.00  0.00    +0.000 C 
BRANCH  14  15
ATOM     15  S   UNL     1       3.084   2.328  18.380  0.00  0.00    +0.000 S 
BRANCH  15  16
ATOM     16  C   UNL     1       4.421   3.415  18.110  0.00  0.00    +0.000 A 
ATOM     17  N   UNL     1       5.186   3.846  19.086  0.00  0.00    +0.000 NA
ATOM     18  C   UNL     1       6.079   4.783  18.592  0.00  0.00    +0.000 A 
ATOM     19  C   UNL     1       7.020   5.508  19.350  0.00  0.00    +0.000 A 
ATOM     20  C   UNL     1       7.812   6.481  18.730  0.00  0.00    +0.000 A 
ATOM     21  C   UNL     1       7.697   6.719  17.364  0.00  0.00    +0.000 A 
ATOM     22  C   UNL     1       6.798   5.987  16.582  0.00  0.00    +0.000 A 
ATOM     23  C   UNL     1       5.991   5.031  17.220  0.00  0.00    +0.000 A 
ATOM     24  S   UNL     1       4.777   4.016  16.547  0.00  0.00    +0.000 S 
ENDBRANCH  15  16
ENDBRANCH  14  15
ENDBRANCH   3  14
TORSDOF 5
ENDMDL
MODEL 4
REMARK VINA RESULT:      -6.7      4.516      7.365
REMARK  Name = 
REMARK  5 active torsions:
REMARK  status: ('A' for Active; 'I' for Inactive)
REMARK    1  A    between atoms: C_7  and  C_8
REMARK    2  A    between atoms: C_8  and  N_9
REMARK    3  A    between atoms: C_11  and  C_12
REMARK    4  A    between atoms: C_12  and  S_13
REMARK    5  A    between atoms: S_13  and  C_14
REMARK                            x       y       z     vdW  Elec       q    Type
REMARK                         _______ _______ _______ _____ _____    ______ ____
ROOT
ATOM      1  N   UNL     1       8.781   9.529  18.802  0.00  0.00    +0.000 N 
ATOM      2  C   UNL     1       8.627   8.175  18.822  0.00  0.00    +0.000 A 
ATOM      3  C   UNL     1       7.784   7.924  17.761  0.00  0.00    +0.000 A 
ATOM      4  N   UNL     1       7.370   9.118  17.225  0.00  0.00    +0.000 NA
ATOM      5  N   UNL     1       7.972  10.098  17.887  0.00  0.00    +0.000 NA
ENDROOT
BRANCH   1   6
ATOM      6  C   UNL     1       9.623  10.353  19.651  0.00  0.00    +0.000 C 
BRANCH   6  13
ATOM      7 BR   UNL     1       8.732  13.153  21.132  0.00  0.00    +0.000 Br
ATOM      8  C   UNL     1       9.675  12.921  19.500  0.00  0.00    +0.000 A 
ATOM      9  C   UNL     1      10.027  14.088  18.808  0.00  0.00    +0.000 A 
ATOM     10  C   UNL     1      10.726  14.012  17.605  0.00  0.00    +0.000 A 
ATOM     11  C   UNL     1      11.089  12.769  17.097  0.00  0.00    +0.000 A 
ATOM     12  C   UNL     1      10.737  11.605  17.783  0.00  0.00    +0.000 A 
ATOM     13  C   UNL     1      10.007  11.656  18.986  0.00  0.00    +0.000 A 
ENDBRANCH   6  13
ENDBRANCH   1   6
BRANCH   3  14
ATOM     14  C   UNL     1       7.355   6.626  17.173  0.00  0.00    +0.000 C 
BRANCH  14  15
ATOM     15  S   UNL     1       7.326   5.364  18.482  0.00  0.00    +0.000 S 
BRANCH  15  16
ATOM     16  C   UNL     1       5.620   5.010  18.571  0.00  0.00    +0.000 A 
ATOM     17  N   UNL     1       4.910   5.236  19.652  0.00  0.00    +0.000 NA
ATOM     18  C   UNL     1       3.626   4.747  19.469  0.00  0.00    +0.000 A 
ATOM     19  C   UNL     1       2.595   4.756  20.430  0.00  0.00    +0.000 A 
ATOM     20  C   UNL     1       1.364   4.159  20.134  0.00  0.00    +0.000 A 
ATOM     21  C   UNL     1       1.141   3.581  18.888  0.00  0.00    +0.000 A 
ATOM     22  C   UNL     1       2.135   3.593  17.904  0.00  0.00    +0.000 A 
ATOM     23  C   UNL     1       3.374   4.173  18.221  0.00  0.00    +0.000 A 
ATOM     24  S   UNL     1       4.789   4.302  17.253  0.00  0.00    +0.000 S 
ENDBRANCH  15  16
ENDBRANCH  14  15
ENDBRANCH   3  14
TORSDOF 5
ENDMDL
MODEL 5
REMARK VINA RESULT:      -6.7      4.775      8.736
REMARK  Name = 
REMARK  5 active torsions:
REMARK  status: ('A' for Active; 'I' for Inactive)
REMARK    1  A    between atoms: C_7  and  C_8
REMARK    2  A    between atoms: C_8  and  N_9
REMARK    3  A    between atoms: C_11  and  C_12
REMARK    4  A    between atoms: C_12  and  S_13
REMARK    5  A    between atoms: S_13  and  C_14
REMARK                            x       y       z     vdW  Elec       q    Type
REMARK                         _______ _______ _______ _____ _____    ______ ____
ROOT
ATOM      1  N   UNL     1       2.648   6.999  19.356  0.00  0.00    +0.000 N 
ATOM      2  C   UNL     1       2.332   7.772  18.279  0.00  0.00    +0.000 A 
ATOM      3  C   UNL     1       1.591   8.802  18.818  0.00  0.00    +0.000 A 
ATOM      4  N   UNL     1       1.386   8.554  20.153  0.00  0.00    +0.000 NA
ATOM      5  N   UNL     1       2.022   7.433  20.467  0.00  0.00    +0.000 NA
ENDROOT
BRANCH   1   6
ATOM      6  C   UNL     1       3.482   5.811  19.398  0.00  0.00    +0.000 C 
BRANCH   6  13
ATOM      7 BR   UNL     1       4.358   3.905  16.863  0.00  0.00    +0.000 Br
ATOM      8  C   UNL     1       2.943   3.652  18.105  0.00  0.00    +0.000 A 
ATOM      9  C   UNL     1       2.140   2.519  17.919  0.00  0.00    +0.000 A 
ATOM     10  C   UNL     1       1.083   2.252  18.787  0.00  0.00    +0.000 A 
ATOM     11  C   UNL     1       0.836   3.110  19.854  0.00  0.00    +0.000 A 
ATOM     12  C   UNL     1       1.633   4.240  20.040  0.00  0.00    +0.000 A 
ATOM     13  C   UNL     1       2.689   4.545  19.159  0.00  0.00    +0.000 A 
ENDBRANCH   6  13
ENDBRANCH   1   6
BRANCH   3  14
ATOM     14  C   UNL     1       1.079  10.043  18.178  0.00  0.00    +0.000 C 
BRANCH  14  15
ATOM     15  S   UNL     1       0.500  11.182  19.471  0.00  0.00    +0.000 S 
BRANCH  15  16
ATOM     16  C   UNL     1      -1.164  11.407  19.001  0.00  0.00    +0.000 A 
ATOM     17  N   UNL     1      -2.022  12.068  19.743  0.00  0.00    +0.000 NA
ATOM     18  C   UNL     1      -3.284  11.978  19.179  0.00  0.00    +0.000 A 
ATOM     19  C   UNL     1      -4.471  12.513  19.719  0.00  0.00    +0.000 A 
ATOM     20  C   UNL     1      -5.693  12.282  19.077  0.00  0.00    +0.000 A 
ATOM     21  C   UNL     1      -5.742  11.552  17.894  0.00  0.00    +0.000 A 
ATOM     22  C   UNL     1      -4.575  11.044  17.316  0.00  0.00    +0.000 A 
ATOM     23  C   UNL     1      -3.358  11.261  17.982  0.00  0.00    +0.000 A 
ATOM     24  S   UNL     1      -1.779  10.731  17.553  0.00  0.00    +0.000 S 
ENDBRANCH  15  16
ENDBRANCH  14  15
ENDBRANCH   3  14
TORSDOF 5
ENDMDL
MODEL 6
REMARK VINA RESULT:      -6.6      4.265      8.022
REMARK  Name = 
REMARK  5 active torsions:
REMARK  status: ('A' for Active; 'I' for Inactive)
REMARK    1  A    between atoms: C_7  and  C_8
REMARK    2  A    between atoms: C_8  and  N_9
REMARK    3  A    between atoms: C_11  and  C_12
REMARK    4  A    between atoms: C_12  and  S_13
REMARK    5  A    between atoms: S_13  and  C_14
REMARK                            x       y       z     vdW  Elec       q    Type
REMARK                         _______ _______ _______ _____ _____    ______ ____
ROOT
ATOM      1  N   UNL     1       2.932   6.169  19.680  0.00  0.00    +0.000 N 
ATOM      2  C   UNL     1       2.909   7.018  18.614  0.00  0.00    +0.000 A 
ATOM      3  C   UNL     1       2.123   8.065  19.044  0.00  0.00    +0.000 A 
ATOM      4  N   UNL     1       1.610   7.761  20.281  0.00  0.00    +0.000 NA
ATOM      5  N   UNL     1       2.096   6.584  20.651  0.00  0.00    +0.000 NA
ENDROOT
BRANCH   1   6
ATOM      6  C   UNL     1       3.669   4.926  19.826  0.00  0.00    +0.000 C 
BRANCH   6  13
ATOM      7 BR   UNL     1       2.787   3.350  17.075  0.00  0.00    +0.000 Br
ATOM      8  C   UNL     1       4.479   4.082  17.534  0.00  0.00    +0.000 A 
ATOM      9  C   UNL     1       5.508   3.919  16.597  0.00  0.00    +0.000 A 
ATOM     10  C   UNL     1       6.779   4.430  16.848  0.00  0.00    +0.000 A 
ATOM     11  C   UNL     1       7.022   5.119  18.031  0.00  0.00    +0.000 A 
ATOM     12  C   UNL     1       5.999   5.281  18.967  0.00  0.00    +0.000 A 
ATOM     13  C   UNL     1       4.714   4.749  18.747  0.00  0.00    +0.000 A 
ENDBRANCH   6  13
ENDBRANCH   1   6
BRANCH   3  14
ATOM     14  C   UNL     1       1.836   9.370  18.391  0.00  0.00    +0.000 C 
BRANCH  14  15
ATOM     15  S   UNL     1       0.924  10.428  19.555  0.00  0.00    +0.000 S 
BRANCH  15  16
ATOM     16  C   UNL     1      -0.617  10.565  18.747  0.00  0.00    +0.000 A 
ATOM     17  N   UNL     1      -0.873   9.958  17.612  0.00  0.00    +0.000 NA
ATOM     18  C   UNL     1      -2.121  10.346  17.153  0.00  0.00    +0.000 A 
ATOM     19  C   UNL     1      -2.716   9.948  15.939  0.00  0.00    +0.000 A 
ATOM     20  C   UNL     1      -3.956  10.479  15.565  0.00  0.00    +0.000 A 
ATOM     21  C   UNL     1      -4.620  11.375  16.397  0.00  0.00    +0.000 A 
ATOM     22  C   UNL     1      -4.070  11.756  17.625  0.00  0.00    +0.000 A 
ATOM     23  C   UNL     1      -2.814  11.236  17.977  0.00  0.00    +0.000 A 
ATOM     24  S   UNL     1      -1.869  11.545  19.381  0.00  0.00    +0.000 S 
ENDBRANCH  15  16
ENDBRANCH  14  15
ENDBRANCH   3  14
TORSDOF 5
ENDMDL
MODEL 7
REMARK VINA RESULT:      -6.6      4.553      8.418
REMARK  Name = 
REMARK  5 active torsions:
REMARK  status: ('A' for Active; 'I' for Inactive)
REMARK    1  A    between atoms: C_7  and  C_8
REMARK    2  A    between atoms: C_8  and  N_9
REMARK    3  A    between atoms: C_11  and  C_12
REMARK    4  A    between atoms: C_12  and  S_13
REMARK    5  A    between atoms: S_13  and  C_14
REMARK                            x       y       z     vdW  Elec       q    Type
REMARK                         _______ _______ _______ _____ _____    ______ ____
ROOT
ATOM      1  N   UNL     1       2.466   7.115  19.572  0.00  0.00    +0.000 N 
ATOM      2  C   UNL     1       2.175   7.817  18.440  0.00  0.00    +0.000 A 
ATOM      3  C   UNL     1       1.426   8.880  18.895  0.00  0.00    +0.000 A 
ATOM      4  N   UNL     1       1.192   8.721  20.238  0.00  0.00    +0.000 NA
ATOM      5  N   UNL     1       1.818   7.621  20.638  0.00  0.00    +0.000 NA
ENDROOT
BRANCH   1   6
ATOM      6  C   UNL     1       3.295   5.931  19.709  0.00  0.00    +0.000 C 
BRANCH   6  13
ATOM      7 BR   UNL     1       4.230   4.304  17.006  0.00  0.00    +0.000 Br
ATOM      8  C   UNL     1       2.831   3.883  18.220  0.00  0.00    +0.000 A 
ATOM      9  C   UNL     1       2.070   2.743  17.930  0.00  0.00    +0.000 A 
ATOM     10  C   UNL     1       1.028   2.357  18.770  0.00  0.00    +0.000 A 
ATOM     11  C   UNL     1       0.753   3.101  19.912  0.00  0.00    +0.000 A 
ATOM     12  C   UNL     1       1.509   4.239  20.202  0.00  0.00    +0.000 A 
ATOM     13  C   UNL     1       2.549   4.664  19.353  0.00  0.00    +0.000 A 
ENDBRANCH   6  13
ENDBRANCH   1   6
BRANCH   3  14
ATOM     14  C   UNL     1       0.931  10.077  18.164  0.00  0.00    +0.000 C 
BRANCH  14  15
ATOM     15  S   UNL     1       1.508  11.575  19.020  0.00  0.00    +0.000 S 
BRANCH  15  16
ATOM     16  C   UNL     1       0.096  11.992  19.955  0.00  0.00    +0.000 A 
ATOM     17  N   UNL     1       0.043  11.833  21.257  0.00  0.00    +0.000 NA
ATOM     18  C   UNL     1      -1.234  12.132  21.705  0.00  0.00    +0.000 A 
ATOM     19  C   UNL     1      -1.689  12.024  23.035  0.00  0.00    +0.000 A 
ATOM     20  C   UNL     1      -3.031  12.289  23.334  0.00  0.00    +0.000 A 
ATOM     21  C   UNL     1      -3.912  12.686  22.334  0.00  0.00    +0.000 A 
ATOM     22  C   UNL     1      -3.477  12.838  21.013  0.00  0.00    +0.000 A 
ATOM     23  C   UNL     1      -2.135  12.546  20.721  0.00  0.00    +0.000 A 
ATOM     24  S   UNL     1      -1.321  12.594  19.207  0.00  0.00    +0.000 S 
ENDBRANCH  15  16
ENDBRANCH  14  15
ENDBRANCH   3  14
TORSDOF 5
ENDMDL
MODEL 8
REMARK VINA RESULT:      -6.5      3.715      7.228
REMARK  Name = 
REMARK  5 active torsions:
REMARK  status: ('A' for Active; 'I' for Inactive)
REMARK    1  A    between atoms: C_7  and  C_8
REMARK    2  A    between atoms: C_8  and  N_9
REMARK    3  A    between atoms: C_11  and  C_12
REMARK    4  A    between atoms: C_12  and  S_13
REMARK    5  A    between atoms: S_13  and  C_14
REMARK                            x       y       z     vdW  Elec       q    Type
REMARK                         _______ _______ _______ _____ _____    ______ ____
ROOT
ATOM      1  N   UNL     1       3.870   4.952  19.338  0.00  0.00    +0.000 N 
ATOM      2  C   UNL     1       3.662   6.225  18.895  0.00  0.00    +0.000 A 
ATOM      3  C   UNL     1       2.544   6.636  19.587  0.00  0.00    +0.000 A 
ATOM      4  N   UNL     1       2.054   5.580  20.315  0.00  0.00    +0.000 NA
ATOM      5  N   UNL     1       2.865   4.545  20.136  0.00  0.00    +0.000 NA
ENDROOT
BRANCH   1   6
ATOM      6  C   UNL     1       4.957   4.049  19.004  0.00  0.00    +0.000 C 
BRANCH   6  13
ATOM      7 BR   UNL     1       7.711   5.848  18.935  0.00  0.00    +0.000 Br
ATOM      8  C   UNL     1       6.727   5.128  17.479  0.00  0.00    +0.000 A 
ATOM      9  C   UNL     1       7.210   5.410  16.194  0.00  0.00    +0.000 A 
ATOM     10  C   UNL     1       6.554   4.916  15.069  0.00  0.00    +0.000 A 
ATOM     11  C   UNL     1       5.420   4.126  15.224  0.00  0.00    +0.000 A 
ATOM     12  C   UNL     1       4.935   3.847  16.503  0.00  0.00    +0.000 A 
ATOM     13  C   UNL     1       5.565   4.357  17.654  0.00  0.00    +0.000 A 
ENDBRANCH   6  13
ENDBRANCH   1   6
BRANCH   3  14
ATOM     14  C   UNL     1       1.904   7.978  19.651  0.00  0.00    +0.000 C 
BRANCH  14  15
ATOM     15  S   UNL     1       2.040   8.776  18.023  0.00  0.00    +0.000 S 
BRANCH  15  16
ATOM     16  C   UNL     1       1.380  10.354  18.366  0.00  0.00    +0.000 A 
ATOM     17  N   UNL     1       2.073  11.457  18.206  0.00  0.00    +0.000 NA
ATOM     18  C   UNL     1       1.337  12.535  18.670  0.00  0.00    +0.000 A 
ATOM     19  C   UNL     1       1.772  13.875  18.716  0.00  0.00    +0.000 A 
ATOM     20  C   UNL     1       0.948  14.855  19.280  0.00  0.00    +0.000 A 
ATOM     21  C   UNL     1      -0.310  14.522  19.773  0.00  0.00    +0.000 A 
ATOM     22  C   UNL     1      -0.782  13.207  19.704  0.00  0.00    +0.000 A 
ATOM     23  C   UNL     1       0.064  12.228  19.157  0.00  0.00    +0.000 A 
ATOM     24  S   UNL     1      -0.208  10.540  18.978  0.00  0.00    +0.000 S 
ENDBRANCH  15  16
ENDBRANCH  14  15
ENDBRANCH   3  14
TORSDOF 5
ENDMDL
MODEL 9
REMARK VINA RESULT:      -6.5      1.242      1.686
REMARK  Name = 
REMARK  5 active torsions:
REMARK  status: ('A' for Active; 'I' for Inactive)
REMARK    1  A    between atoms: C_7  and  C_8
REMARK    2  A    between atoms: C_8  and  N_9
REMARK    3  A    between atoms: C_11  and  C_12
REMARK    4  A    between atoms: C_12  and  S_13
REMARK    5  A    between atoms: S_13  and  C_14
REMARK                            x       y       z     vdW  Elec       q    Type
REMARK                         _______ _______ _______ _____ _____    ______ ____
ROOT
ATOM      1  N   UNL     1       1.700   5.320  20.662  0.00  0.00    +0.000 N 
ATOM      2  C   UNL     1       1.531   4.824  19.403  0.00  0.00    +0.000 A 
ATOM      3  C   UNL     1       1.673   3.462  19.564  0.00  0.00    +0.000 A 
ATOM      4  N   UNL     1       2.035   3.201  20.862  0.00  0.00    +0.000 NA
ATOM      5  N   UNL     1       2.069   4.351  21.521  0.00  0.00    +0.000 NA
ENDROOT
BRANCH   1   6
ATOM      6  C   UNL     1       1.585   6.696  21.110  0.00  0.00    +0.000 C 
BRANCH   6  13
ATOM      7 BR   UNL     1      -0.069   9.535  21.300  0.00  0.00    +0.000 Br
ATOM      8  C   UNL     1       1.083   8.923  19.920  0.00  0.00    +0.000 A 
ATOM      9  C   UNL     1       1.244   9.770  18.816  0.00  0.00    +0.000 A 
ATOM     10  C   UNL     1       2.076   9.403  17.760  0.00  0.00    +0.000 A 
ATOM     11  C   UNL     1       2.761   8.195  17.811  0.00  0.00    +0.000 A 
ATOM     12  C   UNL     1       2.600   7.347  18.909  0.00  0.00    +0.000 A 
ATOM     13  C   UNL     1       1.744   7.684  19.975  0.00  0.00    +0.000 A 
ENDBRANCH   6  13
ENDBRANCH   1   6
BRANCH   3  14
ATOM     14  C   UNL     1       1.456   2.362  18.587  0.00  0.00    +0.000 C 
BRANCH  14  15
ATOM     15  S   UNL     1       3.070   1.694  18.080  0.00  0.00    +0.000 S 
BRANCH  15  16
ATOM     16  C   UNL     1       4.013   3.156  17.952  0.00  0.00    +0.000 A 
ATOM     17  N   UNL     1       3.944   3.949  16.908  0.00  0.00    +0.000 NA
ATOM     18  C   UNL     1       4.887   4.956  17.032  0.00  0.00    +0.000 A 
ATOM     19  C   UNL     1       5.151   5.963  16.081  0.00  0.00    +0.000 A 
ATOM     20  C   UNL     1       6.187   6.877  16.305  0.00  0.00    +0.000 A 
ATOM     21  C   UNL     1       6.942   6.816  17.472  0.00  0.00    +0.000 A 
ATOM     22  C   UNL     1       6.677   5.851  18.449  0.00  0.00    +0.000 A 
ATOM     23  C   UNL     1       5.650   4.924  18.202  0.00  0.00    +0.000 A 
ATOM     24  S   UNL     1       5.120   3.610  19.176  0.00  0.00    +0.000 S 
ENDBRANCH  15  16
ENDBRANCH  14  15
ENDBRANCH   3  14
TORSDOF 5
ENDMDL
