MODEL 1
REMARK VINA RESULT:      -7.1      0.000      0.000
REMARK  Name = 
REMARK  5 active torsions:
REMARK  status: ('A' for Active; 'I' for Inactive)
REMARK    1  A    between atoms: C_2  and  C_3
REMARK    2  A    between atoms: C_6  and  O_7
REMARK    3  A    between atoms: C_9  and  O_10
REMARK    4  A    between atoms: C_14  and  S_15
REMARK    5  A    between atoms: S_15  and  C_18
REMARK                            x       y       z     vdW  Elec       q    Type
REMARK                         _______ _______ _______ _____ _____    ______ ____
ROOT
ATOM      1  O   UNL     1       4.936   5.516  19.892  0.00  0.00    +0.000 OA
ATOM      2  C   UNL     1       4.587   5.050  18.810  0.00  0.00    +0.000 C 
ATOM      3  N   UNL     1       5.223   5.400  17.619  0.00  0.00    +0.000 N 
ATOM      4  C   UNL     1       6.314   6.358  17.619  0.00  0.00    +0.000 C 
ATOM      5  C   UNL     1       6.259   6.966  16.226  0.00  0.00    +0.000 C 
ATOM      6  C   UNL     1       5.781   5.819  15.337  0.00  0.00    +0.000 C 
ATOM      7  C   UNL     1       4.914   4.973  16.258  0.00  0.00    +0.000 C 
ENDROOT
BRANCH   2   8
ATOM      8  C   UNL     1       3.454   4.079  18.763  0.00  0.00    +0.000 A 
ATOM      9  C   UNL     1       2.195   4.505  18.316  0.00  0.00    +0.000 A 
ATOM     10  C   UNL     1       1.089   3.656  18.360  0.00  0.00    +0.000 A 
ATOM     11  C   UNL     1       1.268   2.336  18.750  0.00  0.00    +0.000 A 
ATOM     12  C   UNL     1       2.527   1.857  19.097  0.00  0.00    +0.000 A 
ATOM     13  C   UNL     1       3.617   2.733  19.121  0.00  0.00    +0.000 A 
BRANCH  11  14
ATOM     14  O   UNL     1       0.217   1.468  18.796  0.00  0.00    +0.000 OA
ATOM     15  H   UNL     1       0.558   0.572  18.959  0.00  0.00    +0.000 HD
ENDBRANCH  11  14
BRANCH  13  16
ATOM     16  O   UNL     1       4.831   2.255  19.531  0.00  0.00    +0.000 OA
ATOM     17  H   UNL     1       5.370   2.027  18.755  0.00  0.00    +0.000 HD
ENDBRANCH  13  16
ENDBRANCH   2   8
BRANCH   6  18
ATOM     18  S   UNL     1       7.134   4.876  14.644  0.00  0.00    +0.000 S 
ATOM     19  O   UNL     1       8.052   5.806  14.008  0.00  0.00    +0.000 OA
ATOM     20  O   UNL     1       7.605   3.923  15.626  0.00  0.00    +0.000 OA
BRANCH  18  21
ATOM     21  C   UNL     1       6.389   3.946  13.313  0.00  0.00    +0.000 A 
ATOM     22  C   UNL     1       4.999   3.971  13.160  0.00  0.00    +0.000 A 
ATOM     23  C   UNL     1       4.411   3.247  12.121  0.00  0.00    +0.000 A 
ATOM     24  C   UNL     1       5.207   2.518  11.237  0.00  0.00    +0.000 A 
ATOM     25  C   UNL     1       6.594   2.513  11.383  0.00  0.00    +0.000 A 
ATOM     26  C   UNL     1       7.193   3.228  12.423  0.00  0.00    +0.000 A 
ENDBRANCH  18  21
ENDBRANCH   6  18
TORSDOF 5
ENDMDL
MODEL 2
REMARK VINA RESULT:      -7.1      2.766      6.783
REMARK  Name = 
REMARK  5 active torsions:
REMARK  status: ('A' for Active; 'I' for Inactive)
REMARK    1  A    between atoms: C_2  and  C_3
REMARK    2  A    between atoms: C_6  and  O_7
REMARK    3  A    between atoms: C_9  and  O_10
REMARK    4  A    between atoms: C_14  and  S_15
REMARK    5  A    between atoms: S_15  and  C_18
REMARK                            x       y       z     vdW  Elec       q    Type
REMARK                         _______ _______ _______ _____ _____    ______ ____
ROOT
ATOM      1  O   UNL     1       6.691   5.003  19.774  0.00  0.00    +0.000 OA
ATOM      2  C   UNL     1       5.939   4.556  18.911  0.00  0.00    +0.000 C 
ATOM      3  N   UNL     1       4.809   3.806  19.237  0.00  0.00    +0.000 N 
ATOM      4  C   UNL     1       4.499   3.502  20.622  0.00  0.00    +0.000 C 
ATOM      5  C   UNL     1       3.712   2.203  20.539  0.00  0.00    +0.000 C 
ATOM      6  C   UNL     1       2.945   2.316  19.222  0.00  0.00    +0.000 C 
ATOM      7  C   UNL     1       3.841   3.176  18.343  0.00  0.00    +0.000 C 
ENDROOT
BRANCH   2   8
ATOM      8  C   UNL     1       6.235   4.825  17.473  0.00  0.00    +0.000 A 
ATOM      9  C   UNL     1       5.264   5.443  16.671  0.00  0.00    +0.000 A 
ATOM     10  C   UNL     1       5.464   5.613  15.301  0.00  0.00    +0.000 A 
ATOM     11  C   UNL     1       6.688   5.263  14.749  0.00  0.00    +0.000 A 
ATOM     12  C   UNL     1       7.708   4.746  15.541  0.00  0.00    +0.000 A 
ATOM     13  C   UNL     1       7.475   4.510  16.900  0.00  0.00    +0.000 A 
BRANCH  11  14
ATOM     14  O   UNL     1       6.930   5.423  13.417  0.00  0.00    +0.000 OA
ATOM     15  H   UNL     1       7.726   4.918  13.180  0.00  0.00    +0.000 HD
ENDBRANCH  11  14
BRANCH  13  16
ATOM     16  O   UNL     1       8.470   3.938  17.644  0.00  0.00    +0.000 OA
ATOM     17  H   UNL     1       8.992   4.633  18.079  0.00  0.00    +0.000 HD
ENDBRANCH  13  16
ENDBRANCH   2   8
BRANCH   6  18
ATOM     18  S   UNL     1       1.323   3.040  19.431  0.00  0.00    +0.000 S 
ATOM     19  O   UNL     1       0.544   2.754  18.238  0.00  0.00    +0.000 OA
ATOM     20  O   UNL     1       0.816   2.707  20.745  0.00  0.00    +0.000 OA
BRANCH  18  21
ATOM     21  C   UNL     1       1.619   4.802  19.405  0.00  0.00    +0.000 A 
ATOM     22  C   UNL     1       1.582   5.516  20.606  0.00  0.00    +0.000 A 
ATOM     23  C   UNL     1       1.813   6.892  20.593  0.00  0.00    +0.000 A 
ATOM     24  C   UNL     1       2.091   7.545  19.391  0.00  0.00    +0.000 A 
ATOM     25  C   UNL     1       2.145   6.823  18.198  0.00  0.00    +0.000 A 
ATOM     26  C   UNL     1       1.909   5.447  18.199  0.00  0.00    +0.000 A 
ENDBRANCH  18  21
ENDBRANCH   6  18
TORSDOF 5
ENDMDL
MODEL 3
REMARK VINA RESULT:      -6.8      2.523      6.785
REMARK  Name = 
REMARK  5 active torsions:
REMARK  status: ('A' for Active; 'I' for Inactive)
REMARK    1  A    between atoms: C_2  and  C_3
REMARK    2  A    between atoms: C_6  and  O_7
REMARK    3  A    between atoms: C_9  and  O_10
REMARK    4  A    between atoms: C_14  and  S_15
REMARK    5  A    between atoms: S_15  and  C_18
REMARK                            x       y       z     vdW  Elec       q    Type
REMARK                         _______ _______ _______ _____ _____    ______ ____
ROOT
ATOM      1  O   UNL     1       6.897   4.982  18.791  0.00  0.00    +0.000 OA
ATOM      2  C   UNL     1       6.077   4.408  18.077  0.00  0.00    +0.000 C 
ATOM      3  N   UNL     1       4.983   3.730  18.612  0.00  0.00    +0.000 N 
ATOM      4  C   UNL     1       4.791   3.655  20.049  0.00  0.00    +0.000 C 
ATOM      5  C   UNL     1       4.006   2.367  20.242  0.00  0.00    +0.000 C 
ATOM      6  C   UNL     1       3.132   2.272  18.992  0.00  0.00    +0.000 C 
ATOM      7  C   UNL     1       3.947   2.973  17.915  0.00  0.00    +0.000 C 
ENDROOT
BRANCH   2   8
ATOM      8  C   UNL     1       6.251   4.441  16.594  0.00  0.00    +0.000 A 
ATOM      9  C   UNL     1       5.637   3.458  15.804  0.00  0.00    +0.000 A 
ATOM     10  C   UNL     1       5.863   3.394  14.429  0.00  0.00    +0.000 A 
ATOM     11  C   UNL     1       6.622   4.385  13.823  0.00  0.00    +0.000 A 
ATOM     12  C   UNL     1       7.156   5.432  14.568  0.00  0.00    +0.000 A 
ATOM     13  C   UNL     1       6.986   5.450  15.957  0.00  0.00    +0.000 A 
BRANCH  11  14
ATOM     14  O   UNL     1       6.859   4.368  12.482  0.00  0.00    +0.000 OA
ATOM     15  H   UNL     1       6.139   3.885  12.042  0.00  0.00    +0.000 HD
ENDBRANCH  11  14
BRANCH  13  16
ATOM     16  O   UNL     1       7.578   6.452  16.675  0.00  0.00    +0.000 OA
ATOM     17  H   UNL     1       7.570   7.273  16.156  0.00  0.00    +0.000 HD
ENDBRANCH  13  16
ENDBRANCH   2   8
BRANCH   6  18
ATOM     18  S   UNL     1       1.529   3.034  19.216  0.00  0.00    +0.000 S 
ATOM     19  O   UNL     1       0.738   2.780  18.024  0.00  0.00    +0.000 OA
ATOM     20  O   UNL     1       1.020   2.700  20.529  0.00  0.00    +0.000 OA
BRANCH  18  21
ATOM     21  C   UNL     1       1.868   4.788  19.206  0.00  0.00    +0.000 A 
ATOM     22  C   UNL     1       2.148   5.420  17.991  0.00  0.00    +0.000 A 
ATOM     23  C   UNL     1       2.413   6.791  17.976  0.00  0.00    +0.000 A 
ATOM     24  C   UNL     1       2.384   7.523  19.164  0.00  0.00    +0.000 A 
ATOM     25  C   UNL     1       2.085   6.890  20.370  0.00  0.00    +0.000 A 
ATOM     26  C   UNL     1       1.825   5.518  20.397  0.00  0.00    +0.000 A 
ENDBRANCH  18  21
ENDBRANCH   6  18
TORSDOF 5
ENDMDL
MODEL 4
REMARK VINA RESULT:      -6.7      0.801      1.620
REMARK  Name = 
REMARK  5 active torsions:
REMARK  status: ('A' for Active; 'I' for Inactive)
REMARK    1  A    between atoms: C_2  and  C_3
REMARK    2  A    between atoms: C_6  and  O_7
REMARK    3  A    between atoms: C_9  and  O_10
REMARK    4  A    between atoms: C_14  and  S_15
REMARK    5  A    between atoms: S_15  and  C_18
REMARK                            x       y       z     vdW  Elec       q    Type
REMARK                         _______ _______ _______ _____ _____    ______ ____
ROOT
ATOM      1  O   UNL     1       4.897   5.539  19.944  0.00  0.00    +0.000 OA
ATOM      2  C   UNL     1       4.539   5.084  18.860  0.00  0.00    +0.000 C 
ATOM      3  N   UNL     1       5.190   5.414  17.672  0.00  0.00    +0.000 N 
ATOM      4  C   UNL     1       6.308   6.340  17.677  0.00  0.00    +0.000 C 
ATOM      5  C   UNL     1       6.277   6.948  16.283  0.00  0.00    +0.000 C 
ATOM      6  C   UNL     1       5.770   5.814  15.392  0.00  0.00    +0.000 C 
ATOM      7  C   UNL     1       4.875   4.995  16.310  0.00  0.00    +0.000 C 
ENDROOT
BRANCH   2   8
ATOM      8  C   UNL     1       3.378   4.145  18.809  0.00  0.00    +0.000 A 
ATOM      9  C   UNL     1       3.523   2.899  18.184  0.00  0.00    +0.000 A 
ATOM     10  C   UNL     1       2.434   2.042  18.023  0.00  0.00    +0.000 A 
ATOM     11  C   UNL     1       1.215   2.388  18.589  0.00  0.00    +0.000 A 
ATOM     12  C   UNL     1       1.069   3.571  19.307  0.00  0.00    +0.000 A 
ATOM     13  C   UNL     1       2.146   4.458  19.401  0.00  0.00    +0.000 A 
BRANCH  11  14
ATOM     14  O   UNL     1       0.127   1.576  18.466  0.00  0.00    +0.000 OA
ATOM     15  H   UNL     1       0.340   0.859  17.845  0.00  0.00    +0.000 HD
ENDBRANCH  11  14
BRANCH  13  16
ATOM     16  O   UNL     1       1.960   5.646  20.054  0.00  0.00    +0.000 OA
ATOM     17  H   UNL     1       2.264   5.563  20.973  0.00  0.00    +0.000 HD
ENDBRANCH  13  16
ENDBRANCH   2   8
BRANCH   6  18
ATOM     18  S   UNL     1       7.098   4.833  14.705  0.00  0.00    +0.000 S 
ATOM     19  O   UNL     1       8.059   5.737  14.098  0.00  0.00    +0.000 OA
ATOM     20  O   UNL     1       7.517   3.848  15.680  0.00  0.00    +0.000 OA
BRANCH  18  21
ATOM     21  C   UNL     1       6.340   3.951  13.349  0.00  0.00    +0.000 A 
ATOM     22  C   UNL     1       7.149   3.212  12.480  0.00  0.00    +0.000 A 
ATOM     23  C   UNL     1       6.563   2.521  11.419  0.00  0.00    +0.000 A 
ATOM     24  C   UNL     1       5.179   2.556  11.238  0.00  0.00    +0.000 A 
ATOM     25  C   UNL     1       4.376   3.279  12.119  0.00  0.00    +0.000 A 
ATOM     26  C   UNL     1       4.952   3.980  13.181  0.00  0.00    +0.000 A 
ENDBRANCH  18  21
ENDBRANCH   6  18
TORSDOF 5
ENDMDL
MODEL 5
REMARK VINA RESULT:      -6.6      0.748      1.324
REMARK  Name = 
REMARK  5 active torsions:
REMARK  status: ('A' for Active; 'I' for Inactive)
REMARK    1  A    between atoms: C_2  and  C_3
REMARK    2  A    between atoms: C_6  and  O_7
REMARK    3  A    between atoms: C_9  and  O_10
REMARK    4  A    between atoms: C_14  and  S_15
REMARK    5  A    between atoms: S_15  and  C_18
REMARK                            x       y       z     vdW  Elec       q    Type
REMARK                         _______ _______ _______ _____ _____    ______ ____
ROOT
ATOM      1  O   UNL     1       5.026   5.460  20.031  0.00  0.00    +0.000 OA
ATOM      2  C   UNL     1       4.649   4.995  18.957  0.00  0.00    +0.000 C 
ATOM      3  N   UNL     1       5.270   5.327  17.753  0.00  0.00    +0.000 N 
ATOM      4  C   UNL     1       6.377   6.266  17.729  0.00  0.00    +0.000 C 
ATOM      5  C   UNL     1       6.308   6.868  16.333  0.00  0.00    +0.000 C 
ATOM      6  C   UNL     1       5.794   5.724  15.459  0.00  0.00    +0.000 C 
ATOM      7  C   UNL     1       4.930   4.898  16.400  0.00  0.00    +0.000 C 
ENDROOT
BRANCH   2   8
ATOM      8  C   UNL     1       3.499   4.043  18.935  0.00  0.00    +0.000 A 
ATOM      9  C   UNL     1       3.717   2.702  18.588  0.00  0.00    +0.000 A 
ATOM     10  C   UNL     1       2.652   1.811  18.454  0.00  0.00    +0.000 A 
ATOM     11  C   UNL     1       1.371   2.236  18.776  0.00  0.00    +0.000 A 
ATOM     12  C   UNL     1       1.140   3.532  19.226  0.00  0.00    +0.000 A 
ATOM     13  C   UNL     1       2.201   4.442  19.288  0.00  0.00    +0.000 A 
BRANCH  11  14
ATOM     14  O   UNL     1       0.303   1.395  18.670  0.00  0.00    +0.000 OA
ATOM     15  H   UNL     1      -0.502   1.926  18.545  0.00  0.00    +0.000 HD
ENDBRANCH  11  14
BRANCH  13  16
ATOM     16  O   UNL     1       1.938   5.729  19.668  0.00  0.00    +0.000 OA
ATOM     17  H   UNL     1       2.741   6.127  20.044  0.00  0.00    +0.000 HD
ENDBRANCH  13  16
ENDBRANCH   2   8
BRANCH   6  18
ATOM     18  S   UNL     1       7.118   4.755  14.748  0.00  0.00    +0.000 S 
ATOM     19  O   UNL     1       8.075   5.669  14.149  0.00  0.00    +0.000 OA
ATOM     20  O   UNL     1       7.545   3.755  15.702  0.00  0.00    +0.000 OA
BRANCH  18  21
ATOM     21  C   UNL     1       6.352   3.895  13.382  0.00  0.00    +0.000 A 
ATOM     22  C   UNL     1       4.966   3.980  13.216  0.00  0.00    +0.000 A 
ATOM     23  C   UNL     1       4.361   3.311  12.150  0.00  0.00    +0.000 A 
ATOM     24  C   UNL     1       5.137   2.576  11.253  0.00  0.00    +0.000 A 
ATOM     25  C   UNL     1       6.521   2.511  11.413  0.00  0.00    +0.000 A 
ATOM     26  C   UNL     1       7.136   3.171  12.479  0.00  0.00    +0.000 A 
ENDBRANCH  18  21
ENDBRANCH   6  18
TORSDOF 5
ENDMDL
MODEL 6
REMARK VINA RESULT:      -6.6      3.146      4.645
REMARK  Name = 
REMARK  5 active torsions:
REMARK  status: ('A' for Active; 'I' for Inactive)
REMARK    1  A    between atoms: C_2  and  C_3
REMARK    2  A    between atoms: C_6  and  O_7
REMARK    3  A    between atoms: C_9  and  O_10
REMARK    4  A    between atoms: C_14  and  S_15
REMARK    5  A    between atoms: S_15  and  C_18
REMARK                            x       y       z     vdW  Elec       q    Type
REMARK                         _______ _______ _______ _____ _____    ______ ____
ROOT
ATOM      1  O   UNL     1       1.702   4.921  17.830  0.00  0.00    +0.000 OA
ATOM      2  C   UNL     1       2.515   5.694  18.331  0.00  0.00    +0.000 C 
ATOM      3  N   UNL     1       3.832   5.313  18.585  0.00  0.00    +0.000 N 
ATOM      4  C   UNL     1       4.281   3.965  18.287  0.00  0.00    +0.000 C 
ATOM      5  C   UNL     1       5.421   3.740  19.268  0.00  0.00    +0.000 C 
ATOM      6  C   UNL     1       6.058   5.120  19.423  0.00  0.00    +0.000 C 
ATOM      7  C   UNL     1       4.905   6.088  19.202  0.00  0.00    +0.000 C 
ENDROOT
BRANCH   2   8
ATOM      8  C   UNL     1       2.088   7.083  18.675  0.00  0.00    +0.000 A 
ATOM      9  C   UNL     1       1.991   8.048  17.661  0.00  0.00    +0.000 A 
ATOM     10  C   UNL     1       1.699   9.378  17.960  0.00  0.00    +0.000 A 
ATOM     11  C   UNL     1       1.393   9.726  19.268  0.00  0.00    +0.000 A 
ATOM     12  C   UNL     1       1.378   8.768  20.277  0.00  0.00    +0.000 A 
ATOM     13  C   UNL     1       1.743   7.449  19.984  0.00  0.00    +0.000 A 
BRANCH  11  14
ATOM     14  O   UNL     1       1.092  11.012  19.602  0.00  0.00    +0.000 OA
ATOM     15  H   UNL     1       0.643  11.015  20.465  0.00  0.00    +0.000 HD
ENDBRANCH  11  14
BRANCH  13  16
ATOM     16  O   UNL     1       1.787   6.540  21.004  0.00  0.00    +0.000 OA
ATOM     17  H   UNL     1       2.713   6.346  21.228  0.00  0.00    +0.000 HD
ENDBRANCH  13  16
ENDBRANCH   2   8
BRANCH   6  18
ATOM     18  S   UNL     1       7.391   5.396  18.263  0.00  0.00    +0.000 S 
ATOM     19  O   UNL     1       7.777   6.795  18.343  0.00  0.00    +0.000 OA
ATOM     20  O   UNL     1       8.377   4.346  18.408  0.00  0.00    +0.000 OA
BRANCH  18  21
ATOM     21  C   UNL     1       6.631   5.195  16.659  0.00  0.00    +0.000 A 
ATOM     22  C   UNL     1       5.841   6.228  16.146  0.00  0.00    +0.000 A 
ATOM     23  C   UNL     1       5.244   6.077  14.893  0.00  0.00    +0.000 A 
ATOM     24  C   UNL     1       5.448   4.910  14.155  0.00  0.00    +0.000 A 
ATOM     25  C   UNL     1       6.252   3.891  14.665  0.00  0.00    +0.000 A 
ATOM     26  C   UNL     1       6.848   4.028  15.921  0.00  0.00    +0.000 A 
ENDBRANCH  18  21
ENDBRANCH   6  18
TORSDOF 5
ENDMDL
MODEL 7
REMARK VINA RESULT:      -6.5      3.322      7.376
REMARK  Name = 
REMARK  5 active torsions:
REMARK  status: ('A' for Active; 'I' for Inactive)
REMARK    1  A    between atoms: C_2  and  C_3
REMARK    2  A    between atoms: C_6  and  O_7
REMARK    3  A    between atoms: C_9  and  O_10
REMARK    4  A    between atoms: C_14  and  S_15
REMARK    5  A    between atoms: S_15  and  C_18
REMARK                            x       y       z     vdW  Elec       q    Type
REMARK                         _______ _______ _______ _____ _____    ______ ____
ROOT
ATOM      1  O   UNL     1       4.674   1.790  17.063  0.00  0.00    +0.000 OA
ATOM      2  C   UNL     1       4.558   3.007  16.936  0.00  0.00    +0.000 C 
ATOM      3  N   UNL     1       3.562   3.724  17.597  0.00  0.00    +0.000 N 
ATOM      4  C   UNL     1       2.601   3.042  18.444  0.00  0.00    +0.000 C 
ATOM      5  C   UNL     1       1.377   3.944  18.399  0.00  0.00    +0.000 C 
ATOM      6  C   UNL     1       1.956   5.353  18.277  0.00  0.00    +0.000 C 
ATOM      7  C   UNL     1       3.265   5.152  17.529  0.00  0.00    +0.000 C 
ENDROOT
BRANCH   2   8
ATOM      8  C   UNL     1       5.512   3.744  16.054  0.00  0.00    +0.000 A 
ATOM      9  C   UNL     1       5.224   3.888  14.690  0.00  0.00    +0.000 A 
ATOM     10  C   UNL     1       6.140   4.476  13.818  0.00  0.00    +0.000 A 
ATOM     11  C   UNL     1       7.307   5.022  14.333  0.00  0.00    +0.000 A 
ATOM     12  C   UNL     1       7.570   4.987  15.699  0.00  0.00    +0.000 A 
ATOM     13  C   UNL     1       6.682   4.332  16.558  0.00  0.00    +0.000 A 
BRANCH  11  14
ATOM     14  O   UNL     1       8.225   5.615  13.519  0.00  0.00    +0.000 OA
ATOM     15  H   UNL     1       9.038   5.777  14.028  0.00  0.00    +0.000 HD
ENDBRANCH  11  14
BRANCH  13  16
ATOM     16  O   UNL     1       6.995   4.252  17.886  0.00  0.00    +0.000 OA
ATOM     17  H   UNL     1       6.897   5.127  18.297  0.00  0.00    +0.000 HD
ENDBRANCH  13  16
ENDBRANCH   2   8
BRANCH   6  18
ATOM     18  S   UNL     1       2.210   6.131  19.867  0.00  0.00    +0.000 S 
ATOM     19  O   UNL     1       1.211   5.614  20.787  0.00  0.00    +0.000 OA
ATOM     20  O   UNL     1       3.617   6.090  20.201  0.00  0.00    +0.000 OA
BRANCH  18  21
ATOM     21  C   UNL     1       1.777   7.843  19.596  0.00  0.00    +0.000 A 
ATOM     22  C   UNL     1       2.039   8.422  18.350  0.00  0.00    +0.000 A 
ATOM     23  C   UNL     1       1.702   9.759  18.131  0.00  0.00    +0.000 A 
ATOM     24  C   UNL     1       1.097  10.504  19.144  0.00  0.00    +0.000 A 
ATOM     25  C   UNL     1       0.821   9.915  20.378  0.00  0.00    +0.000 A 
ATOM     26  C   UNL     1       1.159   8.580  20.610  0.00  0.00    +0.000 A 
ENDBRANCH  18  21
ENDBRANCH   6  18
TORSDOF 5
ENDMDL
MODEL 8
REMARK VINA RESULT:      -6.5      2.436      6.903
REMARK  Name = 
REMARK  5 active torsions:
REMARK  status: ('A' for Active; 'I' for Inactive)
REMARK    1  A    between atoms: C_2  and  C_3
REMARK    2  A    between atoms: C_6  and  O_7
REMARK    3  A    between atoms: C_9  and  O_10
REMARK    4  A    between atoms: C_14  and  S_15
REMARK    5  A    between atoms: S_15  and  C_18
REMARK                            x       y       z     vdW  Elec       q    Type
REMARK                         _______ _______ _______ _____ _____    ______ ____
ROOT
ATOM      1  O   UNL     1       6.580   6.681  16.047  0.00  0.00    +0.000 OA
ATOM      2  C   UNL     1       6.048   5.581  15.917  0.00  0.00    +0.000 C 
ATOM      3  N   UNL     1       5.332   4.983  16.954  0.00  0.00    +0.000 N 
ATOM      4  C   UNL     1       5.216   5.638  18.244  0.00  0.00    +0.000 C 
ATOM      5  C   UNL     1       5.023   4.485  19.217  0.00  0.00    +0.000 C 
ATOM      6  C   UNL     1       4.236   3.448  18.416  0.00  0.00    +0.000 C 
ATOM      7  C   UNL     1       4.677   3.678  16.978  0.00  0.00    +0.000 C 
ENDROOT
BRANCH   2   8
ATOM      8  C   UNL     1       6.164   4.862  14.613  0.00  0.00    +0.000 A 
ATOM      9  C   UNL     1       5.091   4.085  14.153  0.00  0.00    +0.000 A 
ATOM     10  C   UNL     1       5.203   3.316  12.995  0.00  0.00    +0.000 A 
ATOM     11  C   UNL     1       6.358   3.410  12.231  0.00  0.00    +0.000 A 
ATOM     12  C   UNL     1       7.397   4.255  12.608  0.00  0.00    +0.000 A 
ATOM     13  C   UNL     1       7.308   4.967  13.809  0.00  0.00    +0.000 A 
BRANCH  11  14
ATOM     14  O   UNL     1       6.505   2.685  11.087  0.00  0.00    +0.000 OA
ATOM     15  H   UNL     1       7.210   2.029  11.220  0.00  0.00    +0.000 HD
ENDBRANCH  11  14
BRANCH  13  16
ATOM     16  O   UNL     1       8.371   5.738  14.192  0.00  0.00    +0.000 OA
ATOM     17  H   UNL     1       8.543   5.607  15.140  0.00  0.00    +0.000 HD
ENDBRANCH  13  16
ENDBRANCH   2   8
BRANCH   6  18
ATOM     18  S   UNL     1       2.467   3.629  18.608  0.00  0.00    +0.000 S 
ATOM     19  O   UNL     1       1.854   3.482  17.299  0.00  0.00    +0.000 OA
ATOM     20  O   UNL     1       2.024   2.829  19.730  0.00  0.00    +0.000 OA
BRANCH  18  21
ATOM     21  C   UNL     1       2.244   5.344  19.056  0.00  0.00    +0.000 A 
ATOM     22  C   UNL     1       2.292   6.321  18.055  0.00  0.00    +0.000 A 
ATOM     23  C   UNL     1       2.118   7.663  18.399  0.00  0.00    +0.000 A 
ATOM     24  C   UNL     1       1.884   8.022  19.727  0.00  0.00    +0.000 A 
ATOM     25  C   UNL     1       1.819   7.042  20.716  0.00  0.00    +0.000 A 
ATOM     26  C   UNL     1       1.998   5.697  20.386  0.00  0.00    +0.000 A 
ENDBRANCH  18  21
ENDBRANCH   6  18
TORSDOF 5
ENDMDL
MODEL 9
REMARK VINA RESULT:      -6.5      7.864     10.016
REMARK  Name = 
REMARK  5 active torsions:
REMARK  status: ('A' for Active; 'I' for Inactive)
REMARK    1  A    between atoms: C_2  and  C_3
REMARK    2  A    between atoms: C_6  and  O_7
REMARK    3  A    between atoms: C_9  and  O_10
REMARK    4  A    between atoms: C_14  and  S_15
REMARK    5  A    between atoms: S_15  and  C_18
REMARK                            x       y       z     vdW  Elec       q    Type
REMARK                         _______ _______ _______ _____ _____    ______ ____
ROOT
ATOM      1  O   UNL     1      -3.195  12.969  20.142  0.00  0.00    +0.000 OA
ATOM      2  C   UNL     1      -2.551  12.110  19.543  0.00  0.00    +0.000 C 
ATOM      3  N   UNL     1      -1.359  11.595  20.053  0.00  0.00    +0.000 N 
ATOM      4  C   UNL     1      -0.822  12.085  21.309  0.00  0.00    +0.000 C 
ATOM      5  C   UNL     1       0.675  11.851  21.176  0.00  0.00    +0.000 C 
ATOM      6  C   UNL     1       0.780  10.578  20.337  0.00  0.00    +0.000 C 
ATOM      7  C   UNL     1      -0.462  10.609  19.460  0.00  0.00    +0.000 C 
ENDROOT
BRANCH   2   8
ATOM      8  C   UNL     1      -3.057  11.595  18.236  0.00  0.00    +0.000 A 
ATOM      9  C   UNL     1      -2.145  11.169  17.260  0.00  0.00    +0.000 A 
ATOM     10  C   UNL     1      -2.576  10.784  15.990  0.00  0.00    +0.000 A 
ATOM     11  C   UNL     1      -3.938  10.719  15.731  0.00  0.00    +0.000 A 
ATOM     12  C   UNL     1      -4.869  11.035  16.715  0.00  0.00    +0.000 A 
ATOM     13  C   UNL     1      -4.429  11.491  17.962  0.00  0.00    +0.000 A 
BRANCH  11  14
ATOM     14  O   UNL     1      -4.403  10.338  14.508  0.00  0.00    +0.000 OA
ATOM     15  H   UNL     1      -4.841   9.474  14.595  0.00  0.00    +0.000 HD
ENDBRANCH  11  14
BRANCH  13  16
ATOM     16  O   UNL     1      -5.362  11.860  18.891  0.00  0.00    +0.000 OA
ATOM     17  H   UNL     1      -5.948  12.537  18.512  0.00  0.00    +0.000 HD
ENDBRANCH  13  16
ENDBRANCH   2   8
BRANCH   6  18
ATOM     18  S   UNL     1       0.851   9.098  21.340  0.00  0.00    +0.000 S 
ATOM     19  O   UNL     1       1.795   9.330  22.420  0.00  0.00    +0.000 OA
ATOM     20  O   UNL     1      -0.495   8.643  21.616  0.00  0.00    +0.000 OA
BRANCH  18  21
ATOM     21  C   UNL     1       1.618   7.882  20.280  0.00  0.00    +0.000 A 
ATOM     22  C   UNL     1       2.072   8.270  19.015  0.00  0.00    +0.000 A 
ATOM     23  C   UNL     1       2.673   7.325  18.183  0.00  0.00    +0.000 A 
ATOM     24  C   UNL     1       2.831   6.008  18.616  0.00  0.00    +0.000 A 
ATOM     25  C   UNL     1       2.393   5.632  19.886  0.00  0.00    +0.000 A 
ATOM     26  C   UNL     1       1.785   6.568  20.725  0.00  0.00    +0.000 A 
ENDBRANCH  18  21
ENDBRANCH   6  18
TORSDOF 5
ENDMDL
