MODEL 1
REMARK VINA RESULT:      -8.0      0.000      0.000
REMARK  Name = 
REMARK  5 active torsions:
REMARK  status: ('A' for Active; 'I' for Inactive)
REMARK    1  A    between atoms: C_1  and  C_2
REMARK    2  A    between atoms: C_2  and  C_3
REMARK    3  A    between atoms: C_3  and  C_4
REMARK    4  A    between atoms: C_4  and  N_6
REMARK    5  A    between atoms: C_12  and  C_13
REMARK                            x       y       z     vdW  Elec       q    Type
REMARK                         _______ _______ _______ _____ _____    ______ ____
ROOT
ATOM      1  N   UNL     1       6.045   3.932  14.600  0.00  0.00    +0.000 NA
ATOM      2  C   UNL     1       5.548   4.696  15.523  0.00  0.00    +0.000 C 
ATOM      3  N   UNL     1       5.894   5.998  15.734  0.00  0.00    +0.000 N 
ATOM      4  N   UNL     1       4.683   4.183  16.441  0.00  0.00    +0.000 N 
ATOM      5  C   UNL     1       3.967   4.846  17.432  0.00  0.00    +0.000 A 
ATOM      6  N   UNL     1       3.598   4.135  18.503  0.00  0.00    +0.000 NA
ATOM      7  C   UNL     1       2.945   4.784  19.498  0.00  0.00    +0.000 A 
ATOM      8  C   UNL     1       2.651   3.972  20.728  0.00  0.00    +0.000 C 
ATOM      9  C   UNL     1       2.562   6.127  19.404  0.00  0.00    +0.000 A 
ATOM     10  C   UNL     1       1.818   6.845  20.376  0.00  0.00    +0.000 A 
ATOM     11  C   UNL     1       1.451   8.170  20.156  0.00  0.00    +0.000 A 
ATOM     12  C   UNL     1       1.837   8.797  18.980  0.00  0.00    +0.000 A 
ATOM     13  C   UNL     1       2.595   8.094  18.038  0.00  0.00    +0.000 A 
ATOM     14  C   UNL     1       2.959   6.767  18.229  0.00  0.00    +0.000 A 
ATOM     15  N   UNL     1       3.671   6.152  17.277  0.00  0.00    +0.000 NA
ATOM     16  H   UNL     1       6.326   6.448  14.922  0.00  0.00    +0.000 HD
ATOM     17  H   UNL     1       5.129   6.563  16.106  0.00  0.00    +0.000 HD
ATOM     18  H   UNL     1       4.572   3.183  16.484  0.00  0.00    +0.000 HD
ENDROOT
BRANCH   1  19
ATOM     19  C   UNL     1       6.926   4.497  13.693  0.00  0.00    +0.000 C 
ATOM     20  O   UNL     1       7.847   5.261  13.996  0.00  0.00    +0.000 OA
BRANCH  19  21
ATOM     21  C   UNL     1       6.690   4.104  12.254  0.00  0.00    +0.000 C 
BRANCH  21  23
ATOM     22  C   UNL     1       4.393   3.333  11.491  0.00  0.00    +0.000 C 
ATOM     23  C   UNL     1       5.711   2.939  12.144  0.00  0.00    +0.000 C 
ENDBRANCH  21  23
ENDBRANCH  19  21
ENDBRANCH   1  19
TORSDOF 3
ENDMDL
MODEL 2
REMARK VINA RESULT:      -7.2      3.725      7.976
REMARK  Name = 
REMARK  5 active torsions:
REMARK  status: ('A' for Active; 'I' for Inactive)
REMARK    1  A    between atoms: C_1  and  C_2
REMARK    2  A    between atoms: C_2  and  C_3
REMARK    3  A    between atoms: C_3  and  C_4
REMARK    4  A    between atoms: C_4  and  N_6
REMARK    5  A    between atoms: C_12  and  C_13
REMARK                            x       y       z     vdW  Elec       q    Type
REMARK                         _______ _______ _______ _____ _____    ______ ____
ROOT
ATOM      1  N   UNL     1       1.243   8.424  21.747  0.00  0.00    +0.000 NA
ATOM      2  C   UNL     1       1.688   7.906  20.643  0.00  0.00    +0.000 C 
ATOM      3  N   UNL     1       1.649   8.512  19.422  0.00  0.00    +0.000 N 
ATOM      4  N   UNL     1       2.149   6.625  20.627  0.00  0.00    +0.000 N 
ATOM      5  C   UNL     1       2.757   5.930  19.587  0.00  0.00    +0.000 A 
ATOM      6  N   UNL     1       2.667   4.596  19.606  0.00  0.00    +0.000 NA
ATOM      7  C   UNL     1       3.212   3.911  18.570  0.00  0.00    +0.000 A 
ATOM      8  C   UNL     1       2.987   2.425  18.577  0.00  0.00    +0.000 C 
ATOM      9  C   UNL     1       3.938   4.532  17.548  0.00  0.00    +0.000 A 
ATOM     10  C   UNL     1       4.591   3.869  16.477  0.00  0.00    +0.000 A 
ATOM     11  C   UNL     1       5.329   4.588  15.540  0.00  0.00    +0.000 A 
ATOM     12  C   UNL     1       5.406   5.969  15.648  0.00  0.00    +0.000 A 
ATOM     13  C   UNL     1       4.738   6.620  16.689  0.00  0.00    +0.000 A 
ATOM     14  C   UNL     1       4.009   5.923  17.645  0.00  0.00    +0.000 A 
ATOM     15  N   UNL     1       3.408   6.611  18.623  0.00  0.00    +0.000 NA
ATOM     16  H   UNL     1       1.552   9.530  19.468  0.00  0.00    +0.000 HD
ATOM     17  H   UNL     1       2.425   8.242  18.814  0.00  0.00    +0.000 HD
ATOM     18  H   UNL     1       1.985   6.050  21.436  0.00  0.00    +0.000 HD
ENDROOT
BRANCH   1  19
ATOM     19  C   UNL     1       0.777   9.727  21.712  0.00  0.00    +0.000 C 
ATOM     20  O   UNL     1       1.490  10.720  21.544  0.00  0.00    +0.000 OA
BRANCH  19  21
ATOM     21  C   UNL     1      -0.716   9.868  21.893  0.00  0.00    +0.000 C 
BRANCH  21  23
ATOM     22  C   UNL     1      -1.855  11.903  22.902  0.00  0.00    +0.000 C 
ATOM     23  C   UNL     1      -1.057  10.633  23.169  0.00  0.00    +0.000 C 
ENDBRANCH  21  23
ENDBRANCH  19  21
ENDBRANCH   1  19
TORSDOF 3
ENDMDL
MODEL 3
REMARK VINA RESULT:      -7.2      0.829      1.014
REMARK  Name = 
REMARK  5 active torsions:
REMARK  status: ('A' for Active; 'I' for Inactive)
REMARK    1  A    between atoms: C_1  and  C_2
REMARK    2  A    between atoms: C_2  and  C_3
REMARK    3  A    between atoms: C_3  and  C_4
REMARK    4  A    between atoms: C_4  and  N_6
REMARK    5  A    between atoms: C_12  and  C_13
REMARK                            x       y       z     vdW  Elec       q    Type
REMARK                         _______ _______ _______ _____ _____    ______ ____
ROOT
ATOM      1  N   UNL     1       5.468   3.634  15.162  0.00  0.00    +0.000 NA
ATOM      2  C   UNL     1       5.022   4.515  16.003  0.00  0.00    +0.000 C 
ATOM      3  N   UNL     1       5.388   5.828  16.030  0.00  0.00    +0.000 N 
ATOM      4  N   UNL     1       4.197   4.134  17.017  0.00  0.00    +0.000 N 
ATOM      5  C   UNL     1       3.534   4.927  17.948  0.00  0.00    +0.000 A 
ATOM      6  N   UNL     1       3.211   4.362  19.116  0.00  0.00    +0.000 NA
ATOM      7  C   UNL     1       2.610   5.141  20.049  0.00  0.00    +0.000 A 
ATOM      8  C   UNL     1       2.368   4.495  21.384  0.00  0.00    +0.000 C 
ATOM      9  C   UNL     1       2.234   6.467  19.803  0.00  0.00    +0.000 A 
ATOM     10  C   UNL     1       1.542   7.311  20.709  0.00  0.00    +0.000 A 
ATOM     11  C   UNL     1       1.175   8.602  20.339  0.00  0.00    +0.000 A 
ATOM     12  C   UNL     1       1.510   9.071  19.077  0.00  0.00    +0.000 A 
ATOM     13  C   UNL     1       2.217   8.244  18.198  0.00  0.00    +0.000 A 
ATOM     14  C   UNL     1       2.580   6.946  18.539  0.00  0.00    +0.000 A 
ATOM     15  N   UNL     1       3.241   6.207  17.642  0.00  0.00    +0.000 NA
ATOM     16  H   UNL     1       5.785   6.165  15.149  0.00  0.00    +0.000 HD
ATOM     17  H   UNL     1       4.645   6.446  16.362  0.00  0.00    +0.000 HD
ATOM     18  H   UNL     1       4.081   3.149  17.192  0.00  0.00    +0.000 HD
ENDROOT
BRANCH   1  19
ATOM     19  C   UNL     1       6.310   4.067  14.152  0.00  0.00    +0.000 C 
ATOM     20  O   UNL     1       7.335   4.731  14.332  0.00  0.00    +0.000 OA
BRANCH  19  21
ATOM     21  C   UNL     1       5.889   3.659  12.760  0.00  0.00    +0.000 C 
BRANCH  21  23
ATOM     22  C   UNL     1       7.116   2.030  11.244  0.00  0.00    +0.000 C 
ATOM     23  C   UNL     1       7.095   3.426  11.854  0.00  0.00    +0.000 C 
ENDBRANCH  21  23
ENDBRANCH  19  21
ENDBRANCH   1  19
TORSDOF 3
ENDMDL
MODEL 4
REMARK VINA RESULT:      -7.2      4.943      6.799
REMARK  Name = 
REMARK  5 active torsions:
REMARK  status: ('A' for Active; 'I' for Inactive)
REMARK    1  A    between atoms: C_1  and  C_2
REMARK    2  A    between atoms: C_2  and  C_3
REMARK    3  A    between atoms: C_3  and  C_4
REMARK    4  A    between atoms: C_4  and  N_6
REMARK    5  A    between atoms: C_12  and  C_13
REMARK                            x       y       z     vdW  Elec       q    Type
REMARK                         _______ _______ _______ _____ _____    ______ ____
ROOT
ATOM      1  N   UNL     1       8.586   9.839  17.800  0.00  0.00    +0.000 NA
ATOM      2  C   UNL     1       8.108   8.642  17.947  0.00  0.00    +0.000 C 
ATOM      3  N   UNL     1       8.427   7.790  18.964  0.00  0.00    +0.000 N 
ATOM      4  N   UNL     1       7.298   8.108  16.992  0.00  0.00    +0.000 N 
ATOM      5  C   UNL     1       6.607   6.901  17.008  0.00  0.00    +0.000 A 
ATOM      6  N   UNL     1       6.305   6.351  15.827  0.00  0.00    +0.000 NA
ATOM      7  C   UNL     1       5.677   5.149  15.833  0.00  0.00    +0.000 A 
ATOM      8  C   UNL     1       5.459   4.518  14.486  0.00  0.00    +0.000 C 
ATOM      9  C   UNL     1       5.253   4.519  17.009  0.00  0.00    +0.000 A 
ATOM     10  C   UNL     1       4.532   3.299  17.080  0.00  0.00    +0.000 A 
ATOM     11  C   UNL     1       4.119   2.788  18.307  0.00  0.00    +0.000 A 
ATOM     12  C   UNL     1       4.437   3.472  19.472  0.00  0.00    +0.000 A 
ATOM     13  C   UNL     1       5.172   4.659  19.399  0.00  0.00    +0.000 A 
ATOM     14  C   UNL     1       5.582   5.197  18.184  0.00  0.00    +0.000 A 
ATOM     15  N   UNL     1       6.268   6.344  18.189  0.00  0.00    +0.000 NA
ATOM     16  H   UNL     1       8.811   8.257  19.789  0.00  0.00    +0.000 HD
ATOM     17  H   UNL     1       7.662   7.161  19.216  0.00  0.00    +0.000 HD
ATOM     18  H   UNL     1       7.217   8.590  16.112  0.00  0.00    +0.000 HD
ENDROOT
BRANCH   1  19
ATOM     19  C   UNL     1       9.411  10.336  18.794  0.00  0.00    +0.000 C 
ATOM     20  O   UNL     1       9.217  10.187  20.004  0.00  0.00    +0.000 OA
BRANCH  19  21
ATOM     21  C   UNL     1      10.615  11.098  18.293  0.00  0.00    +0.000 C 
BRANCH  21  23
ATOM     22  C   UNL     1      11.348  13.112  16.929  0.00  0.00    +0.000 C 
ATOM     23  C   UNL     1      10.221  12.454  17.715  0.00  0.00    +0.000 C 
ENDBRANCH  21  23
ENDBRANCH  19  21
ENDBRANCH   1  19
TORSDOF 3
ENDMDL
MODEL 5
REMARK VINA RESULT:      -7.0      4.559      6.099
REMARK  Name = 
REMARK  5 active torsions:
REMARK  status: ('A' for Active; 'I' for Inactive)
REMARK    1  A    between atoms: C_1  and  C_2
REMARK    2  A    between atoms: C_2  and  C_3
REMARK    3  A    between atoms: C_3  and  C_4
REMARK    4  A    between atoms: C_4  and  N_6
REMARK    5  A    between atoms: C_12  and  C_13
REMARK                            x       y       z     vdW  Elec       q    Type
REMARK                         _______ _______ _______ _____ _____    ______ ____
ROOT
ATOM      1  N   UNL     1       3.373   4.451  19.728  0.00  0.00    +0.000 NA
ATOM      2  C   UNL     1       2.509   5.353  20.081  0.00  0.00    +0.000 C 
ATOM      3  N   UNL     1       1.373   5.112  20.796  0.00  0.00    +0.000 N 
ATOM      4  N   UNL     1       2.647   6.636  19.648  0.00  0.00    +0.000 N 
ATOM      5  C   UNL     1       1.902   7.758  19.992  0.00  0.00    +0.000 A 
ATOM      6  N   UNL     1       1.864   8.764  19.111  0.00  0.00    +0.000 NA
ATOM      7  C   UNL     1       1.098   9.841  19.415  0.00  0.00    +0.000 A 
ATOM      8  C   UNL     1       0.997  10.894  18.348  0.00  0.00    +0.000 C 
ATOM      9  C   UNL     1       0.434   9.979  20.640  0.00  0.00    +0.000 A 
ATOM     10  C   UNL     1      -0.323  11.108  21.046  0.00  0.00    +0.000 A 
ATOM     11  C   UNL     1      -0.903  11.157  22.312  0.00  0.00    +0.000 A 
ATOM     12  C   UNL     1      -0.752  10.079  23.172  0.00  0.00    +0.000 A 
ATOM     13  C   UNL     1      -0.028   8.957  22.756  0.00  0.00    +0.000 A 
ATOM     14  C   UNL     1       0.572   8.892  21.504  0.00  0.00    +0.000 A 
ATOM     15  N   UNL     1       1.263   7.794  21.179  0.00  0.00    +0.000 NA
ATOM     16  H   UNL     1       1.396   4.238  21.326  0.00  0.00    +0.000 HD
ATOM     17  H   UNL     1       1.097   5.898  21.388  0.00  0.00    +0.000 HD
ATOM     18  H   UNL     1       3.326   6.826  18.929  0.00  0.00    +0.000 HD
ENDROOT
BRANCH   1  19
ATOM     19  C   UNL     1       3.187   3.158  20.187  0.00  0.00    +0.000 C 
ATOM     20  O   UNL     1       2.983   2.856  21.366  0.00  0.00    +0.000 OA
BRANCH  19  21
ATOM     21  C   UNL     1       3.243   2.094  19.116  0.00  0.00    +0.000 C 
BRANCH  21  23
ATOM     22  C   UNL     1       0.745   2.284  18.693  0.00  0.00    +0.000 C 
ATOM     23  C   UNL     1       2.140   2.281  18.079  0.00  0.00    +0.000 C 
ENDBRANCH  21  23
ENDBRANCH  19  21
ENDBRANCH   1  19
TORSDOF 3
ENDMDL
MODEL 6
REMARK VINA RESULT:      -7.0      3.569      7.393
REMARK  Name = 
REMARK  5 active torsions:
REMARK  status: ('A' for Active; 'I' for Inactive)
REMARK    1  A    between atoms: C_1  and  C_2
REMARK    2  A    between atoms: C_2  and  C_3
REMARK    3  A    between atoms: C_3  and  C_4
REMARK    4  A    between atoms: C_4  and  N_6
REMARK    5  A    between atoms: C_12  and  C_13
REMARK                            x       y       z     vdW  Elec       q    Type
REMARK                         _______ _______ _______ _____ _____    ______ ____
ROOT
ATOM      1  N   UNL     1       1.239   8.505  21.488  0.00  0.00    +0.000 NA
ATOM      2  C   UNL     1       1.706   7.965  20.405  0.00  0.00    +0.000 C 
ATOM      3  N   UNL     1       1.725   8.559  19.178  0.00  0.00    +0.000 N 
ATOM      4  N   UNL     1       2.134   6.672  20.417  0.00  0.00    +0.000 N 
ATOM      5  C   UNL     1       2.757   5.950  19.405  0.00  0.00    +0.000 A 
ATOM      6  N   UNL     1       2.631   4.619  19.434  0.00  0.00    +0.000 NA
ATOM      7  C   UNL     1       3.193   3.910  18.423  0.00  0.00    +0.000 A 
ATOM      8  C   UNL     1       2.929   2.430  18.436  0.00  0.00    +0.000 C 
ATOM      9  C   UNL     1       3.969   4.502  17.421  0.00  0.00    +0.000 A 
ATOM     10  C   UNL     1       4.640   3.811  16.378  0.00  0.00    +0.000 A 
ATOM     11  C   UNL     1       5.428   4.500  15.460  0.00  0.00    +0.000 A 
ATOM     12  C   UNL     1       5.538   5.880  15.557  0.00  0.00    +0.000 A 
ATOM     13  C   UNL     1       4.852   6.559  16.569  0.00  0.00    +0.000 A 
ATOM     14  C   UNL     1       4.073   5.891  17.506  0.00  0.00    +0.000 A 
ATOM     15  N   UNL     1       3.458   6.604  18.457  0.00  0.00    +0.000 NA
ATOM     16  H   UNL     1       1.653   9.580  19.212  0.00  0.00    +0.000 HD
ATOM     17  H   UNL     1       2.513   8.263  18.600  0.00  0.00    +0.000 HD
ATOM     18  H   UNL     1       1.927   6.109  21.225  0.00  0.00    +0.000 HD
ENDROOT
BRANCH   1  19
ATOM     19  C   UNL     1       0.809   9.819  21.426  0.00  0.00    +0.000 C 
ATOM     20  O   UNL     1       1.537  10.802  21.588  0.00  0.00    +0.000 OA
BRANCH  19  21
ATOM     21  C   UNL     1      -0.663   9.989  21.130  0.00  0.00    +0.000 C 
BRANCH  21  23
ATOM     22  C   UNL     1      -1.284  10.475  18.715  0.00  0.00    +0.000 C 
ATOM     23  C   UNL     1      -0.902  11.059  20.070  0.00  0.00    +0.000 C 
ENDBRANCH  21  23
ENDBRANCH  19  21
ENDBRANCH   1  19
TORSDOF 3
ENDMDL
MODEL 7
REMARK VINA RESULT:      -7.0      3.318      5.454
REMARK  Name = 
REMARK  5 active torsions:
REMARK  status: ('A' for Active; 'I' for Inactive)
REMARK    1  A    between atoms: C_1  and  C_2
REMARK    2  A    between atoms: C_2  and  C_3
REMARK    3  A    between atoms: C_3  and  C_4
REMARK    4  A    between atoms: C_4  and  N_6
REMARK    5  A    between atoms: C_12  and  C_13
REMARK                            x       y       z     vdW  Elec       q    Type
REMARK                         _______ _______ _______ _____ _____    ______ ____
ROOT
ATOM      1  N   UNL     1       3.839   5.912  17.823  0.00  0.00    +0.000 NA
ATOM      2  C   UNL     1       2.949   6.475  18.582  0.00  0.00    +0.000 C 
ATOM      3  N   UNL     1       2.280   5.856  19.597  0.00  0.00    +0.000 N 
ATOM      4  N   UNL     1       2.543   7.749  18.328  0.00  0.00    +0.000 N 
ATOM      5  C   UNL     1       1.691   8.558  19.072  0.00  0.00    +0.000 A 
ATOM      6  N   UNL     1       1.043   9.529  18.420  0.00  0.00    +0.000 NA
ATOM      7  C   UNL     1       0.171  10.291  19.127  0.00  0.00    +0.000 A 
ATOM      8  C   UNL     1      -0.617  11.293  18.331  0.00  0.00    +0.000 C 
ATOM      9  C   UNL     1       0.001  10.164  20.510  0.00  0.00    +0.000 A 
ATOM     10  C   UNL     1      -0.840  10.973  21.317  0.00  0.00    +0.000 A 
ATOM     11  C   UNL     1      -0.895  10.787  22.696  0.00  0.00    +0.000 A 
ATOM     12  C   UNL     1      -0.134   9.785  23.280  0.00  0.00    +0.000 A 
ATOM     13  C   UNL     1       0.671   8.972  22.476  0.00  0.00    +0.000 A 
ATOM     14  C   UNL     1       0.755   9.148  21.100  0.00  0.00    +0.000 A 
ATOM     15  N   UNL     1       1.559   8.344  20.396  0.00  0.00    +0.000 NA
ATOM     16  H   UNL     1       2.748   5.016  19.949  0.00  0.00    +0.000 HD
ATOM     17  H   UNL     1       2.032   6.489  20.359  0.00  0.00    +0.000 HD
ATOM     18  H   UNL     1       2.821   8.173  17.458  0.00  0.00    +0.000 HD
ENDROOT
BRANCH   1  19
ATOM     19  C   UNL     1       4.215   4.612  18.116  0.00  0.00    +0.000 C 
ATOM     20  O   UNL     1       4.894   4.284  19.094  0.00  0.00    +0.000 OA
BRANCH  19  21
ATOM     21  C   UNL     1       3.722   3.576  17.135  0.00  0.00    +0.000 C 
BRANCH  21  23
ATOM     22  C   UNL     1       1.709   2.542  18.292  0.00  0.00    +0.000 C 
ATOM     23  C   UNL     1       3.154   2.352  17.848  0.00  0.00    +0.000 C 
ENDBRANCH  21  23
ENDBRANCH  19  21
ENDBRANCH   1  19
TORSDOF 3
ENDMDL
MODEL 8
REMARK VINA RESULT:      -7.0      3.740      7.161
REMARK  Name = 
REMARK  5 active torsions:
REMARK  status: ('A' for Active; 'I' for Inactive)
REMARK    1  A    between atoms: C_1  and  C_2
REMARK    2  A    between atoms: C_2  and  C_3
REMARK    3  A    between atoms: C_3  and  C_4
REMARK    4  A    between atoms: C_4  and  N_6
REMARK    5  A    between atoms: C_12  and  C_13
REMARK                            x       y       z     vdW  Elec       q    Type
REMARK                         _______ _______ _______ _____ _____    ______ ____
ROOT
ATOM      1  N   UNL     1       1.626  10.411  18.406  0.00  0.00    +0.000 NA
ATOM      2  C   UNL     1       1.877   9.149  18.575  0.00  0.00    +0.000 C 
ATOM      3  N   UNL     1       1.428   8.393  19.618  0.00  0.00    +0.000 N 
ATOM      4  N   UNL     1       2.727   8.503  17.730  0.00  0.00    +0.000 N 
ATOM      5  C   UNL     1       3.042   7.149  17.676  0.00  0.00    +0.000 A 
ATOM      6  N   UNL     1       4.224   6.815  17.148  0.00  0.00    +0.000 NA
ATOM      7  C   UNL     1       4.562   5.501  17.137  0.00  0.00    +0.000 A 
ATOM      8  C   UNL     1       5.944   5.185  16.640  0.00  0.00    +0.000 C 
ATOM      9  C   UNL     1       3.692   4.490  17.562  0.00  0.00    +0.000 A 
ATOM     10  C   UNL     1       3.957   3.097  17.511  0.00  0.00    +0.000 A 
ATOM     11  C   UNL     1       2.995   2.176  17.917  0.00  0.00    +0.000 A 
ATOM     12  C   UNL     1       1.774   2.631  18.396  0.00  0.00    +0.000 A 
ATOM     13  C   UNL     1       1.529   4.005  18.470  0.00  0.00    +0.000 A 
ATOM     14  C   UNL     1       2.468   4.943  18.055  0.00  0.00    +0.000 A 
ATOM     15  N   UNL     1       2.159   6.242  18.140  0.00  0.00    +0.000 NA
ATOM     16  H   UNL     1       0.611   8.787  20.092  0.00  0.00    +0.000 HD
ATOM     17  H   UNL     1       1.276   7.415  19.370  0.00  0.00    +0.000 HD
ATOM     18  H   UNL     1       3.272   9.055  17.089  0.00  0.00    +0.000 HD
ENDROOT
BRANCH   1  19
ATOM     19  C   UNL     1       0.762  11.026  19.295  0.00  0.00    +0.000 C 
ATOM     20  O   UNL     1       0.996  11.196  20.495  0.00  0.00    +0.000 OA
BRANCH  19  21
ATOM     21  C   UNL     1      -0.535  11.505  18.686  0.00  0.00    +0.000 C 
BRANCH  21  23
ATOM     22  C   UNL     1      -1.810   9.947  17.136  0.00  0.00    +0.000 C 
ATOM     23  C   UNL     1      -1.554  10.375  18.576  0.00  0.00    +0.000 C 
ENDBRANCH  21  23
ENDBRANCH  19  21
ENDBRANCH   1  19
TORSDOF 3
ENDMDL
MODEL 9
REMARK VINA RESULT:      -7.0      3.324      7.113
REMARK  Name = 
REMARK  5 active torsions:
REMARK  status: ('A' for Active; 'I' for Inactive)
REMARK    1  A    between atoms: C_1  and  C_2
REMARK    2  A    between atoms: C_2  and  C_3
REMARK    3  A    between atoms: C_3  and  C_4
REMARK    4  A    between atoms: C_4  and  N_6
REMARK    5  A    between atoms: C_12  and  C_13
REMARK                            x       y       z     vdW  Elec       q    Type
REMARK                         _______ _______ _______ _____ _____    ______ ____
ROOT
ATOM      1  N   UNL     1       1.186   9.307  19.907  0.00  0.00    +0.000 NA
ATOM      2  C   UNL     1       1.748   8.509  19.051  0.00  0.00    +0.000 C 
ATOM      3  N   UNL     1       1.783   8.706  17.702  0.00  0.00    +0.000 N 
ATOM      4  N   UNL     1       2.273   7.324  19.466  0.00  0.00    +0.000 N 
ATOM      5  C   UNL     1       3.001   6.389  18.739  0.00  0.00    +0.000 A 
ATOM      6  N   UNL     1       2.976   5.123  19.168  0.00  0.00    +0.000 NA
ATOM      7  C   UNL     1       3.641   4.194  18.436  0.00  0.00    +0.000 A 
ATOM      8  C   UNL     1       3.492   2.770  18.892  0.00  0.00    +0.000 C 
ATOM      9  C   UNL     1       4.420   4.524  17.320  0.00  0.00    +0.000 A 
ATOM     10  C   UNL     1       5.194   3.613  16.555  0.00  0.00    +0.000 A 
ATOM     11  C   UNL     1       5.972   4.061  15.491  0.00  0.00    +0.000 A 
ATOM     12  C   UNL     1       5.971   5.411  15.166  0.00  0.00    +0.000 A 
ATOM     13  C   UNL     1       5.184   6.299  15.906  0.00  0.00    +0.000 A 
ATOM     14  C   UNL     1       4.412   5.878  16.982  0.00  0.00    +0.000 A 
ATOM     15  N   UNL     1       3.697   6.786  17.654  0.00  0.00    +0.000 NA
ATOM     16  H   UNL     1       1.631   9.678  17.422  0.00  0.00    +0.000 HD
ATOM     17  H   UNL     1       2.620   8.320  17.261  0.00  0.00    +0.000 HD
ATOM     18  H   UNL     1       2.069   7.015  20.403  0.00  0.00    +0.000 HD
ENDROOT
BRANCH   1  19
ATOM     19  C   UNL     1       0.659  10.498  19.436  0.00  0.00    +0.000 C 
ATOM     20  O   UNL     1       1.334  11.448  19.030  0.00  0.00    +0.000 OA
BRANCH  19  21
ATOM     21  C   UNL     1      -0.849  10.568  19.444  0.00  0.00    +0.000 C 
BRANCH  21  23
ATOM     22  C   UNL     1      -2.843  10.827  17.890  0.00  0.00    +0.000 C 
ATOM     23  C   UNL     1      -1.432  10.280  18.063  0.00  0.00    +0.000 C 
ENDBRANCH  21  23
ENDBRANCH  19  21
ENDBRANCH   1  19
TORSDOF 3
ENDMDL
