MODEL 1
REMARK VINA RESULT:      -7.0      0.000      0.000
REMARK  Name = 
REMARK  6 active torsions:
REMARK  status: ('A' for Active; 'I' for Inactive)
REMARK    1  A    between atoms: C_1  and  N_2
REMARK    2  A    between atoms: N_2  and  C_3
REMARK    3  A    between atoms: C_3  and  C_4
REMARK    4  A    between atoms: N_8  and  C_9
REMARK    5  A    between atoms: C_10  and  C_12
REMARK    6  A    between atoms: C_19  and  O_20
REMARK                            x       y       z     vdW  Elec       q    Type
REMARK                         _______ _______ _______ _____ _____    ______ ____
ROOT
ATOM      1  C   UNL     1       2.423   2.505  20.283  0.00  0.00    +0.000 C 
ATOM      2  N   UNL     1       2.983   3.457  19.333  0.00  0.00    +0.000 N 
ATOM      3  C   UNL     1       4.389   3.427  19.218  0.00  0.00    +0.000 C 
ATOM      4  O   UNL     1       5.060   2.597  19.835  0.00  0.00    +0.000 OA
ENDROOT
BRANCH   3   5
ATOM      5  C   UNL     1       5.152   4.308  18.283  0.00  0.00    +0.000 A 
ATOM      6  C   UNL     1       4.881   4.106  16.915  0.00  0.00    +0.000 A 
ATOM      7  C   UNL     1       5.548   4.841  15.939  0.00  0.00    +0.000 A 
ATOM      8  F   UNL     1       5.288   4.612  14.647  0.00  0.00    +0.000 F 
ATOM      9  C   UNL     1       6.478   5.808  16.281  0.00  0.00    +0.000 A 
ATOM     10  C   UNL     1       6.781   5.994  17.623  0.00  0.00    +0.000 A 
ATOM     11 CL   UNL     1       7.954   7.186  18.058  0.00  0.00    +0.000 Cl
ATOM     12  C   UNL     1       6.160   5.220  18.620  0.00  0.00    +0.000 A 
BRANCH  12  13
ATOM     13  O   UNL     1       6.614   5.337  19.907  0.00  0.00    +0.000 OA
ATOM     14  H   UNL     1       5.844   5.522  20.480  0.00  0.00    +0.000 HD
ENDBRANCH  12  13
ENDBRANCH   3   5
BRANCH   2  15
ATOM     15  C   UNL     1       2.146   4.519  18.768  0.00  0.00    +0.000 C 
BRANCH  15  16
ATOM     16  C   UNL     1       2.028   5.786  19.545  0.00  0.00    +0.000 A 
ATOM     17  N   UNL     1       1.491   5.950  20.739  0.00  0.00    +0.000 NA
ATOM     18  C   UNL     1       1.533   7.301  20.925  0.00  0.00    +0.000 A 
ATOM     19  N   UNL     1       2.074   7.997  19.924  0.00  0.00    +0.000 NA
ATOM     20  N   UNL     1       2.382   7.021  19.052  0.00  0.00    +0.000 N 
ATOM     21  C   UNL     1       2.985   7.356  17.787  0.00  0.00    +0.000 C 
ENDBRANCH  15  16
ENDBRANCH   2  15
TORSDOF 4
ENDMDL
MODEL 2
REMARK VINA RESULT:      -6.7      3.518      5.617
REMARK  Name = 
REMARK  6 active torsions:
REMARK  status: ('A' for Active; 'I' for Inactive)
REMARK    1  A    between atoms: C_1  and  N_2
REMARK    2  A    between atoms: N_2  and  C_3
REMARK    3  A    between atoms: C_3  and  C_4
REMARK    4  A    between atoms: N_8  and  C_9
REMARK    5  A    between atoms: C_10  and  C_12
REMARK    6  A    between atoms: C_19  and  O_20
REMARK                            x       y       z     vdW  Elec       q    Type
REMARK                         _______ _______ _______ _____ _____    ______ ____
ROOT
ATOM      1  C   UNL     1       7.994   6.672  18.208  0.00  0.00    +0.000 C 
ATOM      2  N   UNL     1       6.600   6.254  18.128  0.00  0.00    +0.000 N 
ATOM      3  C   UNL     1       6.143   5.495  19.226  0.00  0.00    +0.000 C 
ATOM      4  O   UNL     1       6.871   5.279  20.198  0.00  0.00    +0.000 OA
ENDROOT
BRANCH   3   5
ATOM      5  C   UNL     1       4.741   4.991  19.344  0.00  0.00    +0.000 A 
ATOM      6  C   UNL     1       3.768   5.981  19.591  0.00  0.00    +0.000 A 
ATOM      7  C   UNL     1       2.429   5.640  19.753  0.00  0.00    +0.000 A 
ATOM      8  F   UNL     1       1.530   6.597  20.011  0.00  0.00    +0.000 F 
ATOM      9  C   UNL     1       2.006   4.325  19.653  0.00  0.00    +0.000 A 
ATOM     10  C   UNL     1       2.958   3.336  19.444  0.00  0.00    +0.000 A 
ATOM     11 CL   UNL     1       2.442   1.690  19.335  0.00  0.00    +0.000 Cl
ATOM     12  C   UNL     1       4.323   3.655  19.336  0.00  0.00    +0.000 A 
BRANCH  12  13
ATOM     13  O   UNL     1       5.227   2.626  19.292  0.00  0.00    +0.000 OA
ATOM     14  H   UNL     1       5.932   2.821  19.941  0.00  0.00    +0.000 HD
ENDBRANCH  12  13
ENDBRANCH   3   5
BRANCH   2  15
ATOM     15  C   UNL     1       5.853   6.401  16.876  0.00  0.00    +0.000 C 
BRANCH  15  16
ATOM     16  C   UNL     1       6.212   5.488  15.753  0.00  0.00    +0.000 A 
ATOM     17  N   UNL     1       7.221   5.608  14.911  0.00  0.00    +0.000 NA
ATOM     18  C   UNL     1       7.018   4.590  14.024  0.00  0.00    +0.000 A 
ATOM     19  N   UNL     1       5.947   3.832  14.263  0.00  0.00    +0.000 NA
ATOM     20  N   UNL     1       5.443   4.416  15.364  0.00  0.00    +0.000 N 
ATOM     21  C   UNL     1       4.233   3.902  15.955  0.00  0.00    +0.000 C 
ENDBRANCH  15  16
ENDBRANCH   2  15
TORSDOF 4
ENDMDL
MODEL 3
REMARK VINA RESULT:      -6.6      0.806      1.445
REMARK  Name = 
REMARK  6 active torsions:
REMARK  status: ('A' for Active; 'I' for Inactive)
REMARK    1  A    between atoms: C_1  and  N_2
REMARK    2  A    between atoms: N_2  and  C_3
REMARK    3  A    between atoms: C_3  and  C_4
REMARK    4  A    between atoms: N_8  and  C_9
REMARK    5  A    between atoms: C_10  and  C_12
REMARK    6  A    between atoms: C_19  and  O_20
REMARK                            x       y       z     vdW  Elec       q    Type
REMARK                         _______ _______ _______ _____ _____    ______ ____
ROOT
ATOM      1  C   UNL     1       2.264   2.163  19.474  0.00  0.00    +0.000 C 
ATOM      2  N   UNL     1       2.928   3.147  18.629  0.00  0.00    +0.000 N 
ATOM      3  C   UNL     1       4.330   3.211  18.776  0.00  0.00    +0.000 C 
ATOM      4  O   UNL     1       4.928   2.429  19.519  0.00  0.00    +0.000 OA
ENDROOT
BRANCH   3   5
ATOM      5  C   UNL     1       5.194   4.138  17.984  0.00  0.00    +0.000 A 
ATOM      6  C   UNL     1       5.132   3.967  16.586  0.00  0.00    +0.000 A 
ATOM      7  C   UNL     1       5.911   4.746  15.737  0.00  0.00    +0.000 A 
ATOM      8  F   UNL     1       5.851   4.546  14.415  0.00  0.00    +0.000 F 
ATOM      9  C   UNL     1       6.752   5.728  16.234  0.00  0.00    +0.000 A 
ATOM     10  C   UNL     1       6.849   5.884  17.611  0.00  0.00    +0.000 A 
ATOM     11 CL   UNL     1       7.909   7.095  18.241  0.00  0.00    +0.000 Cl
ATOM     12  C   UNL     1       6.113   5.067  18.487  0.00  0.00    +0.000 A 
BRANCH  12  13
ATOM     13  O   UNL     1       6.371   5.160  19.829  0.00  0.00    +0.000 OA
ATOM     14  H   UNL     1       6.852   5.997  19.983  0.00  0.00    +0.000 HD
ENDBRANCH  12  13
ENDBRANCH   3   5
BRANCH   2  15
ATOM     15  C   UNL     1       2.143   4.149  17.902  0.00  0.00    +0.000 C 
BRANCH  15  16
ATOM     16  C   UNL     1       2.282   5.571  18.328  0.00  0.00    +0.000 A 
ATOM     17  N   UNL     1       2.713   6.588  17.606  0.00  0.00    +0.000 NA
ATOM     18  C   UNL     1       2.756   7.618  18.501  0.00  0.00    +0.000 A 
ATOM     19  N   UNL     1       2.369   7.312  19.740  0.00  0.00    +0.000 NA
ATOM     20  N   UNL     1       2.073   6.006  19.616  0.00  0.00    +0.000 N 
ATOM     21  C   UNL     1       1.622   5.264  20.766  0.00  0.00    +0.000 C 
ENDBRANCH  15  16
ENDBRANCH   2  15
TORSDOF 4
ENDMDL
MODEL 4
REMARK VINA RESULT:      -6.5      1.329      1.956
REMARK  Name = 
REMARK  6 active torsions:
REMARK  status: ('A' for Active; 'I' for Inactive)
REMARK    1  A    between atoms: C_1  and  N_2
REMARK    2  A    between atoms: N_2  and  C_3
REMARK    3  A    between atoms: C_3  and  C_4
REMARK    4  A    between atoms: N_8  and  C_9
REMARK    5  A    between atoms: C_10  and  C_12
REMARK    6  A    between atoms: C_19  and  O_20
REMARK                            x       y       z     vdW  Elec       q    Type
REMARK                         _______ _______ _______ _____ _____    ______ ____
ROOT
ATOM      1  C   UNL     1       1.024   3.931  20.119  0.00  0.00    +0.000 C 
ATOM      2  N   UNL     1       2.231   4.505  19.538  0.00  0.00    +0.000 N 
ATOM      3  C   UNL     1       2.964   3.632  18.706  0.00  0.00    +0.000 C 
ATOM      4  O   UNL     1       2.552   2.499  18.452  0.00  0.00    +0.000 OA
ENDROOT
BRANCH   3   5
ATOM      5  C   UNL     1       4.218   4.036  17.999  0.00  0.00    +0.000 A 
ATOM      6  C   UNL     1       4.145   4.012  16.592  0.00  0.00    +0.000 A 
ATOM      7  C   UNL     1       5.253   4.337  15.815  0.00  0.00    +0.000 A 
ATOM      8  F   UNL     1       5.163   4.280  14.481  0.00  0.00    +0.000 F 
ATOM      9  C   UNL     1       6.450   4.717  16.397  0.00  0.00    +0.000 A 
ATOM     10  C   UNL     1       6.546   4.713  17.782  0.00  0.00    +0.000 A 
ATOM     11 CL   UNL     1       8.043   5.169  18.517  0.00  0.00    +0.000 Cl
ATOM     12  C   UNL     1       5.455   4.331  18.583  0.00  0.00    +0.000 A 
BRANCH  12  13
ATOM     13  O   UNL     1       5.659   4.193  19.930  0.00  0.00    +0.000 OA
ATOM     14  H   UNL     1       6.098   3.332  20.079  0.00  0.00    +0.000 HD
ENDBRANCH  12  13
ENDBRANCH   3   5
BRANCH   2  15
ATOM     15  C   UNL     1       2.744   5.791  20.016  0.00  0.00    +0.000 C 
BRANCH  15  16
ATOM     16  C   UNL     1       2.359   7.011  19.248  0.00  0.00    +0.000 A 
ATOM     17  N   UNL     1       2.647   7.294  17.992  0.00  0.00    +0.000 NA
ATOM     18  C   UNL     1       2.168   8.562  17.834  0.00  0.00    +0.000 A 
ATOM     19  N   UNL     1       1.589   9.091  18.913  0.00  0.00    +0.000 NA
ATOM     20  N   UNL     1       1.720   8.094  19.805  0.00  0.00    +0.000 N 
ATOM     21  C   UNL     1       1.228   8.269  21.149  0.00  0.00    +0.000 C 
ENDBRANCH  15  16
ENDBRANCH   2  15
TORSDOF 4
ENDMDL
MODEL 5
REMARK VINA RESULT:      -6.5      1.833      2.200
REMARK  Name = 
REMARK  6 active torsions:
REMARK  status: ('A' for Active; 'I' for Inactive)
REMARK    1  A    between atoms: C_1  and  N_2
REMARK    2  A    between atoms: N_2  and  C_3
REMARK    3  A    between atoms: C_3  and  C_4
REMARK    4  A    between atoms: N_8  and  C_9
REMARK    5  A    between atoms: C_10  and  C_12
REMARK    6  A    between atoms: C_19  and  O_20
REMARK                            x       y       z     vdW  Elec       q    Type
REMARK                         _______ _______ _______ _____ _____    ______ ____
ROOT
ATOM      1  C   UNL     1       2.546   2.727  20.301  0.00  0.00    +0.000 C 
ATOM      2  N   UNL     1       3.215   3.611  19.355  0.00  0.00    +0.000 N 
ATOM      3  C   UNL     1       4.621   3.502  19.329  0.00  0.00    +0.000 C 
ATOM      4  O   UNL     1       5.207   2.661  20.016  0.00  0.00    +0.000 OA
ENDROOT
BRANCH   3   5
ATOM      5  C   UNL     1       5.488   4.304  18.413  0.00  0.00    +0.000 A 
ATOM      6  C   UNL     1       6.342   5.225  19.051  0.00  0.00    +0.000 A 
ATOM      7  C   UNL     1       7.178   6.054  18.310  0.00  0.00    +0.000 A 
ATOM      8  F   UNL     1       7.961   6.937  18.941  0.00  0.00    +0.000 F 
ATOM      9  C   UNL     1       7.215   5.984  16.927  0.00  0.00    +0.000 A 
ATOM     10  C   UNL     1       6.354   5.106  16.284  0.00  0.00    +0.000 A 
ATOM     11 CL   UNL     1       6.381   5.024  14.557  0.00  0.00    +0.000 Cl
ATOM     12  C   UNL     1       5.461   4.301  17.013  0.00  0.00    +0.000 A 
BRANCH  12  13
ATOM     13  O   UNL     1       4.529   3.576  16.319  0.00  0.00    +0.000 OA
ATOM     14  H   UNL     1       4.900   2.684  16.165  0.00  0.00    +0.000 HD
ENDBRANCH  12  13
ENDBRANCH   3   5
BRANCH   2  15
ATOM     15  C   UNL     1       2.474   4.693  18.701  0.00  0.00    +0.000 C 
BRANCH  15  16
ATOM     16  C   UNL     1       2.198   5.918  19.505  0.00  0.00    +0.000 A 
ATOM     17  N   UNL     1       1.599   5.992  20.679  0.00  0.00    +0.000 NA
ATOM     18  C   UNL     1       1.499   7.334  20.901  0.00  0.00    +0.000 A 
ATOM     19  N   UNL     1       2.006   8.110  19.942  0.00  0.00    +0.000 NA
ATOM     20  N   UNL     1       2.445   7.196  19.060  0.00  0.00    +0.000 N 
ATOM     21  C   UNL     1       3.062   7.628  17.831  0.00  0.00    +0.000 C 
ENDBRANCH  15  16
ENDBRANCH   2  15
TORSDOF 4
ENDMDL
MODEL 6
REMARK VINA RESULT:      -6.5      4.110      6.141
REMARK  Name = 
REMARK  6 active torsions:
REMARK  status: ('A' for Active; 'I' for Inactive)
REMARK    1  A    between atoms: C_1  and  N_2
REMARK    2  A    between atoms: N_2  and  C_3
REMARK    3  A    between atoms: C_3  and  C_4
REMARK    4  A    between atoms: N_8  and  C_9
REMARK    5  A    between atoms: C_10  and  C_12
REMARK    6  A    between atoms: C_19  and  O_20
REMARK                            x       y       z     vdW  Elec       q    Type
REMARK                         _______ _______ _______ _____ _____    ______ ____
ROOT
ATOM      1  C   UNL     1       5.165   6.828  15.522  0.00  0.00    +0.000 C 
ATOM      2  N   UNL     1       4.888   5.509  16.077  0.00  0.00    +0.000 N 
ATOM      3  C   UNL     1       4.109   5.510  17.254  0.00  0.00    +0.000 C 
ATOM      4  O   UNL     1       3.653   6.558  17.714  0.00  0.00    +0.000 OA
ENDROOT
BRANCH   3   5
ATOM      5  C   UNL     1       3.698   4.260  17.963  0.00  0.00    +0.000 A 
ATOM      6  C   UNL     1       2.335   3.923  17.839  0.00  0.00    +0.000 A 
ATOM      7  C   UNL     1       1.818   2.799  18.477  0.00  0.00    +0.000 A 
ATOM      8  F   UNL     1       0.515   2.516  18.362  0.00  0.00    +0.000 F 
ATOM      9  C   UNL     1       2.627   1.966  19.230  0.00  0.00    +0.000 A 
ATOM     10  C   UNL     1       3.964   2.305  19.389  0.00  0.00    +0.000 A 
ATOM     11 CL   UNL     1       4.978   1.280  20.343  0.00  0.00    +0.000 Cl
ATOM     12  C   UNL     1       4.492   3.467  18.800  0.00  0.00    +0.000 A 
BRANCH  12  13
ATOM     13  O   UNL     1       5.772   3.833  19.124  0.00  0.00    +0.000 OA
ATOM     14  H   UNL     1       6.088   3.225  19.823  0.00  0.00    +0.000 HD
ENDBRANCH  12  13
ENDBRANCH   3   5
BRANCH   2  15
ATOM     15  C   UNL     1       5.599   4.331  15.576  0.00  0.00    +0.000 C 
BRANCH  15  16
ATOM     16  C   UNL     1       6.537   4.531  14.433  0.00  0.00    +0.000 A 
ATOM     17  N   UNL     1       7.655   5.231  14.424  0.00  0.00    +0.000 NA
ATOM     18  C   UNL     1       8.050   5.185  13.118  0.00  0.00    +0.000 A 
ATOM     19  N   UNL     1       7.251   4.489  12.307  0.00  0.00    +0.000 NA
ATOM     20  N   UNL     1       6.292   4.081  13.156  0.00  0.00    +0.000 N 
ATOM     21  C   UNL     1       5.189   3.294  12.664  0.00  0.00    +0.000 C 
ENDBRANCH  15  16
ENDBRANCH   2  15
TORSDOF 4
ENDMDL
MODEL 7
REMARK VINA RESULT:      -6.5      1.070      1.077
REMARK  Name = 
REMARK  6 active torsions:
REMARK  status: ('A' for Active; 'I' for Inactive)
REMARK    1  A    between atoms: C_1  and  N_2
REMARK    2  A    between atoms: N_2  and  C_3
REMARK    3  A    between atoms: C_3  and  C_4
REMARK    4  A    between atoms: N_8  and  C_9
REMARK    5  A    between atoms: C_10  and  C_12
REMARK    6  A    between atoms: C_19  and  O_20
REMARK                            x       y       z     vdW  Elec       q    Type
REMARK                         _______ _______ _______ _____ _____    ______ ____
ROOT
ATOM      1  C   UNL     1       1.450   2.524  18.560  0.00  0.00    +0.000 C 
ATOM      2  N   UNL     1       2.450   3.463  18.068  0.00  0.00    +0.000 N 
ATOM      3  C   UNL     1       3.778   2.987  18.093  0.00  0.00    +0.000 C 
ATOM      4  O   UNL     1       4.034   1.832  18.443  0.00  0.00    +0.000 OA
ENDROOT
BRANCH   3   5
ATOM      5  C   UNL     1       4.944   3.787  17.609  0.00  0.00    +0.000 A 
ATOM      6  C   UNL     1       5.241   3.644  16.239  0.00  0.00    +0.000 A 
ATOM      7  C   UNL     1       6.321   4.312  15.670  0.00  0.00    +0.000 A 
ATOM      8  F   UNL     1       6.596   4.138  14.372  0.00  0.00    +0.000 F 
ATOM      9  C   UNL     1       7.121   5.155  16.423  0.00  0.00    +0.000 A 
ATOM     10  C   UNL     1       6.861   5.278  17.781  0.00  0.00    +0.000 A 
ATOM     11 CL   UNL     1       7.865   6.314  18.734  0.00  0.00    +0.000 Cl
ATOM     12  C   UNL     1       5.810   4.566  18.386  0.00  0.00    +0.000 A 
BRANCH  12  13
ATOM     13  O   UNL     1       5.703   4.605  19.751  0.00  0.00    +0.000 OA
ATOM     14  H   UNL     1       5.179   3.828  20.031  0.00  0.00    +0.000 HD
ENDBRANCH  12  13
ENDBRANCH   3   5
BRANCH   2  15
ATOM     15  C   UNL     1       2.096   4.865  17.829  0.00  0.00    +0.000 C 
BRANCH  15  16
ATOM     16  C   UNL     1       2.059   5.773  19.012  0.00  0.00    +0.000 A 
ATOM     17  N   UNL     1       1.708   5.470  20.247  0.00  0.00    +0.000 NA
ATOM     18  C   UNL     1       1.736   6.674  20.890  0.00  0.00    +0.000 A 
ATOM     19  N   UNL     1       2.092   7.714  20.136  0.00  0.00    +0.000 NA
ATOM     20  N   UNL     1       2.292   7.127  18.943  0.00  0.00    +0.000 N 
ATOM     21  C   UNL     1       2.681   7.927  17.809  0.00  0.00    +0.000 C 
ENDBRANCH  15  16
ENDBRANCH   2  15
TORSDOF 4
ENDMDL
MODEL 8
REMARK VINA RESULT:      -6.5      3.442      5.454
REMARK  Name = 
REMARK  6 active torsions:
REMARK  status: ('A' for Active; 'I' for Inactive)
REMARK    1  A    between atoms: C_1  and  N_2
REMARK    2  A    between atoms: N_2  and  C_3
REMARK    3  A    between atoms: C_3  and  C_4
REMARK    4  A    between atoms: N_8  and  C_9
REMARK    5  A    between atoms: C_10  and  C_12
REMARK    6  A    between atoms: C_19  and  O_20
REMARK                            x       y       z     vdW  Elec       q    Type
REMARK                         _______ _______ _______ _____ _____    ______ ____
ROOT
ATOM      1  C   UNL     1       7.808   6.959  18.174  0.00  0.00    +0.000 C 
ATOM      2  N   UNL     1       6.519   6.279  18.148  0.00  0.00    +0.000 N 
ATOM      3  C   UNL     1       6.280   5.413  19.236  0.00  0.00    +0.000 C 
ATOM      4  O   UNL     1       7.090   5.315  20.161  0.00  0.00    +0.000 OA
ENDROOT
BRANCH   3   5
ATOM      5  C   UNL     1       5.011   4.643  19.405  0.00  0.00    +0.000 A 
ATOM      6  C   UNL     1       5.100   3.269  19.101  0.00  0.00    +0.000 A 
ATOM      7  C   UNL     1       3.981   2.446  19.188  0.00  0.00    +0.000 A 
ATOM      8  F   UNL     1       4.089   1.151  18.869  0.00  0.00    +0.000 F 
ATOM      9  C   UNL     1       2.756   2.942  19.599  0.00  0.00    +0.000 A 
ATOM     10  C   UNL     1       2.646   4.300  19.869  0.00  0.00    +0.000 A 
ATOM     11 CL   UNL     1       1.115   4.932  20.364  0.00  0.00    +0.000 Cl
ATOM     12  C   UNL     1       3.751   5.158  19.730  0.00  0.00    +0.000 A 
BRANCH  12  13
ATOM     13  O   UNL     1       3.542   6.506  19.854  0.00  0.00    +0.000 OA
ATOM     14  H   UNL     1       3.335   6.859  18.966  0.00  0.00    +0.000 HD
ENDBRANCH  12  13
ENDBRANCH   3   5
BRANCH   2  15
ATOM     15  C   UNL     1       5.688   6.314  16.942  0.00  0.00    +0.000 C 
BRANCH  15  16
ATOM     16  C   UNL     1       6.106   5.458  15.795  0.00  0.00    +0.000 A 
ATOM     17  N   UNL     1       7.142   5.634  14.997  0.00  0.00    +0.000 NA
ATOM     18  C   UNL     1       6.994   4.651  14.062  0.00  0.00    +0.000 A 
ATOM     19  N   UNL     1       5.932   3.861  14.229  0.00  0.00    +0.000 NA
ATOM     20  N   UNL     1       5.376   4.387  15.335  0.00  0.00    +0.000 N 
ATOM     21  C   UNL     1       4.158   3.823  15.860  0.00  0.00    +0.000 C 
ENDBRANCH  15  16
ENDBRANCH   2  15
TORSDOF 4
ENDMDL
MODEL 9
REMARK VINA RESULT:      -6.4      3.210      4.961
REMARK  Name = 
REMARK  6 active torsions:
REMARK  status: ('A' for Active; 'I' for Inactive)
REMARK    1  A    between atoms: C_1  and  N_2
REMARK    2  A    between atoms: N_2  and  C_3
REMARK    3  A    between atoms: C_3  and  C_4
REMARK    4  A    between atoms: N_8  and  C_9
REMARK    5  A    between atoms: C_10  and  C_12
REMARK    6  A    between atoms: C_19  and  O_20
REMARK                            x       y       z     vdW  Elec       q    Type
REMARK                         _______ _______ _______ _____ _____    ______ ____
ROOT
ATOM      1  C   UNL     1       3.473   1.989  18.109  0.00  0.00    +0.000 C 
ATOM      2  N   UNL     1       3.534   3.378  18.549  0.00  0.00    +0.000 N 
ATOM      3  C   UNL     1       2.366   4.131  18.308  0.00  0.00    +0.000 C 
ATOM      4  O   UNL     1       1.360   3.607  17.825  0.00  0.00    +0.000 OA
ENDROOT
BRANCH   3   5
ATOM      5  C   UNL     1       2.220   5.564  18.704  0.00  0.00    +0.000 A 
ATOM      6  C   UNL     1       2.493   6.498  17.684  0.00  0.00    +0.000 A 
ATOM      7  C   UNL     1       2.424   7.866  17.932  0.00  0.00    +0.000 A 
ATOM      8  F   UNL     1       2.712   8.730  16.952  0.00  0.00    +0.000 F 
ATOM      9  C   UNL     1       2.062   8.351  19.177  0.00  0.00    +0.000 A 
ATOM     10  C   UNL     1       1.824   7.444  20.200  0.00  0.00    +0.000 A 
ATOM     11 CL   UNL     1       1.389   8.041  21.763  0.00  0.00    +0.000 Cl
ATOM     12  C   UNL     1       1.946   6.060  19.985  0.00  0.00    +0.000 A 
BRANCH  12  13
ATOM     13  O   UNL     1       1.856   5.225  21.067  0.00  0.00    +0.000 OA
ATOM     14  H   UNL     1       2.564   4.555  20.987  0.00  0.00    +0.000 HD
ENDBRANCH  12  13
ENDBRANCH   3   5
BRANCH   2  15
ATOM     15  C   UNL     1       4.811   3.970  18.956  0.00  0.00    +0.000 C 
BRANCH  15  16
ATOM     16  C   UNL     1       5.735   4.417  17.874  0.00  0.00    +0.000 A 
ATOM     17  N   UNL     1       5.679   4.112  16.592  0.00  0.00    +0.000 NA
ATOM     18  C   UNL     1       6.812   4.675  16.081  0.00  0.00    +0.000 A 
ATOM     19  N   UNL     1       7.573   5.325  16.963  0.00  0.00    +0.000 NA
ATOM     20  N   UNL     1       6.877   5.151  18.100  0.00  0.00    +0.000 N 
ATOM     21  C   UNL     1       7.380   5.695  19.336  0.00  0.00    +0.000 C 
ENDBRANCH  15  16
ENDBRANCH   2  15
TORSDOF 4
ENDMDL
