MODEL 1
REMARK VINA RESULT:      -5.6      0.000      0.000
REMARK  Name = 
REMARK  7 active torsions:
REMARK  status: ('A' for Active; 'I' for Inactive)
REMARK    1  A    between atoms: C_1  and  N_2
REMARK    2  A    between atoms: N_2  and  C_3
REMARK    3  A    between atoms: N_2  and  C_4
REMARK    4  A    between atoms: N_2  and  C_5
REMARK    5  A    between atoms: C_5  and  C_6
REMARK    6  A    between atoms: C_10  and  C_11
REMARK    7  A    between atoms: C_10  and  C_17
REMARK                            x       y       z     vdW  Elec       q    Type
REMARK                         _______ _______ _______ _____ _____    ______ ____
ROOT
ATOM      1  C   UNL     1       7.907  15.166  18.857  0.00  0.00    +0.000 C 
ATOM      2  C   UNL     1       8.897  15.706  17.854  0.00  0.00    +0.000 C 
ATOM      3  S   UNL     1      10.403  15.861  18.822  0.00  0.00    +0.000 S 
ATOM      4  O   UNL     1      11.615  15.788  17.839  0.00  0.00    +0.000 OA
ATOM      5  C   UNL     1       9.984  14.286  19.747  0.00  0.00    +0.000 C 
ATOM      6  O   UNL     1       8.543  14.052  19.521  0.00  0.00    +0.000 OA
ENDROOT
BRANCH   5   7
ATOM      7  C   UNL     1      10.282  14.594  21.295  0.00  0.00    +0.000 C 
ATOM      8  C   UNL     1      10.587  16.063  21.691  0.00  0.00    +0.000 C 
ATOM      9  C   UNL     1       9.367  16.933  21.938  0.00  0.00    +0.000 C 
ATOM     10  C   UNL     1       8.350  16.320  22.882  0.00  0.00    +0.000 C 
ATOM     11  C   UNL     1       8.009  14.891  22.490  0.00  0.00    +0.000 C 
ATOM     12  C   UNL     1       9.265  14.044  22.328  0.00  0.00    +0.000 C 
ENDBRANCH   5   7
BRANCH   5  13
ATOM     13  C   UNL     1      10.731  12.952  19.304  0.00  0.00    +0.000 C 
ATOM     14  C   UNL     1      10.919  11.814  20.325  0.00  0.00    +0.000 C 
ATOM     15  C   UNL     1       9.739  10.868  20.455  0.00  0.00    +0.000 C 
ATOM     16  C   UNL     1       9.175  10.385  19.116  0.00  0.00    +0.000 C 
ATOM     17  C   UNL     1       9.154  11.402  17.971  0.00  0.00    +0.000 C 
ATOM     18  C   UNL     1      10.371  12.309  17.945  0.00  0.00    +0.000 C 
ENDBRANCH   5  13
BRANCH   1  19
ATOM     19  C   UNL     1       6.565  14.823  18.147  0.00  0.00    +0.000 C 
BRANCH  19  21
ATOM     20  C   UNL     1       5.534  16.994  18.884  0.00  0.00    +0.000 C 
ATOM     21  N   UNL     1       5.278  15.490  18.710  0.00  0.00    +0.000 N 
ATOM     22  C   UNL     1       4.879  14.961  20.080  0.00  0.00    +0.000 C 
ATOM     23  C   UNL     1       4.131  15.342  17.716  0.00  0.00    +0.000 C 
ENDBRANCH  19  21
ENDBRANCH   1  19
TORSDOF 4
ENDMDL
MODEL 2
REMARK VINA RESULT:      -5.5      1.302      1.653
REMARK  Name = 
REMARK  7 active torsions:
REMARK  status: ('A' for Active; 'I' for Inactive)
REMARK    1  A    between atoms: C_1  and  N_2
REMARK    2  A    between atoms: N_2  and  C_3
REMARK    3  A    between atoms: N_2  and  C_4
REMARK    4  A    between atoms: N_2  and  C_5
REMARK    5  A    between atoms: C_5  and  C_6
REMARK    6  A    between atoms: C_10  and  C_11
REMARK    7  A    between atoms: C_10  and  C_17
REMARK                            x       y       z     vdW  Elec       q    Type
REMARK                         _______ _______ _______ _____ _____    ______ ____
ROOT
ATOM      1  C   UNL     1       7.115  15.220  19.017  0.00  0.00    +0.000 C 
ATOM      2  C   UNL     1       7.760  16.453  18.433  0.00  0.00    +0.000 C 
ATOM      3  S   UNL     1       9.282  16.595  19.377  0.00  0.00    +0.000 S 
ATOM      4  O   UNL     1      10.313  17.386  18.511  0.00  0.00    +0.000 OA
ATOM      5  C   UNL     1       9.460  14.730  19.391  0.00  0.00    +0.000 C 
ATOM      6  O   UNL     1       8.128  14.190  19.052  0.00  0.00    +0.000 OA
ENDROOT
BRANCH   5   7
ATOM      7  C   UNL     1       9.875  14.339  20.893  0.00  0.00    +0.000 C 
ATOM      8  C   UNL     1       9.763  15.441  21.980  0.00  0.00    +0.000 C 
ATOM      9  C   UNL     1       8.383  15.605  22.594  0.00  0.00    +0.000 C 
ATOM     10  C   UNL     1       7.760  14.307  23.074  0.00  0.00    +0.000 C 
ATOM     11  C   UNL     1       7.828  13.224  22.010  0.00  0.00    +0.000 C 
ATOM     12  C   UNL     1       9.246  13.050  21.482  0.00  0.00    +0.000 C 
ENDBRANCH   5   7
BRANCH   5  13
ATOM     13  C   UNL     1      10.484  14.082  18.357  0.00  0.00    +0.000 C 
ATOM     14  C   UNL     1      11.972  13.964  18.738  0.00  0.00    +0.000 C 
ATOM     15  C   UNL     1      12.330  12.733  19.552  0.00  0.00    +0.000 C 
ATOM     16  C   UNL     1      11.746  11.429  19.002  0.00  0.00    +0.000 C 
ATOM     17  C   UNL     1      10.340  11.504  18.399  0.00  0.00    +0.000 C 
ATOM     18  C   UNL     1      10.083  12.783  17.622  0.00  0.00    +0.000 C 
ENDBRANCH   5  13
BRANCH   1  19
ATOM     19  C   UNL     1       5.838  14.853  18.205  0.00  0.00    +0.000 C 
BRANCH  19  21
ATOM     20  C   UNL     1       3.946  16.475  18.532  0.00  0.00    +0.000 C 
ATOM     21  N   UNL     1       4.469  15.080  18.904  0.00  0.00    +0.000 N 
ATOM     22  C   UNL     1       4.558  15.046  20.423  0.00  0.00    +0.000 C 
ATOM     23  C   UNL     1       3.446  14.068  18.399  0.00  0.00    +0.000 C 
ENDBRANCH  19  21
ENDBRANCH   1  19
TORSDOF 4
ENDMDL
MODEL 3
REMARK VINA RESULT:      -5.4      1.570      2.110
REMARK  Name = 
REMARK  7 active torsions:
REMARK  status: ('A' for Active; 'I' for Inactive)
REMARK    1  A    between atoms: C_1  and  N_2
REMARK    2  A    between atoms: N_2  and  C_3
REMARK    3  A    between atoms: N_2  and  C_4
REMARK    4  A    between atoms: N_2  and  C_5
REMARK    5  A    between atoms: C_5  and  C_6
REMARK    6  A    between atoms: C_10  and  C_11
REMARK    7  A    between atoms: C_10  and  C_17
REMARK                            x       y       z     vdW  Elec       q    Type
REMARK                         _______ _______ _______ _____ _____    ______ ____
ROOT
ATOM      1  C   UNL     1       7.671  16.098  19.458  0.00  0.00    +0.000 C 
ATOM      2  C   UNL     1       8.128  16.917  18.276  0.00  0.00    +0.000 C 
ATOM      3  S   UNL     1       9.900  16.621  18.243  0.00  0.00    +0.000 S 
ATOM      4  O   UNL     1      10.399  16.853  16.782  0.00  0.00    +0.000 OA
ATOM      5  C   UNL     1       9.622  14.840  18.758  0.00  0.00    +0.000 C 
ATOM      6  O   UNL     1       8.254  14.784  19.312  0.00  0.00    +0.000 OA
ENDROOT
BRANCH   5   7
ATOM      7  C   UNL     1      10.717  14.535  19.893  0.00  0.00    +0.000 C 
ATOM      8  C   UNL     1      11.541  15.732  20.437  0.00  0.00    +0.000 C 
ATOM      9  C   UNL     1      10.872  16.525  21.548  0.00  0.00    +0.000 C 
ATOM     10  C   UNL     1      10.342  15.672  22.685  0.00  0.00    +0.000 C 
ATOM     11  C   UNL     1       9.502  14.513  22.174  0.00  0.00    +0.000 C 
ATOM     12  C   UNL     1      10.247  13.708  21.117  0.00  0.00    +0.000 C 
ENDBRANCH   5   7
BRANCH   5  13
ATOM     13  C   UNL     1       9.692  13.727  17.621  0.00  0.00    +0.000 C 
ATOM     14  C   UNL     1      11.063  13.179  17.180  0.00  0.00    +0.000 C 
ATOM     15  C   UNL     1      11.606  12.049  18.036  0.00  0.00    +0.000 C 
ATOM     16  C   UNL     1      10.587  10.946  18.335  0.00  0.00    +0.000 C 
ATOM     17  C   UNL     1       9.141  11.390  18.572  0.00  0.00    +0.000 C 
ATOM     18  C   UNL     1       8.706  12.538  17.677  0.00  0.00    +0.000 C 
ENDBRANCH   5  13
BRANCH   1  19
ATOM     19  C   UNL     1       6.117  16.115  19.548  0.00  0.00    +0.000 C 
BRANCH  19  21
ATOM     20  C   UNL     1       4.047  16.624  20.881  0.00  0.00    +0.000 C 
ATOM     21  N   UNL     1       5.493  16.115  20.972  0.00  0.00    +0.000 N 
ATOM     22  C   UNL     1       6.214  17.040  21.942  0.00  0.00    +0.000 C 
ATOM     23  C   UNL     1       5.435  14.693  21.520  0.00  0.00    +0.000 C 
ENDBRANCH  19  21
ENDBRANCH   1  19
TORSDOF 4
ENDMDL
MODEL 4
REMARK VINA RESULT:      -5.3      1.496      2.090
REMARK  Name = 
REMARK  7 active torsions:
REMARK  status: ('A' for Active; 'I' for Inactive)
REMARK    1  A    between atoms: C_1  and  N_2
REMARK    2  A    between atoms: N_2  and  C_3
REMARK    3  A    between atoms: N_2  and  C_4
REMARK    4  A    between atoms: N_2  and  C_5
REMARK    5  A    between atoms: C_5  and  C_6
REMARK    6  A    between atoms: C_10  and  C_11
REMARK    7  A    between atoms: C_10  and  C_17
REMARK                            x       y       z     vdW  Elec       q    Type
REMARK                         _______ _______ _______ _____ _____    ______ ____
ROOT
ATOM      1  C   UNL     1       6.970  15.372  19.663  0.00  0.00    +0.000 C 
ATOM      2  C   UNL     1       7.354  16.444  18.674  0.00  0.00    +0.000 C 
ATOM      3  S   UNL     1       9.138  16.545  18.862  0.00  0.00    +0.000 S 
ATOM      4  O   UNL     1       9.730  17.104  17.530  0.00  0.00    +0.000 OA
ATOM      5  C   UNL     1       9.228  14.688  19.100  0.00  0.00    +0.000 C 
ATOM      6  O   UNL     1       7.857  14.254  19.439  0.00  0.00    +0.000 OA
ENDROOT
BRANCH   5   7
ATOM      7  C   UNL     1      10.228  14.452  20.334  0.00  0.00    +0.000 C 
ATOM      8  C   UNL     1      10.545  15.666  21.246  0.00  0.00    +0.000 C 
ATOM      9  C   UNL     1       9.534  15.929  22.349  0.00  0.00    +0.000 C 
ATOM     10  C   UNL     1       9.191  14.706  23.178  0.00  0.00    +0.000 C 
ATOM     11  C   UNL     1       8.841  13.513  22.303  0.00  0.00    +0.000 C 
ATOM     12  C   UNL     1       9.924  13.249  21.264  0.00  0.00    +0.000 C 
ENDBRANCH   5   7
BRANCH   5  13
ATOM     13  C   UNL     1       9.683  13.808  17.854  0.00  0.00    +0.000 C 
ATOM     14  C   UNL     1      11.168  13.787  17.443  0.00  0.00    +0.000 C 
ATOM     15  C   UNL     1      12.028  12.792  18.201  0.00  0.00    +0.000 C 
ATOM     16  C   UNL     1      11.416  11.393  18.311  0.00  0.00    +0.000 C 
ATOM     17  C   UNL     1       9.899  11.318  18.503  0.00  0.00    +0.000 C 
ATOM     18  C   UNL     1       9.136  12.369  17.715  0.00  0.00    +0.000 C 
ENDBRANCH   5  13
BRANCH   1  19
ATOM     19  C   UNL     1       5.455  15.041  19.528  0.00  0.00    +0.000 C 
BRANCH  19  21
ATOM     20  C   UNL     1       5.451  15.113  22.041  0.00  0.00    +0.000 C 
ATOM     21  N   UNL     1       4.572  15.252  20.790  0.00  0.00    +0.000 N 
ATOM     22  C   UNL     1       3.464  14.217  20.926  0.00  0.00    +0.000 C 
ATOM     23  C   UNL     1       3.997  16.665  20.799  0.00  0.00    +0.000 C 
ENDBRANCH  19  21
ENDBRANCH   1  19
TORSDOF 4
ENDMDL
MODEL 5
REMARK VINA RESULT:      -5.2      2.237      3.949
REMARK  Name = 
REMARK  7 active torsions:
REMARK  status: ('A' for Active; 'I' for Inactive)
REMARK    1  A    between atoms: C_1  and  N_2
REMARK    2  A    between atoms: N_2  and  C_3
REMARK    3  A    between atoms: N_2  and  C_4
REMARK    4  A    between atoms: N_2  and  C_5
REMARK    5  A    between atoms: C_5  and  C_6
REMARK    6  A    between atoms: C_10  and  C_11
REMARK    7  A    between atoms: C_10  and  C_17
REMARK                            x       y       z     vdW  Elec       q    Type
REMARK                         _______ _______ _______ _____ _____    ______ ____
ROOT
ATOM      1  C   UNL     1       7.819  15.451  20.909  0.00  0.00    +0.000 C 
ATOM      2  C   UNL     1       6.680  15.059  20.000  0.00  0.00    +0.000 C 
ATOM      3  S   UNL     1       7.469  14.962  18.388  0.00  0.00    +0.000 S 
ATOM      4  O   UNL     1       6.628  13.991  17.500  0.00  0.00    +0.000 OA
ATOM      5  C   UNL     1       9.013  14.248  19.174  0.00  0.00    +0.000 C 
ATOM      6  O   UNL     1       8.919  14.562  20.614  0.00  0.00    +0.000 OA
ENDROOT
BRANCH   5   7
ATOM      7  C   UNL     1      10.248  15.017  18.495  0.00  0.00    +0.000 C 
ATOM      8  C   UNL     1       9.941  16.328  17.723  0.00  0.00    +0.000 C 
ATOM      9  C   UNL     1       9.864  17.580  18.579  0.00  0.00    +0.000 C 
ATOM     10  C   UNL     1      11.046  17.767  19.512  0.00  0.00    +0.000 C 
ATOM     11  C   UNL     1      11.341  16.504  20.305  0.00  0.00    +0.000 C 
ATOM     12  C   UNL     1      11.482  15.293  19.392  0.00  0.00    +0.000 C 
ENDBRANCH   5   7
BRANCH   5  13
ATOM     13  C   UNL     1       9.229  12.673  19.071  0.00  0.00    +0.000 C 
ATOM     14  C   UNL     1       9.878  12.079  17.806  0.00  0.00    +0.000 C 
ATOM     15  C   UNL     1      11.396  12.083  17.801  0.00  0.00    +0.000 C 
ATOM     16  C   UNL     1      12.026  11.567  19.098  0.00  0.00    +0.000 C 
ATOM     17  C   UNL     1      11.314  11.932  20.403  0.00  0.00    +0.000 C 
ATOM     18  C   UNL     1       9.799  11.915  20.292  0.00  0.00    +0.000 C 
ENDBRANCH   5  13
BRANCH   1  19
ATOM     19  C   UNL     1       7.346  15.434  22.392  0.00  0.00    +0.000 C 
BRANCH  19  21
ATOM     20  C   UNL     1       8.567  17.620  22.619  0.00  0.00    +0.000 C 
ATOM     21  N   UNL     1       8.092  16.373  23.380  0.00  0.00    +0.000 N 
ATOM     22  C   UNL     1       9.337  15.739  23.985  0.00  0.00    +0.000 C 
ATOM     23  C   UNL     1       7.141  16.850  24.473  0.00  0.00    +0.000 C 
ENDBRANCH  19  21
ENDBRANCH   1  19
TORSDOF 4
ENDMDL
MODEL 6
REMARK VINA RESULT:      -5.2      1.277      1.595
REMARK  Name = 
REMARK  7 active torsions:
REMARK  status: ('A' for Active; 'I' for Inactive)
REMARK    1  A    between atoms: C_1  and  N_2
REMARK    2  A    between atoms: N_2  and  C_3
REMARK    3  A    between atoms: N_2  and  C_4
REMARK    4  A    between atoms: N_2  and  C_5
REMARK    5  A    between atoms: C_5  and  C_6
REMARK    6  A    between atoms: C_10  and  C_11
REMARK    7  A    between atoms: C_10  and  C_17
REMARK                            x       y       z     vdW  Elec       q    Type
REMARK                         _______ _______ _______ _____ _____    ______ ____
ROOT
ATOM      1  C   UNL     1       7.525  15.138  19.813  0.00  0.00    +0.000 C 
ATOM      2  C   UNL     1       8.607  16.123  19.445  0.00  0.00    +0.000 C 
ATOM      3  S   UNL     1       9.783  15.948  20.792  0.00  0.00    +0.000 S 
ATOM      4  O   UNL     1      11.186  16.389  20.265  0.00  0.00    +0.000 OA
ATOM      5  C   UNL     1       9.456  14.104  20.853  0.00  0.00    +0.000 C 
ATOM      6  O   UNL     1       8.181  13.893  20.139  0.00  0.00    +0.000 OA
ENDROOT
BRANCH   5   7
ATOM      7  C   UNL     1       9.314  13.734  22.409  0.00  0.00    +0.000 C 
ATOM      8  C   UNL     1       9.062  14.897  23.405  0.00  0.00    +0.000 C 
ATOM      9  C   UNL     1       7.610  15.317  23.556  0.00  0.00    +0.000 C 
ATOM     10  C   UNL     1       6.657  14.166  23.818  0.00  0.00    +0.000 C 
ATOM     11  C   UNL     1       6.862  13.029  22.830  0.00  0.00    +0.000 C 
ATOM     12  C   UNL     1       8.322  12.599  22.773  0.00  0.00    +0.000 C 
ENDBRANCH   5   7
BRANCH   5  13
ATOM     13  C   UNL     1      10.523  13.145  20.161  0.00  0.00    +0.000 C 
ATOM     14  C   UNL     1      10.529  11.644  20.508  0.00  0.00    +0.000 C 
ATOM     15  C   UNL     1       9.553  10.797  19.711  0.00  0.00    +0.000 C 
ATOM     16  C   UNL     1       9.581  11.065  18.203  0.00  0.00    +0.000 C 
ATOM     17  C   UNL     1       9.792  12.517  17.765  0.00  0.00    +0.000 C 
ATOM     18  C   UNL     1      10.773  13.277  18.641  0.00  0.00    +0.000 C 
ENDBRANCH   5  13
BRANCH   1  19
ATOM     19  C   UNL     1       6.479  15.044  18.663  0.00  0.00    +0.000 C 
BRANCH  19  21
ATOM     20  C   UNL     1       4.943  16.973  19.154  0.00  0.00    +0.000 C 
ATOM     21  N   UNL     1       5.017  15.446  19.006  0.00  0.00    +0.000 N 
ATOM     22  C   UNL     1       4.528  14.862  20.324  0.00  0.00    +0.000 C 
ATOM     23  C   UNL     1       4.083  15.060  17.864  0.00  0.00    +0.000 C 
ENDBRANCH  19  21
ENDBRANCH   1  19
TORSDOF 4
ENDMDL
MODEL 7
REMARK VINA RESULT:      -5.2      0.875      1.356
REMARK  Name = 
REMARK  7 active torsions:
REMARK  status: ('A' for Active; 'I' for Inactive)
REMARK    1  A    between atoms: C_1  and  N_2
REMARK    2  A    between atoms: N_2  and  C_3
REMARK    3  A    between atoms: N_2  and  C_4
REMARK    4  A    between atoms: N_2  and  C_5
REMARK    5  A    between atoms: C_5  and  C_6
REMARK    6  A    between atoms: C_10  and  C_11
REMARK    7  A    between atoms: C_10  and  C_17
REMARK                            x       y       z     vdW  Elec       q    Type
REMARK                         _______ _______ _______ _____ _____    ______ ____
ROOT
ATOM      1  C   UNL     1       7.842  15.374  19.030  0.00  0.00    +0.000 C 
ATOM      2  C   UNL     1       8.439  15.786  17.706  0.00  0.00    +0.000 C 
ATOM      3  S   UNL     1      10.149  16.140  18.130  0.00  0.00    +0.000 S 
ATOM      4  O   UNL     1      11.011  15.958  16.840  0.00  0.00    +0.000 OA
ATOM      5  C   UNL     1      10.154  14.713  19.345  0.00  0.00    +0.000 C 
ATOM      6  O   UNL     1       8.736  14.398  19.609  0.00  0.00    +0.000 OA
ENDROOT
BRANCH   5   7
ATOM      7  C   UNL     1      10.878  15.265  20.668  0.00  0.00    +0.000 C 
ATOM      8  C   UNL     1      11.203  16.781  20.730  0.00  0.00    +0.000 C 
ATOM      9  C   UNL     1      10.063  17.669  21.200  0.00  0.00    +0.000 C 
ATOM     10  C   UNL     1       9.407  17.204  22.487  0.00  0.00    +0.000 C 
ATOM     11  C   UNL     1       9.047  15.727  22.433  0.00  0.00    +0.000 C 
ATOM     12  C   UNL     1      10.245  14.877  22.029  0.00  0.00    +0.000 C 
ENDBRANCH   5   7
BRANCH   5  13
ATOM     13  C   UNL     1      10.838  13.352  18.878  0.00  0.00    +0.000 C 
ATOM     14  C   UNL     1      11.291  12.330  19.938  0.00  0.00    +0.000 C 
ATOM     15  C   UNL     1      10.207  11.383  20.420  0.00  0.00    +0.000 C 
ATOM     16  C   UNL     1       9.381  10.754  19.294  0.00  0.00    +0.000 C 
ATOM     17  C   UNL     1       9.068  11.646  18.089  0.00  0.00    +0.000 C 
ATOM     18  C   UNL     1      10.213  12.566  17.703  0.00  0.00    +0.000 C 
ENDBRANCH   5  13
BRANCH   1  19
ATOM     19  C   UNL     1       6.381  14.879  18.823  0.00  0.00    +0.000 C 
BRANCH  19  21
ATOM     20  C   UNL     1       4.226  14.766  20.113  0.00  0.00    +0.000 C 
ATOM     21  N   UNL     1       5.252  15.719  19.484  0.00  0.00    +0.000 N 
ATOM     22  C   UNL     1       4.486  16.581  18.491  0.00  0.00    +0.000 C 
ATOM     23  C   UNL     1       5.823  16.571  20.613  0.00  0.00    +0.000 C 
ENDBRANCH  19  21
ENDBRANCH   1  19
TORSDOF 4
ENDMDL
MODEL 8
REMARK VINA RESULT:      -5.0      1.569      2.317
REMARK  Name = 
REMARK  7 active torsions:
REMARK  status: ('A' for Active; 'I' for Inactive)
REMARK    1  A    between atoms: C_1  and  N_2
REMARK    2  A    between atoms: N_2  and  C_3
REMARK    3  A    between atoms: N_2  and  C_4
REMARK    4  A    between atoms: N_2  and  C_5
REMARK    5  A    between atoms: C_5  and  C_6
REMARK    6  A    between atoms: C_10  and  C_11
REMARK    7  A    between atoms: C_10  and  C_17
REMARK                            x       y       z     vdW  Elec       q    Type
REMARK                         _______ _______ _______ _____ _____    ______ ____
ROOT
ATOM      1  C   UNL     1       7.661  14.849  20.175  0.00  0.00    +0.000 C 
ATOM      2  C   UNL     1       8.850  15.758  19.986  0.00  0.00    +0.000 C 
ATOM      3  S   UNL     1       9.834  15.443  21.457  0.00  0.00    +0.000 S 
ATOM      4  O   UNL     1      11.320  15.790  21.124  0.00  0.00    +0.000 OA
ATOM      5  C   UNL     1       9.366  13.629  21.394  0.00  0.00    +0.000 C 
ATOM      6  O   UNL     1       8.177  13.545  20.521  0.00  0.00    +0.000 OA
ENDROOT
BRANCH   5   7
ATOM      7  C   UNL     1       9.004  13.216  22.903  0.00  0.00    +0.000 C 
ATOM      8  C   UNL     1       8.654  14.356  23.896  0.00  0.00    +0.000 C 
ATOM      9  C   UNL     1       7.207  14.818  23.866  0.00  0.00    +0.000 C 
ATOM     10  C   UNL     1       6.195  13.691  23.957  0.00  0.00    +0.000 C 
ATOM     11  C   UNL     1       6.499  12.579  22.966  0.00  0.00    +0.000 C 
ATOM     12  C   UNL     1       7.941  12.103  23.090  0.00  0.00    +0.000 C 
ENDBRANCH   5   7
BRANCH   5  13
ATOM     13  C   UNL     1      10.436  12.614  20.793  0.00  0.00    +0.000 C 
ATOM     14  C   UNL     1      10.035  11.146  20.551  0.00  0.00    +0.000 C 
ATOM     15  C   UNL     1       9.343  10.882  19.226  0.00  0.00    +0.000 C 
ATOM     16  C   UNL     1      10.036  11.522  18.020  0.00  0.00    +0.000 C 
ATOM     17  C   UNL     1      10.660  12.903  18.237  0.00  0.00    +0.000 C 
ATOM     18  C   UNL     1      11.309  13.066  19.600  0.00  0.00    +0.000 C 
ENDBRANCH   5  13
BRANCH   1  19
ATOM     19  C   UNL     1       6.762  14.879  18.904  0.00  0.00    +0.000 C 
BRANCH  19  21
ATOM     20  C   UNL     1       4.490  15.114  17.854  0.00  0.00    +0.000 C 
ATOM     21  N   UNL     1       5.359  15.533  19.049  0.00  0.00    +0.000 N 
ATOM     22  C   UNL     1       5.403  17.055  19.035  0.00  0.00    +0.000 C 
ATOM     23  C   UNL     1       4.667  15.023  20.308  0.00  0.00    +0.000 C 
ENDBRANCH  19  21
ENDBRANCH   1  19
TORSDOF 4
ENDMDL
MODEL 9
REMARK VINA RESULT:      -5.0      2.257      3.702
REMARK  Name = 
REMARK  7 active torsions:
REMARK  status: ('A' for Active; 'I' for Inactive)
REMARK    1  A    between atoms: C_1  and  N_2
REMARK    2  A    between atoms: N_2  and  C_3
REMARK    3  A    between atoms: N_2  and  C_4
REMARK    4  A    between atoms: N_2  and  C_5
REMARK    5  A    between atoms: C_5  and  C_6
REMARK    6  A    between atoms: C_10  and  C_11
REMARK    7  A    between atoms: C_10  and  C_17
REMARK                            x       y       z     vdW  Elec       q    Type
REMARK                         _______ _______ _______ _____ _____    ______ ____
ROOT
ATOM      1  C   UNL     1       7.282  14.687  21.301  0.00  0.00    +0.000 C 
ATOM      2  C   UNL     1       6.343  14.740  20.121  0.00  0.00    +0.000 C 
ATOM      3  S   UNL     1       7.412  15.281  18.782  0.00  0.00    +0.000 S 
ATOM      4  O   UNL     1       6.786  14.787  17.438  0.00  0.00    +0.000 OA
ATOM      5  C   UNL     1       8.818  14.254  19.475  0.00  0.00    +0.000 C 
ATOM      6  O   UNL     1       8.453  13.957  20.875  0.00  0.00    +0.000 OA
ENDROOT
BRANCH   5   7
ATOM      7  C   UNL     1      10.121  15.190  19.405  0.00  0.00    +0.000 C 
ATOM      8  C   UNL     1       9.910  16.695  19.094  0.00  0.00    +0.000 C 
ATOM      9  C   UNL     1       9.573  17.563  20.295  0.00  0.00    +0.000 C 
ATOM     10  C   UNL     1      10.511  17.380  21.473  0.00  0.00    +0.000 C 
ATOM     11  C   UNL     1      10.703  15.912  21.817  0.00  0.00    +0.000 C 
ATOM     12  C   UNL     1      11.113  15.103  20.593  0.00  0.00    +0.000 C 
ENDBRANCH   5   7
BRANCH   5  13
ATOM     13  C   UNL     1       9.116  12.852  18.781  0.00  0.00    +0.000 C 
ATOM     14  C   UNL     1      10.008  12.803  17.526  0.00  0.00    +0.000 C 
ATOM     15  C   UNL     1      11.500  12.753  17.801  0.00  0.00    +0.000 C 
ATOM     16  C   UNL     1      11.905  11.730  18.866  0.00  0.00    +0.000 C 
ATOM     17  C   UNL     1      10.953  11.557  20.053  0.00  0.00    +0.000 C 
ATOM     18  C   UNL     1       9.486  11.642  19.669  0.00  0.00    +0.000 C 
ENDBRANCH   5  13
BRANCH   1  19
ATOM     19  C   UNL     1       6.550  14.084  22.536  0.00  0.00    +0.000 C 
BRANCH  19  21
ATOM     20  C   UNL     1       8.136  13.778  24.462  0.00  0.00    +0.000 C 
ATOM     21  N   UNL     1       6.966  14.622  23.934  0.00  0.00    +0.000 N 
ATOM     22  C   UNL     1       5.857  14.518  24.971  0.00  0.00    +0.000 C 
ATOM     23  C   UNL     1       7.466  16.058  23.817  0.00  0.00    +0.000 C 
ENDBRANCH  19  21
ENDBRANCH   1  19
TORSDOF 4
ENDMDL
