MODEL 1
REMARK VINA RESULT:      -6.4      0.000      0.000
REMARK  Name = 
REMARK  8 active torsions:
REMARK  status: ('A' for Active; 'I' for Inactive)
REMARK    1  A    between atoms: C_1  and  C_2
REMARK    2  A    between atoms: C_2  and  O_3
REMARK    3  A    between atoms: O_3  and  C_4
REMARK    4  A    between atoms: C_4  and  C_6
REMARK    5  A    between atoms: C_6  and  C_7
REMARK    6  A    between atoms: C_7  and  C_8
REMARK    7  A    between atoms: C_8  and  N_9
REMARK    8  A    between atoms: N_17  and  C_18
REMARK                            x       y       z     vdW  Elec       q    Type
REMARK                         _______ _______ _______ _____ _____    ______ ____
ROOT
ATOM      1  N   UNL     1       4.650   4.817  18.372  0.00  0.00    +0.000 N 
ATOM      2  C   UNL     1       4.460   3.624  19.088  0.00  0.00    +0.000 A 
ATOM      3  O   UNL     1       5.173   2.636  18.939  0.00  0.00    +0.000 OA
ATOM      4  C   UNL     1       3.351   3.663  20.018  0.00  0.00    +0.000 A 
ATOM      5  N   UNL     1       2.981   2.622  20.779  0.00  0.00    +0.000 NA
ATOM      6  S   UNL     1       1.675   3.188  21.656  0.00  0.00    +0.000 S 
ATOM      7  N   UNL     1       1.583   4.750  21.062  0.00  0.00    +0.000 NA
ATOM      8  C   UNL     1       2.576   4.846  20.173  0.00  0.00    +0.000 A 
ATOM      9  N   UNL     1       2.862   5.992  19.443  0.00  0.00    +0.000 N 
ATOM     10  C   UNL     1       2.091   7.216  19.598  0.00  0.00    +0.000 C 
ATOM     11  C   UNL     1       3.918   6.002  18.537  0.00  0.00    +0.000 A 
ATOM     12  O   UNL     1       4.200   7.022  17.901  0.00  0.00    +0.000 OA
ENDROOT
BRANCH   1  13
ATOM     13  C   UNL     1       5.771   4.844  17.430  0.00  0.00    +0.000 C 
BRANCH  13  14
ATOM     14  C   UNL     1       5.332   4.406  16.032  0.00  0.00    +0.000 C 
BRANCH  14  15
ATOM     15  C   UNL     1       5.735   5.407  14.951  0.00  0.00    +0.000 C 
BRANCH  15  16
ATOM     16  C   UNL     1       6.881   4.861  14.131  0.00  0.00    +0.000 C 
ATOM     17  O   UNL     1       7.902   5.476  13.860  0.00  0.00    +0.000 OA
BRANCH  16  18
ATOM     18  O   UNL     1       6.554   3.630  13.651  0.00  0.00    +0.000 OA
BRANCH  18  20
ATOM     19  C   UNL     1       5.052   3.216  11.851  0.00  0.00    +0.000 C 
ATOM     20  C   UNL     1       6.487   3.548  12.220  0.00  0.00    +0.000 C 
ENDBRANCH  18  20
ENDBRANCH  16  18
ENDBRANCH  15  16
ENDBRANCH  14  15
ENDBRANCH  13  14
ENDBRANCH   1  13
TORSDOF 6
ENDMDL
MODEL 2
REMARK VINA RESULT:      -6.3      2.314      3.316
REMARK  Name = 
REMARK  8 active torsions:
REMARK  status: ('A' for Active; 'I' for Inactive)
REMARK    1  A    between atoms: C_1  and  C_2
REMARK    2  A    between atoms: C_2  and  O_3
REMARK    3  A    between atoms: O_3  and  C_4
REMARK    4  A    between atoms: C_4  and  C_6
REMARK    5  A    between atoms: C_6  and  C_7
REMARK    6  A    between atoms: C_7  and  C_8
REMARK    7  A    between atoms: C_8  and  N_9
REMARK    8  A    between atoms: N_17  and  C_18
REMARK                            x       y       z     vdW  Elec       q    Type
REMARK                         _______ _______ _______ _____ _____    ______ ____
ROOT
ATOM      1  N   UNL     1       3.751   4.324  17.356  0.00  0.00    +0.000 N 
ATOM      2  C   UNL     1       3.395   3.114  17.978  0.00  0.00    +0.000 A 
ATOM      3  O   UNL     1       3.701   2.016  17.522  0.00  0.00    +0.000 OA
ATOM      4  C   UNL     1       2.639   3.278  19.201  0.00  0.00    +0.000 A 
ATOM      5  N   UNL     1       2.178   2.253  19.934  0.00  0.00    +0.000 NA
ATOM      6  S   UNL     1       1.391   2.977  21.218  0.00  0.00    +0.000 S 
ATOM      7  N   UNL     1       1.636   4.588  20.836  0.00  0.00    +0.000 NA
ATOM      8  C   UNL     1       2.339   4.576  19.699  0.00  0.00    +0.000 A 
ATOM      9  N   UNL     1       2.764   5.718  19.032  0.00  0.00    +0.000 N 
ATOM     10  C   UNL     1       2.479   7.053  19.534  0.00  0.00    +0.000 C 
ATOM     11  C   UNL     1       3.493   5.609  17.852  0.00  0.00    +0.000 A 
ATOM     12  O   UNL     1       3.899   6.615  17.263  0.00  0.00    +0.000 OA
ENDROOT
BRANCH   1  13
ATOM     13  C   UNL     1       4.535   4.221  16.124  0.00  0.00    +0.000 C 
BRANCH  13  14
ATOM     14  C   UNL     1       5.987   3.845  16.420  0.00  0.00    +0.000 C 
BRANCH  14  15
ATOM     15  C   UNL     1       6.914   5.057  16.441  0.00  0.00    +0.000 C 
BRANCH  15  16
ATOM     16  C   UNL     1       7.258   5.431  17.865  0.00  0.00    +0.000 C 
ATOM     17  O   UNL     1       6.820   4.873  18.860  0.00  0.00    +0.000 OA
BRANCH  16  18
ATOM     18  O   UNL     1       8.039   6.547  17.869  0.00  0.00    +0.000 OA
BRANCH  18  20
ATOM     19  C   UNL     1       8.236   8.917  17.991  0.00  0.00    +0.000 C 
ATOM     20  C   UNL     1       7.338   7.764  17.575  0.00  0.00    +0.000 C 
ENDBRANCH  18  20
ENDBRANCH  16  18
ENDBRANCH  15  16
ENDBRANCH  14  15
ENDBRANCH  13  14
ENDBRANCH   1  13
TORSDOF 6
ENDMDL
MODEL 3
REMARK VINA RESULT:      -6.3      1.914      2.980
REMARK  Name = 
REMARK  8 active torsions:
REMARK  status: ('A' for Active; 'I' for Inactive)
REMARK    1  A    between atoms: C_1  and  C_2
REMARK    2  A    between atoms: C_2  and  O_3
REMARK    3  A    between atoms: O_3  and  C_4
REMARK    4  A    between atoms: C_4  and  C_6
REMARK    5  A    between atoms: C_6  and  C_7
REMARK    6  A    between atoms: C_7  and  C_8
REMARK    7  A    between atoms: C_8  and  N_9
REMARK    8  A    between atoms: N_17  and  C_18
REMARK                            x       y       z     vdW  Elec       q    Type
REMARK                         _______ _______ _______ _____ _____    ______ ____
ROOT
ATOM      1  N   UNL     1       3.721   4.393  17.455  0.00  0.00    +0.000 N 
ATOM      2  C   UNL     1       3.416   3.159  18.054  0.00  0.00    +0.000 A 
ATOM      3  O   UNL     1       3.765   2.082  17.579  0.00  0.00    +0.000 OA
ATOM      4  C   UNL     1       2.655   3.270  19.280  0.00  0.00    +0.000 A 
ATOM      5  N   UNL     1       2.236   2.214  19.995  0.00  0.00    +0.000 NA
ATOM      6  S   UNL     1       1.423   2.882  21.293  0.00  0.00    +0.000 S 
ATOM      7  N   UNL     1       1.602   4.508  20.940  0.00  0.00    +0.000 NA
ATOM      8  C   UNL     1       2.304   4.545  19.803  0.00  0.00    +0.000 A 
ATOM      9  N   UNL     1       2.681   5.715  19.157  0.00  0.00    +0.000 N 
ATOM     10  C   UNL     1       2.344   7.029  19.683  0.00  0.00    +0.000 C 
ATOM     11  C   UNL     1       3.413   5.658  17.974  0.00  0.00    +0.000 A 
ATOM     12  O   UNL     1       3.778   6.690  17.403  0.00  0.00    +0.000 OA
ENDROOT
BRANCH   1  13
ATOM     13  C   UNL     1       4.508   4.344  16.221  0.00  0.00    +0.000 C 
BRANCH  13  14
ATOM     14  C   UNL     1       5.884   3.724  16.463  0.00  0.00    +0.000 C 
BRANCH  14  15
ATOM     15  C   UNL     1       6.850   4.690  17.146  0.00  0.00    +0.000 C 
BRANCH  15  16
ATOM     16  C   UNL     1       7.182   5.840  16.224  0.00  0.00    +0.000 C 
ATOM     17  O   UNL     1       7.732   5.730  15.138  0.00  0.00    +0.000 OA
BRANCH  16  18
ATOM     18  O   UNL     1       6.876   7.018  16.834  0.00  0.00    +0.000 OA
BRANCH  18  20
ATOM     19  C   UNL     1       8.091   8.821  17.805  0.00  0.00    +0.000 C 
ATOM     20  C   UNL     1       7.727   7.352  17.940  0.00  0.00    +0.000 C 
ENDBRANCH  18  20
ENDBRANCH  16  18
ENDBRANCH  15  16
ENDBRANCH  14  15
ENDBRANCH  13  14
ENDBRANCH   1  13
TORSDOF 6
ENDMDL
MODEL 4
REMARK VINA RESULT:      -6.2      3.107      6.163
REMARK  Name = 
REMARK  8 active torsions:
REMARK  status: ('A' for Active; 'I' for Inactive)
REMARK    1  A    between atoms: C_1  and  C_2
REMARK    2  A    between atoms: C_2  and  O_3
REMARK    3  A    between atoms: O_3  and  C_4
REMARK    4  A    between atoms: C_4  and  C_6
REMARK    5  A    between atoms: C_6  and  C_7
REMARK    6  A    between atoms: C_7  and  C_8
REMARK    7  A    between atoms: C_8  and  N_9
REMARK    8  A    between atoms: N_17  and  C_18
REMARK                            x       y       z     vdW  Elec       q    Type
REMARK                         _______ _______ _______ _____ _____    ______ ____
ROOT
ATOM      1  N   UNL     1       4.372   3.475  17.727  0.00  0.00    +0.000 N 
ATOM      2  C   UNL     1       5.057   3.791  18.912  0.00  0.00    +0.000 A 
ATOM      3  O   UNL     1       4.766   3.304  20.001  0.00  0.00    +0.000 OA
ATOM      4  C   UNL     1       6.137   4.739  18.735  0.00  0.00    +0.000 A 
ATOM      5  N   UNL     1       6.899   5.196  19.740  0.00  0.00    +0.000 NA
ATOM      6  S   UNL     1       7.976   6.243  19.008  0.00  0.00    +0.000 S 
ATOM      7  N   UNL     1       7.468   6.115  17.419  0.00  0.00    +0.000 NA
ATOM      8  C   UNL     1       6.451   5.248  17.445  0.00  0.00    +0.000 A 
ATOM      9  N   UNL     1       5.737   4.849  16.322  0.00  0.00    +0.000 N 
ATOM     10  C   UNL     1       6.052   5.348  14.992  0.00  0.00    +0.000 C 
ATOM     11  C   UNL     1       4.690   3.940  16.443  0.00  0.00    +0.000 A 
ATOM     12  O   UNL     1       4.064   3.558  15.450  0.00  0.00    +0.000 OA
ENDROOT
BRANCH   1  13
ATOM     13  C   UNL     1       3.281   2.504  17.840  0.00  0.00    +0.000 C 
BRANCH  13  14
ATOM     14  C   UNL     1       1.920   3.200  17.879  0.00  0.00    +0.000 C 
BRANCH  14  15
ATOM     15  C   UNL     1       0.960   2.553  18.874  0.00  0.00    +0.000 C 
BRANCH  15  16
ATOM     16  C   UNL     1       1.221   3.072  20.269  0.00  0.00    +0.000 C 
ATOM     17  O   UNL     1       1.547   2.380  21.223  0.00  0.00    +0.000 OA
BRANCH  16  18
ATOM     18  O   UNL     1       0.932   4.401  20.325  0.00  0.00    +0.000 OA
BRANCH  18  20
ATOM     19  C   UNL     1       2.361   6.235  19.811  0.00  0.00    +0.000 C 
ATOM     20  C   UNL     1       1.980   5.215  20.871  0.00  0.00    +0.000 C 
ENDBRANCH  18  20
ENDBRANCH  16  18
ENDBRANCH  15  16
ENDBRANCH  14  15
ENDBRANCH  13  14
ENDBRANCH   1  13
TORSDOF 6
ENDMDL
MODEL 5
REMARK VINA RESULT:      -6.2      3.529      6.445
REMARK  Name = 
REMARK  8 active torsions:
REMARK  status: ('A' for Active; 'I' for Inactive)
REMARK    1  A    between atoms: C_1  and  C_2
REMARK    2  A    between atoms: C_2  and  O_3
REMARK    3  A    between atoms: O_3  and  C_4
REMARK    4  A    between atoms: C_4  and  C_6
REMARK    5  A    between atoms: C_6  and  C_7
REMARK    6  A    between atoms: C_7  and  C_8
REMARK    7  A    between atoms: C_8  and  N_9
REMARK    8  A    between atoms: N_17  and  C_18
REMARK                            x       y       z     vdW  Elec       q    Type
REMARK                         _______ _______ _______ _____ _____    ______ ____
ROOT
ATOM      1  N   UNL     1       4.981   4.362  18.368  0.00  0.00    +0.000 N 
ATOM      2  C   UNL     1       4.716   3.872  17.078  0.00  0.00    +0.000 A 
ATOM      3  O   UNL     1       3.775   3.124  16.828  0.00  0.00    +0.000 OA
ATOM      4  C   UNL     1       5.649   4.329  16.070  0.00  0.00    +0.000 A 
ATOM      5  N   UNL     1       5.594   3.958  14.782  0.00  0.00    +0.000 NA
ATOM      6  S   UNL     1       6.873   4.756  14.061  0.00  0.00    +0.000 S 
ATOM      7  N   UNL     1       7.494   5.565  15.388  0.00  0.00    +0.000 NA
ATOM      8  C   UNL     1       6.704   5.221  16.409  0.00  0.00    +0.000 A 
ATOM      9  N   UNL     1       6.866   5.680  17.710  0.00  0.00    +0.000 N 
ATOM     10  C   UNL     1       7.929   6.604  18.074  0.00  0.00    +0.000 C 
ATOM     11  C   UNL     1       5.993   5.268  18.712  0.00  0.00    +0.000 A 
ATOM     12  O   UNL     1       6.110   5.688  19.867  0.00  0.00    +0.000 OA
ENDROOT
BRANCH   1  13
ATOM     13  C   UNL     1       4.057   3.949  19.427  0.00  0.00    +0.000 C 
BRANCH  13  14
ATOM     14  C   UNL     1       2.924   4.961  19.600  0.00  0.00    +0.000 C 
BRANCH  14  15
ATOM     15  C   UNL     1       2.382   4.996  21.027  0.00  0.00    +0.000 C 
BRANCH  15  16
ATOM     16  C   UNL     1       1.901   3.624  21.440  0.00  0.00    +0.000 C 
ATOM     17  O   UNL     1       2.427   2.926  22.295  0.00  0.00    +0.000 OA
BRANCH  16  18
ATOM     18  O   UNL     1       0.865   3.243  20.643  0.00  0.00    +0.000 OA
BRANCH  18  20
ATOM     19  C   UNL     1       0.748   2.299  18.460  0.00  0.00    +0.000 C 
ATOM     20  C   UNL     1       1.091   2.027  19.915  0.00  0.00    +0.000 C 
ENDBRANCH  18  20
ENDBRANCH  16  18
ENDBRANCH  15  16
ENDBRANCH  14  15
ENDBRANCH  13  14
ENDBRANCH   1  13
TORSDOF 6
ENDMDL
MODEL 6
REMARK VINA RESULT:      -6.2      1.485      1.693
REMARK  Name = 
REMARK  8 active torsions:
REMARK  status: ('A' for Active; 'I' for Inactive)
REMARK    1  A    between atoms: C_1  and  C_2
REMARK    2  A    between atoms: C_2  and  O_3
REMARK    3  A    between atoms: O_3  and  C_4
REMARK    4  A    between atoms: C_4  and  C_6
REMARK    5  A    between atoms: C_6  and  C_7
REMARK    6  A    between atoms: C_7  and  C_8
REMARK    7  A    between atoms: C_8  and  N_9
REMARK    8  A    between atoms: N_17  and  C_18
REMARK                            x       y       z     vdW  Elec       q    Type
REMARK                         _______ _______ _______ _____ _____    ______ ____
ROOT
ATOM      1  N   UNL     1       3.802   5.612  18.124  0.00  0.00    +0.000 N 
ATOM      2  C   UNL     1       3.929   4.249  18.439  0.00  0.00    +0.000 A 
ATOM      3  O   UNL     1       4.668   3.488  17.820  0.00  0.00    +0.000 OA
ATOM      4  C   UNL     1       3.114   3.821  19.556  0.00  0.00    +0.000 A 
ATOM      5  N   UNL     1       3.066   2.557  20.001  0.00  0.00    +0.000 NA
ATOM      6  S   UNL     1       1.996   2.605  21.285  0.00  0.00    +0.000 S 
ATOM      7  N   UNL     1       1.596   4.231  21.266  0.00  0.00    +0.000 NA
ATOM      8  C   UNL     1       2.299   4.753  20.256  0.00  0.00    +0.000 A 
ATOM      9  N   UNL     1       2.264   6.093  19.893  0.00  0.00    +0.000 N 
ATOM     10  C   UNL     1       1.448   7.063  20.606  0.00  0.00    +0.000 C 
ATOM     11  C   UNL     1       3.031   6.550  18.825  0.00  0.00    +0.000 A 
ATOM     12  O   UNL     1       3.029   7.743  18.508  0.00  0.00    +0.000 OA
ENDROOT
BRANCH   1  13
ATOM     13  C   UNL     1       4.619   6.108  17.014  0.00  0.00    +0.000 C 
BRANCH  13  14
ATOM     14  C   UNL     1       5.982   6.599  17.504  0.00  0.00    +0.000 C 
BRANCH  14  15
ATOM     15  C   UNL     1       7.065   6.482  16.435  0.00  0.00    +0.000 C 
BRANCH  15  16
ATOM     16  C   UNL     1       7.474   5.038  16.256  0.00  0.00    +0.000 C 
ATOM     17  O   UNL     1       7.925   4.324  17.139  0.00  0.00    +0.000 OA
BRANCH  16  18
ATOM     18  O   UNL     1       7.367   4.693  14.943  0.00  0.00    +0.000 OA
BRANCH  18  20
ATOM     19  C   UNL     1       6.210   3.684  13.123  0.00  0.00    +0.000 C 
ATOM     20  C   UNL     1       6.169   3.975  14.614  0.00  0.00    +0.000 C 
ENDBRANCH  18  20
ENDBRANCH  16  18
ENDBRANCH  15  16
ENDBRANCH  14  15
ENDBRANCH  13  14
ENDBRANCH   1  13
TORSDOF 6
ENDMDL
MODEL 7
REMARK VINA RESULT:      -6.0      1.198      1.353
REMARK  Name = 
REMARK  8 active torsions:
REMARK  status: ('A' for Active; 'I' for Inactive)
REMARK    1  A    between atoms: C_1  and  C_2
REMARK    2  A    between atoms: C_2  and  O_3
REMARK    3  A    between atoms: O_3  and  C_4
REMARK    4  A    between atoms: C_4  and  C_6
REMARK    5  A    between atoms: C_6  and  C_7
REMARK    6  A    between atoms: C_7  and  C_8
REMARK    7  A    between atoms: C_8  and  N_9
REMARK    8  A    between atoms: N_17  and  C_18
REMARK                            x       y       z     vdW  Elec       q    Type
REMARK                         _______ _______ _______ _____ _____    ______ ____
ROOT
ATOM      1  N   UNL     1       5.073   5.852  18.062  0.00  0.00    +0.000 N 
ATOM      2  C   UNL     1       5.585   4.630  18.530  0.00  0.00    +0.000 A 
ATOM      3  O   UNL     1       6.708   4.225  18.245  0.00  0.00    +0.000 OA
ATOM      4  C   UNL     1       4.674   3.894  19.380  0.00  0.00    +0.000 A 
ATOM      5  N   UNL     1       4.954   2.693  19.909  0.00  0.00    +0.000 NA
ATOM      6  S   UNL     1       3.592   2.296  20.792  0.00  0.00    +0.000 S 
ATOM      7  N   UNL     1       2.651   3.647  20.495  0.00  0.00    +0.000 NA
ATOM      8  C   UNL     1       3.395   4.426  19.703  0.00  0.00    +0.000 A 
ATOM      9  N   UNL     1       2.987   5.662  19.220  0.00  0.00    +0.000 N 
ATOM     10  C   UNL     1       1.689   6.229  19.551  0.00  0.00    +0.000 C 
ATOM     11  C   UNL     1       3.830   6.406  18.399  0.00  0.00    +0.000 A 
ATOM     12  O   UNL     1       3.491   7.518  17.983  0.00  0.00    +0.000 OA
ENDROOT
BRANCH   1  13
ATOM     13  C   UNL     1       5.959   6.651  17.213  0.00  0.00    +0.000 C 
BRANCH  13  14
ATOM     14  C   UNL     1       5.537   6.579  15.746  0.00  0.00    +0.000 C 
BRANCH  14  15
ATOM     15  C   UNL     1       5.396   5.143  15.247  0.00  0.00    +0.000 C 
BRANCH  15  16
ATOM     16  C   UNL     1       6.646   4.717  14.511  0.00  0.00    +0.000 C 
ATOM     17  O   UNL     1       7.679   5.369  14.451  0.00  0.00    +0.000 OA
BRANCH  16  18
ATOM     18  O   UNL     1       6.409   3.557  13.840  0.00  0.00    +0.000 OA
BRANCH  18  20
ATOM     19  C   UNL     1       5.134   3.153  11.870  0.00  0.00    +0.000 C 
ATOM     20  C   UNL     1       6.453   3.676  12.411  0.00  0.00    +0.000 C 
ENDBRANCH  18  20
ENDBRANCH  16  18
ENDBRANCH  15  16
ENDBRANCH  14  15
ENDBRANCH  13  14
ENDBRANCH   1  13
TORSDOF 6
ENDMDL
MODEL 8
REMARK VINA RESULT:      -6.0      2.535      4.235
REMARK  Name = 
REMARK  8 active torsions:
REMARK  status: ('A' for Active; 'I' for Inactive)
REMARK    1  A    between atoms: C_1  and  C_2
REMARK    2  A    between atoms: C_2  and  O_3
REMARK    3  A    between atoms: O_3  and  C_4
REMARK    4  A    between atoms: C_4  and  C_6
REMARK    5  A    between atoms: C_6  and  C_7
REMARK    6  A    between atoms: C_7  and  C_8
REMARK    7  A    between atoms: C_8  and  N_9
REMARK    8  A    between atoms: N_17  and  C_18
REMARK                            x       y       z     vdW  Elec       q    Type
REMARK                         _______ _______ _______ _____ _____    ______ ____
ROOT
ATOM      1  N   UNL     1       3.948   4.683  17.527  0.00  0.00    +0.000 N 
ATOM      2  C   UNL     1       3.649   6.033  17.778  0.00  0.00    +0.000 A 
ATOM      3  O   UNL     1       4.056   6.949  17.069  0.00  0.00    +0.000 OA
ATOM      4  C   UNL     1       2.819   6.248  18.945  0.00  0.00    +0.000 A 
ATOM      5  N   UNL     1       2.442   7.460  19.377  0.00  0.00    +0.000 NA
ATOM      6  S   UNL     1       1.510   7.152  20.729  0.00  0.00    +0.000 S 
ATOM      7  N   UNL     1       1.594   5.481  20.763  0.00  0.00    +0.000 NA
ATOM      8  C   UNL     1       2.350   5.147  19.713  0.00  0.00    +0.000 A 
ATOM      9  N   UNL     1       2.670   3.840  19.366  0.00  0.00    +0.000 N 
ATOM     10  C   UNL     1       2.187   2.701  20.131  0.00  0.00    +0.000 C 
ATOM     11  C   UNL     1       3.465   3.585  18.254  0.00  0.00    +0.000 A 
ATOM     12  O   UNL     1       3.736   2.428  17.919  0.00  0.00    +0.000 OA
ENDROOT
BRANCH   1  13
ATOM     13  C   UNL     1       4.768   4.402  16.347  0.00  0.00    +0.000 C 
BRANCH  13  14
ATOM     14  C   UNL     1       6.249   4.294  16.713  0.00  0.00    +0.000 C 
BRANCH  14  15
ATOM     15  C   UNL     1       7.058   5.499  16.240  0.00  0.00    +0.000 C 
BRANCH  15  16
ATOM     16  C   UNL     1       7.398   6.396  17.409  0.00  0.00    +0.000 C 
ATOM     17  O   UNL     1       7.198   6.121  18.583  0.00  0.00    +0.000 OA
BRANCH  16  18
ATOM     18  O   UNL     1       7.856   7.592  16.948  0.00  0.00    +0.000 OA
BRANCH  18  20
ATOM     19  C   UNL     1       8.585   9.433  18.271  0.00  0.00    +0.000 C 
ATOM     20  C   UNL     1       7.376   8.732  17.676  0.00  0.00    +0.000 C 
ENDBRANCH  18  20
ENDBRANCH  16  18
ENDBRANCH  15  16
ENDBRANCH  14  15
ENDBRANCH  13  14
ENDBRANCH   1  13
TORSDOF 6
ENDMDL
MODEL 9
REMARK VINA RESULT:      -6.0      3.101      5.732
REMARK  Name = 
REMARK  8 active torsions:
REMARK  status: ('A' for Active; 'I' for Inactive)
REMARK    1  A    between atoms: C_1  and  C_2
REMARK    2  A    between atoms: C_2  and  O_3
REMARK    3  A    between atoms: O_3  and  C_4
REMARK    4  A    between atoms: C_4  and  C_6
REMARK    5  A    between atoms: C_6  and  C_7
REMARK    6  A    between atoms: C_7  and  C_8
REMARK    7  A    between atoms: C_8  and  N_9
REMARK    8  A    between atoms: N_17  and  C_18
REMARK                            x       y       z     vdW  Elec       q    Type
REMARK                         _______ _______ _______ _____ _____    ______ ____
ROOT
ATOM      1  N   UNL     1       4.228   3.409  17.951  0.00  0.00    +0.000 N 
ATOM      2  C   UNL     1       5.065   3.643  19.056  0.00  0.00    +0.000 A 
ATOM      3  O   UNL     1       4.951   3.038  20.118  0.00  0.00    +0.000 OA
ATOM      4  C   UNL     1       6.073   4.656  18.830  0.00  0.00    +0.000 A 
ATOM      5  N   UNL     1       6.954   5.051  19.761  0.00  0.00    +0.000 NA
ATOM      6  S   UNL     1       7.877   6.216  18.998  0.00  0.00    +0.000 S 
ATOM      7  N   UNL     1       7.151   6.218  17.490  0.00  0.00    +0.000 NA
ATOM      8  C   UNL     1       6.180   5.303  17.568  0.00  0.00    +0.000 A 
ATOM      9  N   UNL     1       5.327   4.980  16.520  0.00  0.00    +0.000 N 
ATOM     10  C   UNL     1       5.430   5.621  15.218  0.00  0.00    +0.000 C 
ATOM     11  C   UNL     1       4.342   4.013  16.691  0.00  0.00    +0.000 A 
ATOM     12  O   UNL     1       3.594   3.697  15.761  0.00  0.00    +0.000 OA
ENDROOT
BRANCH   1  13
ATOM     13  C   UNL     1       3.201   2.378  18.114  0.00  0.00    +0.000 C 
BRANCH  13  14
ATOM     14  C   UNL     1       1.811   2.998  18.265  0.00  0.00    +0.000 C 
BRANCH  14  15
ATOM     15  C   UNL     1       1.383   3.128  19.724  0.00  0.00    +0.000 C 
BRANCH  15  16
ATOM     16  C   UNL     1       1.862   4.441  20.299  0.00  0.00    +0.000 C 
ATOM     17  O   UNL     1       2.176   4.621  21.466  0.00  0.00    +0.000 OA
BRANCH  16  18
ATOM     18  O   UNL     1       1.785   5.411  19.346  0.00  0.00    +0.000 OA
BRANCH  18  20
ATOM     19  C   UNL     1       2.873   7.151  18.138  0.00  0.00    +0.000 C 
ATOM     20  C   UNL     1       2.756   6.458  19.485  0.00  0.00    +0.000 C 
ENDBRANCH  18  20
ENDBRANCH  16  18
ENDBRANCH  15  16
ENDBRANCH  14  15
ENDBRANCH  13  14
ENDBRANCH   1  13
TORSDOF 6
ENDMDL
