MODEL 1
REMARK VINA RESULT:      -8.2      0.000      0.000
REMARK  Name = 
REMARK  6 active torsions:
REMARK  status: ('A' for Active; 'I' for Inactive)
REMARK    1  A    between atoms: C_1  and  C_2
REMARK    2  A    between atoms: C_5  and  C_6
REMARK    3  A    between atoms: N_8  and  C_9
REMARK    4  A    between atoms: C_17  and  C_18
REMARK    5  A    between atoms: N_20  and  C_21
REMARK    6  A    between atoms: C_21  and  C_22
REMARK                            x       y       z     vdW  Elec       q    Type
REMARK                         _______ _______ _______ _____ _____    ______ ____
ROOT
ATOM      1  C   UNL     1       2.427   6.914  19.752  0.00  0.00    +0.000 A 
ATOM      2  N   UNL     1       2.045   8.197  19.847  0.00  0.00    +0.000 NA
ATOM      3  N   UNL     1       1.138   8.235  20.851  0.00  0.00    +0.000 N 
ATOM      4  C   UNL     1       0.897   6.982  21.353  0.00  0.00    +0.000 A 
ATOM      5  C   UNL     1       1.658   6.088  20.625  0.00  0.00    +0.000 A 
ENDROOT
BRANCH   1  10
ATOM      6  C   UNL     1       6.762   5.433  16.222  0.00  0.00    +0.000 C 
ATOM      7  C   UNL     1       5.644   5.823  17.140  0.00  0.00    +0.000 A 
ATOM      8  C   UNL     1       4.651   6.706  16.709  0.00  0.00    +0.000 A 
ATOM      9  C   UNL     1       3.591   7.036  17.552  0.00  0.00    +0.000 A 
ATOM     10  C   UNL     1       3.527   6.535  18.859  0.00  0.00    +0.000 A 
ATOM     11  C   UNL     1       4.522   5.651  19.290  0.00  0.00    +0.000 A 
ATOM     12  C   UNL     1       5.572   5.294  18.434  0.00  0.00    +0.000 A 
ENDBRANCH   1  10
BRANCH   3  13
ATOM     13  C   UNL     1       0.557   9.467  21.266  0.00  0.00    +0.000 A 
ATOM     14  C   UNL     1       0.754  10.623  20.491  0.00  0.00    +0.000 A 
ATOM     15  C   UNL     1       0.188  11.839  20.886  0.00  0.00    +0.000 A 
ATOM     16  C   UNL     1      -0.564  11.899  22.052  0.00  0.00    +0.000 A 
ATOM     17  F   UNL     1      -1.101  13.064  22.433  0.00  0.00    +0.000 F 
ATOM     18  C   UNL     1      -0.765  10.766  22.832  0.00  0.00    +0.000 A 
ATOM     19  C   UNL     1      -0.208   9.545  22.441  0.00  0.00    +0.000 A 
ENDBRANCH   3  13
BRANCH   5  20
ATOM     20  C   UNL     1       1.640   4.650  20.829  0.00  0.00    +0.000 C 
ATOM     21  O   UNL     1       2.362   4.101  21.655  0.00  0.00    +0.000 OA
ATOM     22  N   UNL     1       0.736   3.965  20.052  0.00  0.00    +0.000 N 
ATOM     23  H   UNL     1       0.210   4.458  19.340  0.00  0.00    +0.000 HD
BRANCH  22  24
ATOM     24  C   UNL     1       0.763   2.519  19.941  0.00  0.00    +0.000 C 
BRANCH  24  25
ATOM     25  C   UNL     1       1.544   2.084  18.703  0.00  0.00    +0.000 C 
ATOM     26  C   UNL     1       3.029   1.905  18.967  0.00  0.00    +0.000 C 
ATOM     27  C   UNL     1       3.623   2.202  17.613  0.00  0.00    +0.000 C 
ATOM     28  C   UNL     1       2.731   3.319  17.116  0.00  0.00    +0.000 C 
ATOM     29  O   UNL     1       1.428   3.085  17.670  0.00  0.00    +0.000 OA
ENDBRANCH  24  25
ENDBRANCH  22  24
ENDBRANCH   5  20
TORSDOF 5
ENDMDL
MODEL 2
REMARK VINA RESULT:      -8.0      0.207      1.306
REMARK  Name = 
REMARK  6 active torsions:
REMARK  status: ('A' for Active; 'I' for Inactive)
REMARK    1  A    between atoms: C_1  and  C_2
REMARK    2  A    between atoms: C_5  and  C_6
REMARK    3  A    between atoms: N_8  and  C_9
REMARK    4  A    between atoms: C_17  and  C_18
REMARK    5  A    between atoms: N_20  and  C_21
REMARK    6  A    between atoms: C_21  and  C_22
REMARK                            x       y       z     vdW  Elec       q    Type
REMARK                         _______ _______ _______ _____ _____    ______ ____
ROOT
ATOM      1  C   UNL     1       2.494   6.982  19.621  0.00  0.00    +0.000 A 
ATOM      2  N   UNL     1       2.109   8.268  19.659  0.00  0.00    +0.000 NA
ATOM      3  N   UNL     1       1.203   8.349  20.661  0.00  0.00    +0.000 N 
ATOM      4  C   UNL     1       0.965   7.119  21.219  0.00  0.00    +0.000 A 
ATOM      5  C   UNL     1       1.728   6.195  20.531  0.00  0.00    +0.000 A 
ENDROOT
BRANCH   1  10
ATOM      6  C   UNL     1       6.834   5.325  16.176  0.00  0.00    +0.000 C 
ATOM      7  C   UNL     1       5.705   5.747  17.065  0.00  0.00    +0.000 A 
ATOM      8  C   UNL     1       5.613   5.262  18.371  0.00  0.00    +0.000 A 
ATOM      9  C   UNL     1       4.582   5.687  19.209  0.00  0.00    +0.000 A 
ATOM     10  C   UNL     1       3.593   6.565  18.745  0.00  0.00    +0.000 A 
ATOM     11  C   UNL     1       3.686   7.051  17.436  0.00  0.00    +0.000 A 
ATOM     12  C   UNL     1       4.737   6.648  16.603  0.00  0.00    +0.000 A 
ENDBRANCH   1  10
BRANCH   3  13
ATOM     13  C   UNL     1       0.620   9.597  21.021  0.00  0.00    +0.000 A 
ATOM     14  C   UNL     1      -0.045   9.722  22.254  0.00  0.00    +0.000 A 
ATOM     15  C   UNL     1      -0.621  10.941  22.621  0.00  0.00    +0.000 A 
ATOM     16  C   UNL     1      -0.538  12.026  21.758  0.00  0.00    +0.000 A 
ATOM     17  F   UNL     1      -1.095  13.193  22.108  0.00  0.00    +0.000 F 
ATOM     18  C   UNL     1       0.112  11.919  20.535  0.00  0.00    +0.000 A 
ATOM     19  C   UNL     1       0.697  10.705  20.163  0.00  0.00    +0.000 A 
ENDBRANCH   3  13
BRANCH   5  20
ATOM     20  C   UNL     1       1.712   4.768  20.799  0.00  0.00    +0.000 C 
ATOM     21  O   UNL     1       2.407   4.263  21.674  0.00  0.00    +0.000 OA
ATOM     22  N   UNL     1       0.842   4.040  20.022  0.00  0.00    +0.000 N 
ATOM     23  H   UNL     1       0.339   4.496  19.270  0.00  0.00    +0.000 HD
BRANCH  22  24
ATOM     24  C   UNL     1       0.883   2.591  19.978  0.00  0.00    +0.000 C 
BRANCH  24  25
ATOM     25  C   UNL     1       1.654   2.107  18.751  0.00  0.00    +0.000 C 
ATOM     26  C   UNL     1       3.148   1.986  18.994  0.00  0.00    +0.000 C 
ATOM     27  C   UNL     1       3.708   2.221  17.614  0.00  0.00    +0.000 C 
ATOM     28  C   UNL     1       2.774   3.281  17.071  0.00  0.00    +0.000 C 
ATOM     29  O   UNL     1       1.489   3.043  17.665  0.00  0.00    +0.000 OA
ENDBRANCH  24  25
ENDBRANCH  22  24
ENDBRANCH   5  20
TORSDOF 5
ENDMDL
MODEL 3
REMARK VINA RESULT:      -7.9      0.566      1.092
REMARK  Name = 
REMARK  6 active torsions:
REMARK  status: ('A' for Active; 'I' for Inactive)
REMARK    1  A    between atoms: C_1  and  C_2
REMARK    2  A    between atoms: C_5  and  C_6
REMARK    3  A    between atoms: N_8  and  C_9
REMARK    4  A    between atoms: C_17  and  C_18
REMARK    5  A    between atoms: N_20  and  C_21
REMARK    6  A    between atoms: C_21  and  C_22
REMARK                            x       y       z     vdW  Elec       q    Type
REMARK                         _______ _______ _______ _____ _____    ______ ____
ROOT
ATOM      1  C   UNL     1       2.634   6.903  19.447  0.00  0.00    +0.000 A 
ATOM      2  N   UNL     1       2.271   8.192  19.356  0.00  0.00    +0.000 NA
ATOM      3  N   UNL     1       1.361   8.387  20.339  0.00  0.00    +0.000 N 
ATOM      4  C   UNL     1       1.100   7.222  21.014  0.00  0.00    +0.000 A 
ATOM      5  C   UNL     1       1.850   6.223  20.426  0.00  0.00    +0.000 A 
ENDROOT
BRANCH   1  10
ATOM      6  C   UNL     1       6.961   4.870  16.193  0.00  0.00    +0.000 C 
ATOM      7  C   UNL     1       5.846   5.403  17.039  0.00  0.00    +0.000 A 
ATOM      8  C   UNL     1       4.955   6.347  16.523  0.00  0.00    +0.000 A 
ATOM      9  C   UNL     1       3.895   6.812  17.300  0.00  0.00    +0.000 A 
ATOM     10  C   UNL     1       3.731   6.384  18.625  0.00  0.00    +0.000 A 
ATOM     11  C   UNL     1       4.624   5.438  19.141  0.00  0.00    +0.000 A 
ATOM     12  C   UNL     1       5.672   4.949  18.352  0.00  0.00    +0.000 A 
ENDBRANCH   1  10
BRANCH   3  13
ATOM     13  C   UNL     1       0.797   9.674  20.570  0.00  0.00    +0.000 A 
ATOM     14  C   UNL     1       0.067   9.909  21.748  0.00  0.00    +0.000 A 
ATOM     15  C   UNL     1      -0.491  11.168  21.989  0.00  0.00    +0.000 A 
ATOM     16  C   UNL     1      -0.326  12.182  21.054  0.00  0.00    +0.000 A 
ATOM     17  F   UNL     1      -0.865  13.386  21.282  0.00  0.00    +0.000 F 
ATOM     18  C   UNL     1       0.390  11.965  19.883  0.00  0.00    +0.000 A 
ATOM     19  C   UNL     1       0.957  10.711  19.638  0.00  0.00    +0.000 A 
ENDBRANCH   3  13
BRANCH   5  20
ATOM     20  C   UNL     1       1.809   4.829  20.833  0.00  0.00    +0.000 C 
ATOM     21  O   UNL     1       2.527   4.391  21.725  0.00  0.00    +0.000 OA
ATOM     22  N   UNL     1       0.888   4.056  20.167  0.00  0.00    +0.000 N 
ATOM     23  H   UNL     1       0.365   4.451  19.394  0.00  0.00    +0.000 HD
BRANCH  22  24
ATOM     24  C   UNL     1       0.889   2.609  20.263  0.00  0.00    +0.000 C 
BRANCH  24  25
ATOM     25  C   UNL     1       1.614   1.985  19.072  0.00  0.00    +0.000 C 
ATOM     26  C   UNL     1       3.116   1.889  19.271  0.00  0.00    +0.000 C 
ATOM     27  C   UNL     1       3.623   1.963  17.852  0.00  0.00    +0.000 C 
ATOM     28  C   UNL     1       2.668   2.957  17.228  0.00  0.00    +0.000 C 
ATOM     29  O   UNL     1       1.407   2.792  17.893  0.00  0.00    +0.000 OA
ENDBRANCH  24  25
ENDBRANCH  22  24
ENDBRANCH   5  20
TORSDOF 5
ENDMDL
MODEL 4
REMARK VINA RESULT:      -7.4      1.616      1.986
REMARK  Name = 
REMARK  6 active torsions:
REMARK  status: ('A' for Active; 'I' for Inactive)
REMARK    1  A    between atoms: C_1  and  C_2
REMARK    2  A    between atoms: C_5  and  C_6
REMARK    3  A    between atoms: N_8  and  C_9
REMARK    4  A    between atoms: C_17  and  C_18
REMARK    5  A    between atoms: N_20  and  C_21
REMARK    6  A    between atoms: C_21  and  C_22
REMARK                            x       y       z     vdW  Elec       q    Type
REMARK                         _______ _______ _______ _____ _____    ______ ____
ROOT
ATOM      1  C   UNL     1       2.786   7.141  18.667  0.00  0.00    +0.000 A 
ATOM      2  N   UNL     1       2.437   8.374  18.268  0.00  0.00    +0.000 NA
ATOM      3  N   UNL     1       1.503   8.794  19.153  0.00  0.00    +0.000 N 
ATOM      4  C   UNL     1       1.214   7.820  20.073  0.00  0.00    +0.000 A 
ATOM      5  C   UNL     1       1.970   6.709  19.755  0.00  0.00    +0.000 A 
ENDROOT
BRANCH   1  10
ATOM      6  C   UNL     1       7.180   4.372  16.122  0.00  0.00    +0.000 C 
ATOM      7  C   UNL     1       6.036   5.083  16.778  0.00  0.00    +0.000 A 
ATOM      8  C   UNL     1       5.704   4.813  18.107  0.00  0.00    +0.000 A 
ATOM      9  C   UNL     1       4.664   5.504  18.727  0.00  0.00    +0.000 A 
ATOM     10  C   UNL     1       3.900   6.442  18.019  0.00  0.00    +0.000 A 
ATOM     11  C   UNL     1       4.233   6.712  16.687  0.00  0.00    +0.000 A 
ATOM     12  C   UNL     1       5.296   6.039  16.072  0.00  0.00    +0.000 A 
ENDBRANCH   1  10
BRANCH   3  13
ATOM     13  C   UNL     1       0.944  10.101  19.062  0.00  0.00    +0.000 A 
ATOM     14  C   UNL     1       1.766  11.184  18.703  0.00  0.00    +0.000 A 
ATOM     15  C   UNL     1       1.231  12.471  18.609  0.00  0.00    +0.000 A 
ATOM     16  C   UNL     1      -0.116  12.675  18.879  0.00  0.00    +0.000 A 
ATOM     17  F   UNL     1      -0.628  13.910  18.794  0.00  0.00    +0.000 F 
ATOM     18  C   UNL     1      -0.942  11.617  19.239  0.00  0.00    +0.000 A 
ATOM     19  C   UNL     1      -0.416  10.325  19.328  0.00  0.00    +0.000 A 
ENDBRANCH   3  13
BRANCH   5  20
ATOM     20  C   UNL     1       1.907   5.449  20.475  0.00  0.00    +0.000 C 
ATOM     21  O   UNL     1       2.593   5.232  21.468  0.00  0.00    +0.000 OA
ATOM     22  N   UNL     1       1.003   4.540  19.977  0.00  0.00    +0.000 N 
ATOM     23  H   UNL     1       0.509   4.744  19.115  0.00  0.00    +0.000 HD
BRANCH  22  24
ATOM     24  C   UNL     1       0.992   3.155  20.408  0.00  0.00    +0.000 C 
BRANCH  24  25
ATOM     25  C   UNL     1       1.636   2.254  19.357  0.00  0.00    +0.000 C 
ATOM     26  C   UNL     1       3.146   2.167  19.490  0.00  0.00    +0.000 C 
ATOM     27  C   UNL     1       3.568   1.896  18.067  0.00  0.00    +0.000 C 
ATOM     28  C   UNL     1       2.590   2.742  17.282  0.00  0.00    +0.000 C 
ATOM     29  O   UNL     1       1.369   2.769  18.035  0.00  0.00    +0.000 OA
ENDBRANCH  24  25
ENDBRANCH  22  24
ENDBRANCH   5  20
TORSDOF 5
ENDMDL
MODEL 5
REMARK VINA RESULT:      -7.4      2.076      2.494
REMARK  Name = 
REMARK  6 active torsions:
REMARK  status: ('A' for Active; 'I' for Inactive)
REMARK    1  A    between atoms: C_1  and  C_2
REMARK    2  A    between atoms: C_5  and  C_6
REMARK    3  A    between atoms: N_8  and  C_9
REMARK    4  A    between atoms: C_17  and  C_18
REMARK    5  A    between atoms: N_20  and  C_21
REMARK    6  A    between atoms: C_21  and  C_22
REMARK                            x       y       z     vdW  Elec       q    Type
REMARK                         _______ _______ _______ _____ _____    ______ ____
ROOT
ATOM      1  C   UNL     1       3.017   6.963  18.072  0.00  0.00    +0.000 A 
ATOM      2  N   UNL     1       2.435   8.110  17.687  0.00  0.00    +0.000 NA
ATOM      3  N   UNL     1       1.850   8.614  18.798  0.00  0.00    +0.000 N 
ATOM      4  C   UNL     1       2.004   7.772  19.869  0.00  0.00    +0.000 A 
ATOM      5  C   UNL     1       2.694   6.659  19.428  0.00  0.00    +0.000 A 
ENDROOT
BRANCH   1  10
ATOM      6  C   UNL     1       6.413   4.038  14.417  0.00  0.00    +0.000 C 
ATOM      7  C   UNL     1       5.527   4.796  15.357  0.00  0.00    +0.000 A 
ATOM      8  C   UNL     1       4.660   4.117  16.215  0.00  0.00    +0.000 A 
ATOM      9  C   UNL     1       3.866   4.824  17.116  0.00  0.00    +0.000 A 
ATOM     10  C   UNL     1       3.881   6.225  17.145  0.00  0.00    +0.000 A 
ATOM     11  C   UNL     1       4.750   6.905  16.285  0.00  0.00    +0.000 A 
ATOM     12  C   UNL     1       5.570   6.195  15.399  0.00  0.00    +0.000 A 
ENDBRANCH   1  10
BRANCH   3  13
ATOM     13  C   UNL     1       1.179   9.869  18.766  0.00  0.00    +0.000 A 
ATOM     14  C   UNL     1       1.915  11.045  18.534  0.00  0.00    +0.000 A 
ATOM     15  C   UNL     1       1.269  12.283  18.499  0.00  0.00    +0.000 A 
ATOM     16  C   UNL     1      -0.104  12.347  18.702  0.00  0.00    +0.000 A 
ATOM     17  F   UNL     1      -0.722  13.534  18.674  0.00  0.00    +0.000 F 
ATOM     18  C   UNL     1      -0.846  11.196  18.936  0.00  0.00    +0.000 A 
ATOM     19  C   UNL     1      -0.208   9.952  18.967  0.00  0.00    +0.000 A 
ENDBRANCH   3  13
BRANCH   5  20
ATOM     20  C   UNL     1       3.011   5.515  20.264  0.00  0.00    +0.000 C 
ATOM     21  O   UNL     1       4.156   5.088  20.376  0.00  0.00    +0.000 OA
ATOM     22  N   UNL     1       1.942   4.974  20.938  0.00  0.00    +0.000 N 
ATOM     23  H   UNL     1       1.007   5.323  20.761  0.00  0.00    +0.000 HD
BRANCH  22  24
ATOM     24  C   UNL     1       2.028   3.689  21.607  0.00  0.00    +0.000 C 
BRANCH  24  25
ATOM     25  C   UNL     1       1.717   2.551  20.637  0.00  0.00    +0.000 C 
ATOM     26  C   UNL     1       2.887   2.195  19.738  0.00  0.00    +0.000 C 
ATOM     27  C   UNL     1       2.188   1.663  18.512  0.00  0.00    +0.000 C 
ATOM     28  C   UNL     1       0.980   2.570  18.421  0.00  0.00    +0.000 C 
ATOM     29  O   UNL     1       0.630   2.929  19.766  0.00  0.00    +0.000 OA
ENDBRANCH  24  25
ENDBRANCH  22  24
ENDBRANCH   5  20
TORSDOF 5
ENDMDL
MODEL 6
REMARK VINA RESULT:      -7.4      2.228      2.608
REMARK  Name = 
REMARK  6 active torsions:
REMARK  status: ('A' for Active; 'I' for Inactive)
REMARK    1  A    between atoms: C_1  and  C_2
REMARK    2  A    between atoms: C_5  and  C_6
REMARK    3  A    between atoms: N_8  and  C_9
REMARK    4  A    between atoms: C_17  and  C_18
REMARK    5  A    between atoms: N_20  and  C_21
REMARK    6  A    between atoms: C_21  and  C_22
REMARK                            x       y       z     vdW  Elec       q    Type
REMARK                         _______ _______ _______ _____ _____    ______ ____
ROOT
ATOM      1  C   UNL     1       3.071   6.985  17.979  0.00  0.00    +0.000 A 
ATOM      2  N   UNL     1       2.462   8.111  17.574  0.00  0.00    +0.000 NA
ATOM      3  N   UNL     1       1.874   8.627  18.678  0.00  0.00    +0.000 N 
ATOM      4  C   UNL     1       2.053   7.812  19.765  0.00  0.00    +0.000 A 
ATOM      5  C   UNL     1       2.763   6.705  19.344  0.00  0.00    +0.000 A 
ENDROOT
BRANCH   1  10
ATOM      6  C   UNL     1       6.525   4.082  14.361  0.00  0.00    +0.000 C 
ATOM      7  C   UNL     1       5.637   4.834  15.305  0.00  0.00    +0.000 A 
ATOM      8  C   UNL     1       5.665   6.229  15.343  0.00  0.00    +0.000 A 
ATOM      9  C   UNL     1       4.809   6.927  16.194  0.00  0.00    +0.000 A 
ATOM     10  C   UNL     1       3.944   6.246  17.062  0.00  0.00    +0.000 A 
ATOM     11  C   UNL     1       3.917   4.848  17.024  0.00  0.00    +0.000 A 
ATOM     12  C   UNL     1       4.755   4.147  16.148  0.00  0.00    +0.000 A 
ENDBRANCH   1  10
BRANCH   3  13
ATOM     13  C   UNL     1       1.176   9.867  18.623  0.00  0.00    +0.000 A 
ATOM     14  C   UNL     1      -0.217   9.870  18.429  0.00  0.00    +0.000 A 
ATOM     15  C   UNL     1      -0.916  11.079  18.376  0.00  0.00    +0.000 A 
ATOM     16  C   UNL     1      -0.225  12.277  18.508  0.00  0.00    +0.000 A 
ATOM     17  F   UNL     1      -0.894  13.436  18.450  0.00  0.00    +0.000 F 
ATOM     18  C   UNL     1       1.151  12.292  18.696  0.00  0.00    +0.000 A 
ATOM     19  C   UNL     1       1.857  11.087  18.758  0.00  0.00    +0.000 A 
ENDBRANCH   3  13
BRANCH   5  20
ATOM     20  C   UNL     1       3.111   5.586  20.202  0.00  0.00    +0.000 C 
ATOM     21  O   UNL     1       4.256   5.153  20.276  0.00  0.00    +0.000 OA
ATOM     22  N   UNL     1       2.070   5.076  20.942  0.00  0.00    +0.000 N 
ATOM     23  H   UNL     1       1.130   5.427  20.795  0.00  0.00    +0.000 HD
BRANCH  22  24
ATOM     24  C   UNL     1       2.177   3.814  21.648  0.00  0.00    +0.000 C 
BRANCH  24  25
ATOM     25  C   UNL     1       1.772   2.650  20.745  0.00  0.00    +0.000 C 
ATOM     26  C   UNL     1       2.853   2.259  19.754  0.00  0.00    +0.000 C 
ATOM     27  C   UNL     1       2.042   1.698  18.613  0.00  0.00    +0.000 C 
ATOM     28  C   UNL     1       0.836   2.612  18.606  0.00  0.00    +0.000 C 
ATOM     29  O   UNL     1       0.612   3.013  19.966  0.00  0.00    +0.000 OA
ENDBRANCH  24  25
ENDBRANCH  22  24
ENDBRANCH   5  20
TORSDOF 5
ENDMDL
MODEL 7
REMARK VINA RESULT:      -6.9      3.844      8.753
REMARK  Name = 
REMARK  6 active torsions:
REMARK  status: ('A' for Active; 'I' for Inactive)
REMARK    1  A    between atoms: C_1  and  C_2
REMARK    2  A    between atoms: C_5  and  C_6
REMARK    3  A    between atoms: N_8  and  C_9
REMARK    4  A    between atoms: C_17  and  C_18
REMARK    5  A    between atoms: N_20  and  C_21
REMARK    6  A    between atoms: C_21  and  C_22
REMARK                            x       y       z     vdW  Elec       q    Type
REMARK                         _______ _______ _______ _____ _____    ______ ____
ROOT
ATOM      1  C   UNL     1       0.970  10.292  20.160  0.00  0.00    +0.000 A 
ATOM      2  N   UNL     1       1.664   9.448  19.379  0.00  0.00    +0.000 NA
ATOM      3  N   UNL     1       1.621   8.250  20.007  0.00  0.00    +0.000 N 
ATOM      4  C   UNL     1       0.960   8.338  21.205  0.00  0.00    +0.000 A 
ATOM      5  C   UNL     1       0.582   9.655  21.376  0.00  0.00    +0.000 A 
ENDROOT
BRANCH   1  10
ATOM      6  C   UNL     1      -0.159  15.669  18.356  0.00  0.00    +0.000 C 
ATOM      7  C   UNL     1       0.140  14.275  18.816  0.00  0.00    +0.000 A 
ATOM      8  C   UNL     1       1.110  14.046  19.794  0.00  0.00    +0.000 A 
ATOM      9  C   UNL     1       1.358  12.751  20.249  0.00  0.00    +0.000 A 
ATOM     10  C   UNL     1       0.680  11.654  19.701  0.00  0.00    +0.000 A 
ATOM     11  C   UNL     1      -0.291  11.884  18.721  0.00  0.00    +0.000 A 
ATOM     12  C   UNL     1      -0.562  13.187  18.285  0.00  0.00    +0.000 A 
ENDBRANCH   1  10
BRANCH   3  13
ATOM     13  C   UNL     1       2.218   7.096  19.423  0.00  0.00    +0.000 A 
ATOM     14  C   UNL     1       2.116   5.856  20.079  0.00  0.00    +0.000 A 
ATOM     15  C   UNL     1       2.694   4.715  19.517  0.00  0.00    +0.000 A 
ATOM     16  C   UNL     1       3.378   4.815  18.311  0.00  0.00    +0.000 A 
ATOM     17  F   UNL     1       3.937   3.722  17.776  0.00  0.00    +0.000 F 
ATOM     18  C   UNL     1       3.491   6.033  17.653  0.00  0.00    +0.000 A 
ATOM     19  C   UNL     1       2.909   7.178  18.204  0.00  0.00    +0.000 A 
ENDBRANCH   3  13
BRANCH   5  20
ATOM     20  C   UNL     1      -0.105  10.158  22.553  0.00  0.00    +0.000 C 
ATOM     21  O   UNL     1       0.145   9.740  23.679  0.00  0.00    +0.000 OA
ATOM     22  N   UNL     1      -1.025  11.149  22.310  0.00  0.00    +0.000 N 
ATOM     23  H   UNL     1      -1.241  11.411  21.355  0.00  0.00    +0.000 HD
BRANCH  22  24
ATOM     24  C   UNL     1      -1.973  11.579  23.321  0.00  0.00    +0.000 C 
BRANCH  24  25
ATOM     25  C   UNL     1      -2.447  13.005  23.049  0.00  0.00    +0.000 C 
ATOM     26  C   UNL     1      -2.333  13.404  21.589  0.00  0.00    +0.000 C 
ATOM     27  C   UNL     1      -2.141  14.897  21.688  0.00  0.00    +0.000 C 
ATOM     28  C   UNL     1      -1.276  15.022  22.922  0.00  0.00    +0.000 C 
ATOM     29  O   UNL     1      -1.641  13.943  23.795  0.00  0.00    +0.000 OA
ENDBRANCH  24  25
ENDBRANCH  22  24
ENDBRANCH   5  20
TORSDOF 5
ENDMDL
MODEL 8
REMARK VINA RESULT:      -6.9      1.646      2.327
REMARK  Name = 
REMARK  6 active torsions:
REMARK  status: ('A' for Active; 'I' for Inactive)
REMARK    1  A    between atoms: C_1  and  C_2
REMARK    2  A    between atoms: C_5  and  C_6
REMARK    3  A    between atoms: N_8  and  C_9
REMARK    4  A    between atoms: C_17  and  C_18
REMARK    5  A    between atoms: N_20  and  C_21
REMARK    6  A    between atoms: C_21  and  C_22
REMARK                            x       y       z     vdW  Elec       q    Type
REMARK                         _______ _______ _______ _____ _____    ______ ____
ROOT
ATOM      1  C   UNL     1       2.551   7.163  18.646  0.00  0.00    +0.000 A 
ATOM      2  N   UNL     1       2.375   8.472  18.408  0.00  0.00    +0.000 NA
ATOM      3  N   UNL     1       1.630   8.934  19.439  0.00  0.00    +0.000 N 
ATOM      4  C   UNL     1       1.282   7.922  20.296  0.00  0.00    +0.000 A 
ATOM      5  C   UNL     1       1.799   6.747  19.784  0.00  0.00    +0.000 A 
ENDROOT
BRANCH   1  10
ATOM      6  C   UNL     1       6.093   4.037  15.309  0.00  0.00    +0.000 C 
ATOM      7  C   UNL     1       5.171   4.850  16.165  0.00  0.00    +0.000 A 
ATOM      8  C   UNL     1       4.006   4.283  16.687  0.00  0.00    +0.000 A 
ATOM      9  C   UNL     1       3.171   5.030  17.516  0.00  0.00    +0.000 A 
ATOM     10  C   UNL     1       3.452   6.373  17.801  0.00  0.00    +0.000 A 
ATOM     11  C   UNL     1       4.620   6.940  17.278  0.00  0.00    +0.000 A 
ATOM     12  C   UNL     1       5.475   6.182  16.469  0.00  0.00    +0.000 A 
ENDBRANCH   1  10
BRANCH   3  13
ATOM     13  C   UNL     1       1.294  10.314  19.539  0.00  0.00    +0.000 A 
ATOM     14  C   UNL     1       0.541  10.767  20.636  0.00  0.00    +0.000 A 
ATOM     15  C   UNL     1       0.206  12.119  20.749  0.00  0.00    +0.000 A 
ATOM     16  C   UNL     1       0.615  13.011  19.766  0.00  0.00    +0.000 A 
ATOM     17  F   UNL     1       0.289  14.306  19.870  0.00  0.00    +0.000 F 
ATOM     18  C   UNL     1       1.357  12.580  18.673  0.00  0.00    +0.000 A 
ATOM     19  C   UNL     1       1.702  11.230  18.557  0.00  0.00    +0.000 A 
ENDBRANCH   3  13
BRANCH   5  20
ATOM     20  C   UNL     1       1.602   5.441  20.389  0.00  0.00    +0.000 C 
ATOM     21  O   UNL     1       0.510   4.883  20.389  0.00  0.00    +0.000 OA
ATOM     22  N   UNL     1       2.732   4.873  20.927  0.00  0.00    +0.000 N 
ATOM     23  H   UNL     1       3.595   5.405  20.959  0.00  0.00    +0.000 HD
BRANCH  22  24
ATOM     24  C   UNL     1       2.669   3.706  21.785  0.00  0.00    +0.000 C 
BRANCH  24  25
ATOM     25  C   UNL     1       2.925   2.430  20.986  0.00  0.00    +0.000 C 
ATOM     26  C   UNL     1       4.088   2.556  20.017  0.00  0.00    +0.000 C 
ATOM     27  C   UNL     1       3.699   1.579  18.936  0.00  0.00    +0.000 C 
ATOM     28  C   UNL     1       2.199   1.765  18.868  0.00  0.00    +0.000 C 
ATOM     29  O   UNL     1       1.764   2.104  20.193  0.00  0.00    +0.000 OA
ENDBRANCH  24  25
ENDBRANCH  22  24
ENDBRANCH   5  20
TORSDOF 5
ENDMDL
MODEL 9
REMARK VINA RESULT:      -6.8      2.231      4.392
REMARK  Name = 
REMARK  6 active torsions:
REMARK  status: ('A' for Active; 'I' for Inactive)
REMARK    1  A    between atoms: C_1  and  C_2
REMARK    2  A    between atoms: C_5  and  C_6
REMARK    3  A    between atoms: N_8  and  C_9
REMARK    4  A    between atoms: C_17  and  C_18
REMARK    5  A    between atoms: N_20  and  C_21
REMARK    6  A    between atoms: C_21  and  C_22
REMARK                            x       y       z     vdW  Elec       q    Type
REMARK                         _______ _______ _______ _____ _____    ______ ____
ROOT
ATOM      1  C   UNL     1       1.802   6.905  19.790  0.00  0.00    +0.000 A 
ATOM      2  N   UNL     1       1.088   7.482  20.770  0.00  0.00    +0.000 NA
ATOM      3  N   UNL     1       1.008   8.792  20.442  0.00  0.00    +0.000 N 
ATOM      4  C   UNL     1       1.711   9.063  19.297  0.00  0.00    +0.000 A 
ATOM      5  C   UNL     1       2.297   7.884  18.879  0.00  0.00    +0.000 A 
ENDROOT
BRANCH   1  10
ATOM      6  C   UNL     1       2.394   1.154  19.630  0.00  0.00    +0.000 C 
ATOM      7  C   UNL     1       2.231   2.643  19.673  0.00  0.00    +0.000 A 
ATOM      8  C   UNL     1       2.478   3.347  20.854  0.00  0.00    +0.000 A 
ATOM      9  C   UNL     1       2.364   4.736  20.880  0.00  0.00    +0.000 A 
ATOM     10  C   UNL     1       1.952   5.447  19.745  0.00  0.00    +0.000 A 
ATOM     11  C   UNL     1       1.705   4.741  18.563  0.00  0.00    +0.000 A 
ATOM     12  C   UNL     1       1.848   3.348  18.526  0.00  0.00    +0.000 A 
ENDBRANCH   1  10
BRANCH   3  13
ATOM     13  C   UNL     1       0.265   9.704  21.245  0.00  0.00    +0.000 A 
ATOM     14  C   UNL     1      -0.177   9.305  22.519  0.00  0.00    +0.000 A 
ATOM     15  C   UNL     1      -0.905  10.190  23.319  0.00  0.00    +0.000 A 
ATOM     16  C   UNL     1      -1.197  11.462  22.844  0.00  0.00    +0.000 A 
ATOM     17  F   UNL     1      -1.899  12.308  23.608  0.00  0.00    +0.000 F 
ATOM     18  C   UNL     1      -0.771  11.871  21.586  0.00  0.00    +0.000 A 
ATOM     19  C   UNL     1      -0.036  10.994  20.783  0.00  0.00    +0.000 A 
ENDBRANCH   3  13
BRANCH   5  20
ATOM     20  C   UNL     1       3.166   7.775  17.720  0.00  0.00    +0.000 C 
ATOM     21  O   UNL     1       3.031   8.494  16.736  0.00  0.00    +0.000 OA
ATOM     22  N   UNL     1       4.159   6.830  17.825  0.00  0.00    +0.000 N 
ATOM     23  H   UNL     1       4.186   6.217  18.632  0.00  0.00    +0.000 HD
BRANCH  22  24
ATOM     24  C   UNL     1       4.945   6.413  16.680  0.00  0.00    +0.000 C 
BRANCH  24  25
ATOM     25  C   UNL     1       6.379   6.090  17.093  0.00  0.00    +0.000 C 
ATOM     26  C   UNL     1       6.493   5.615  18.531  0.00  0.00    +0.000 C 
ATOM     27  C   UNL     1       7.890   6.054  18.894  0.00  0.00    +0.000 C 
ATOM     28  C   UNL     1       8.001   7.379  18.171  0.00  0.00    +0.000 C 
ATOM     29  O   UNL     1       7.201   7.271  16.984  0.00  0.00    +0.000 OA
ENDBRANCH  24  25
ENDBRANCH  22  24
ENDBRANCH   5  20
TORSDOF 5
ENDMDL
