MODEL 1
REMARK VINA RESULT:      -9.2      0.000      0.000
REMARK  Name = 
REMARK  7 active torsions:
REMARK  status: ('A' for Active; 'I' for Inactive)
REMARK    1  A    between atoms: C_1  and  C_2
REMARK    2  A    between atoms: C_5  and  N_6
REMARK    3  A    between atoms: N_6  and  C_7
REMARK    4  A    between atoms: C_9  and  C_10
REMARK    5  A    between atoms: C_14  and  S_15
REMARK    6  A    between atoms: S_15  and  C_16
REMARK    7  A    between atoms: C_16  and  C_17
REMARK                            x       y       z     vdW  Elec       q    Type
REMARK                         _______ _______ _______ _____ _____    ______ ____
ROOT
ATOM      1  C   UNL     1       2.344   5.137  20.026  0.00  0.00    +0.000 A 
ATOM      2  C   UNL     1       1.301   4.300  19.884  0.00  0.00    +0.000 A 
ATOM      3  C   UNL     1       1.521   3.081  19.049  0.00  0.00    +0.000 A 
ATOM      4  C   UNL     1       0.357   2.127  18.932  0.00  0.00    +0.000 C 
ATOM      5  N   UNL     1       2.631   2.782  18.438  0.00  0.00    +0.000 NA
ATOM      6  C   UNL     1       3.668   3.660  18.584  0.00  0.00    +0.000 A 
ATOM      7  N   UNL     1       4.898   3.593  18.113  0.00  0.00    +0.000 NA
ATOM      8  C   UNL     1       5.492   4.713  18.612  0.00  0.00    +0.000 A 
ATOM      9  N   UNL     1       4.717   5.492  19.368  0.00  0.00    +0.000 NA
ATOM     10  N   UNL     1       3.540   4.820  19.354  0.00  0.00    +0.000 N 
ENDROOT
BRANCH   1  11
ATOM     11  N   UNL     1       2.311   6.294  20.815  0.00  0.00    +0.000 N 
ATOM     12  H   UNL     1       1.787   6.107  21.680  0.00  0.00    +0.000 HD
BRANCH  11  17
ATOM     13  C   UNL     1       0.113  11.159  18.689  0.00  0.00    +0.000 C 
ATOM     14  C   UNL     1       0.716   9.902  19.242  0.00  0.00    +0.000 A 
ATOM     15  C   UNL     1       1.503   9.075  18.435  0.00  0.00    +0.000 A 
ATOM     16  C   UNL     1       2.049   7.897  18.952  0.00  0.00    +0.000 A 
ATOM     17  C   UNL     1       1.842   7.531  20.289  0.00  0.00    +0.000 A 
ATOM     18  C   UNL     1       1.028   8.345  21.084  0.00  0.00    +0.000 A 
ATOM     19  C   UNL     1       0.482   9.527  20.569  0.00  0.00    +0.000 A 
ENDBRANCH  11  17
ENDBRANCH   1  11
BRANCH   8  20
ATOM     20  S   UNL     1       7.179   5.100  18.421  0.00  0.00    +0.000 S 
BRANCH  20  21
ATOM     21  C   UNL     1       7.133   6.338  17.093  0.00  0.00    +0.000 C 
BRANCH  21  22
ATOM     22  C   UNL     1       6.900   5.667  15.772  0.00  0.00    +0.000 A 
ATOM     23  N   UNL     1       7.749   5.574  14.765  0.00  0.00    +0.000 NA
ATOM     24  C   UNL     1       7.117   4.812  13.809  0.00  0.00    +0.000 A 
ATOM     25  C   UNL     1       7.575   4.372  12.559  0.00  0.00    +0.000 A 
ATOM     26  C   UNL     1       6.734   3.574  11.772  0.00  0.00    +0.000 A 
ATOM     27  C   UNL     1       5.456   3.229  12.219  0.00  0.00    +0.000 A 
ATOM     28  C   UNL     1       4.977   3.668  13.460  0.00  0.00    +0.000 A 
ATOM     29  C   UNL     1       5.840   4.457  14.225  0.00  0.00    +0.000 A 
ATOM     30  N   UNL     1       5.716   5.034  15.463  0.00  0.00    +0.000 N 
ATOM     31  H   UNL     1       4.918   4.955  16.076  0.00  0.00    +0.000 HD
ENDBRANCH  21  22
ENDBRANCH  20  21
ENDBRANCH   8  20
TORSDOF 5
ENDMDL
MODEL 2
REMARK VINA RESULT:      -8.9      0.189      1.410
REMARK  Name = 
REMARK  7 active torsions:
REMARK  status: ('A' for Active; 'I' for Inactive)
REMARK    1  A    between atoms: C_1  and  C_2
REMARK    2  A    between atoms: C_5  and  N_6
REMARK    3  A    between atoms: N_6  and  C_7
REMARK    4  A    between atoms: C_9  and  C_10
REMARK    5  A    between atoms: C_14  and  S_15
REMARK    6  A    between atoms: S_15  and  C_16
REMARK    7  A    between atoms: C_16  and  C_17
REMARK                            x       y       z     vdW  Elec       q    Type
REMARK                         _______ _______ _______ _____ _____    ______ ____
ROOT
ATOM      1  C   UNL     1       2.348   5.258  20.145  0.00  0.00    +0.000 A 
ATOM      2  C   UNL     1       1.324   4.391  20.052  0.00  0.00    +0.000 A 
ATOM      3  C   UNL     1       1.570   3.137  19.280  0.00  0.00    +0.000 A 
ATOM      4  C   UNL     1       0.429   2.150  19.219  0.00  0.00    +0.000 C 
ATOM      5  N   UNL     1       2.684   2.833  18.678  0.00  0.00    +0.000 NA
ATOM      6  C   UNL     1       3.700   3.742  18.772  0.00  0.00    +0.000 A 
ATOM      7  N   UNL     1       4.929   3.681  18.298  0.00  0.00    +0.000 NA
ATOM      8  C   UNL     1       5.498   4.838  18.736  0.00  0.00    +0.000 A 
ATOM      9  N   UNL     1       4.708   5.637  19.455  0.00  0.00    +0.000 NA
ATOM     10  N   UNL     1       3.547   4.937  19.483  0.00  0.00    +0.000 N 
ENDROOT
BRANCH   1  11
ATOM     11  N   UNL     1       2.290   6.454  20.873  0.00  0.00    +0.000 N 
ATOM     12  H   UNL     1       1.874   6.276  21.797  0.00  0.00    +0.000 HD
BRANCH  11  17
ATOM     13  C   UNL     1       0.048  11.292  18.732  0.00  0.00    +0.000 C 
ATOM     14  C   UNL     1       0.604  10.016  19.290  0.00  0.00    +0.000 A 
ATOM     15  C   UNL     1       0.273   9.600  20.583  0.00  0.00    +0.000 A 
ATOM     16  C   UNL     1       0.807   8.417  21.103  0.00  0.00    +0.000 A 
ATOM     17  C   UNL     1       1.662   7.614  20.337  0.00  0.00    +0.000 A 
ATOM     18  C   UNL     1       2.016   8.050  19.057  0.00  0.00    +0.000 A 
ATOM     19  C   UNL     1       1.481   9.232  18.532  0.00  0.00    +0.000 A 
ENDBRANCH  11  17
ENDBRANCH   1  11
BRANCH   8  20
ATOM     20  S   UNL     1       7.174   5.255  18.515  0.00  0.00    +0.000 S 
BRANCH  20  21
ATOM     21  C   UNL     1       7.098   6.377  17.088  0.00  0.00    +0.000 C 
BRANCH  21  22
ATOM     22  C   UNL     1       6.851   5.596  15.832  0.00  0.00    +0.000 A 
ATOM     23  N   UNL     1       5.792   4.861  15.545  0.00  0.00    +0.000 NA
ATOM     24  C   UNL     1       5.987   4.404  14.262  0.00  0.00    +0.000 A 
ATOM     25  C   UNL     1       5.160   3.616  13.450  0.00  0.00    +0.000 A 
ATOM     26  C   UNL     1       5.583   3.304  12.151  0.00  0.00    +0.000 A 
ATOM     27  C   UNL     1       6.814   3.761  11.674  0.00  0.00    +0.000 A 
ATOM     28  C   UNL     1       7.659   4.541  12.474  0.00  0.00    +0.000 A 
ATOM     29  C   UNL     1       7.208   4.840  13.762  0.00  0.00    +0.000 A 
ATOM     30  N   UNL     1       7.749   5.573  14.787  0.00  0.00    +0.000 N 
ATOM     31  H   UNL     1       8.628   6.069  14.761  0.00  0.00    +0.000 HD
ENDBRANCH  21  22
ENDBRANCH  20  21
ENDBRANCH   8  20
TORSDOF 5
ENDMDL
MODEL 3
REMARK VINA RESULT:      -8.6      2.843      4.636
REMARK  Name = 
REMARK  7 active torsions:
REMARK  status: ('A' for Active; 'I' for Inactive)
REMARK    1  A    between atoms: C_1  and  C_2
REMARK    2  A    between atoms: C_5  and  N_6
REMARK    3  A    between atoms: N_6  and  C_7
REMARK    4  A    between atoms: C_9  and  C_10
REMARK    5  A    between atoms: C_14  and  S_15
REMARK    6  A    between atoms: S_15  and  C_16
REMARK    7  A    between atoms: C_16  and  C_17
REMARK                            x       y       z     vdW  Elec       q    Type
REMARK                         _______ _______ _______ _____ _____    ______ ____
ROOT
ATOM      1  C   UNL     1       2.585   5.483  19.463  0.00  0.00    +0.000 A 
ATOM      2  C   UNL     1       1.622   4.549  19.563  0.00  0.00    +0.000 A 
ATOM      3  C   UNL     1       1.743   3.357  18.672  0.00  0.00    +0.000 A 
ATOM      4  C   UNL     1       0.682   2.294  18.823  0.00  0.00    +0.000 C 
ATOM      5  N   UNL     1       2.691   3.166  17.799  0.00  0.00    +0.000 NA
ATOM      6  C   UNL     1       3.644   4.141  17.705  0.00  0.00    +0.000 A 
ATOM      7  N   UNL     1       4.719   4.194  16.945  0.00  0.00    +0.000 NA
ATOM      8  C   UNL     1       5.310   5.366  17.308  0.00  0.00    +0.000 A 
ATOM      9  N   UNL     1       4.677   6.067  18.250  0.00  0.00    +0.000 NA
ATOM     10  N   UNL     1       3.601   5.284  18.510  0.00  0.00    +0.000 N 
ENDROOT
BRANCH   1  11
ATOM     11  N   UNL     1       2.638   6.633  20.263  0.00  0.00    +0.000 N 
ATOM     12  H   UNL     1       2.373   6.395  21.228  0.00  0.00    +0.000 HD
BRANCH  11  17
ATOM     13  C   UNL     1      -0.500  11.226  18.824  0.00  0.00    +0.000 C 
ATOM     14  C   UNL     1       0.346  10.045  19.196  0.00  0.00    +0.000 A 
ATOM     15  C   UNL     1       1.158   9.422  18.243  0.00  0.00    +0.000 A 
ATOM     16  C   UNL     1       1.931   8.312  18.593  0.00  0.00    +0.000 A 
ATOM     17  C   UNL     1       1.931   7.815  19.902  0.00  0.00    +0.000 A 
ATOM     18  C   UNL     1       1.093   8.421  20.845  0.00  0.00    +0.000 A 
ATOM     19  C   UNL     1       0.320   9.535  20.499  0.00  0.00    +0.000 A 
ENDBRANCH  11  17
ENDBRANCH   1  11
BRANCH   8  20
ATOM     20  S   UNL     1       6.853   5.915  16.716  0.00  0.00    +0.000 S 
BRANCH  20  21
ATOM     21  C   UNL     1       7.712   6.353  18.256  0.00  0.00    +0.000 C 
BRANCH  21  22
ATOM     22  C   UNL     1       8.082   7.806  18.243  0.00  0.00    +0.000 A 
ATOM     23  N   UNL     1       7.643   8.733  17.411  0.00  0.00    +0.000 NA
ATOM     24  C   UNL     1       8.203   9.916  17.837  0.00  0.00    +0.000 A 
ATOM     25  C   UNL     1       8.045  11.218  17.340  0.00  0.00    +0.000 A 
ATOM     26  C   UNL     1       8.715  12.271  17.977  0.00  0.00    +0.000 A 
ATOM     27  C   UNL     1       9.535  12.030  19.082  0.00  0.00    +0.000 A 
ATOM     28  C   UNL     1       9.713  10.735  19.586  0.00  0.00    +0.000 A 
ATOM     29  C   UNL     1       9.029   9.706  18.934  0.00  0.00    +0.000 A 
ATOM     30  N   UNL     1       8.956   8.355  19.156  0.00  0.00    +0.000 N 
ATOM     31  H   UNL     1       9.412   7.852  19.904  0.00  0.00    +0.000 HD
ENDBRANCH  21  22
ENDBRANCH  20  21
ENDBRANCH   8  20
TORSDOF 5
ENDMDL
MODEL 4
REMARK VINA RESULT:      -8.6      1.049      1.746
REMARK  Name = 
REMARK  7 active torsions:
REMARK  status: ('A' for Active; 'I' for Inactive)
REMARK    1  A    between atoms: C_1  and  C_2
REMARK    2  A    between atoms: C_5  and  N_6
REMARK    3  A    between atoms: N_6  and  C_7
REMARK    4  A    between atoms: C_9  and  C_10
REMARK    5  A    between atoms: C_14  and  S_15
REMARK    6  A    between atoms: S_15  and  C_16
REMARK    7  A    between atoms: C_16  and  C_17
REMARK                            x       y       z     vdW  Elec       q    Type
REMARK                         _______ _______ _______ _____ _____    ______ ____
ROOT
ATOM      1  C   UNL     1       2.535   5.796  19.407  0.00  0.00    +0.000 A 
ATOM      2  C   UNL     1       1.622   5.045  20.048  0.00  0.00    +0.000 A 
ATOM      3  C   UNL     1       2.073   3.713  20.547  0.00  0.00    +0.000 A 
ATOM      4  C   UNL     1       1.052   2.896  21.303  0.00  0.00    +0.000 C 
ATOM      5  N   UNL     1       3.268   3.219  20.392  0.00  0.00    +0.000 NA
ATOM      6  C   UNL     1       4.170   3.995  19.720  0.00  0.00    +0.000 A 
ATOM      7  N   UNL     1       5.440   3.766  19.451  0.00  0.00    +0.000 NA
ATOM      8  C   UNL     1       5.839   4.897  18.805  0.00  0.00    +0.000 A 
ATOM      9  N   UNL     1       4.902   5.832  18.640  0.00  0.00    +0.000 NA
ATOM     10  N   UNL     1       3.823   5.257  19.227  0.00  0.00    +0.000 N 
ENDROOT
BRANCH   1  11
ATOM     11  N   UNL     1       2.280   7.086  18.923  0.00  0.00    +0.000 N 
ATOM     12  H   UNL     1       3.145   7.487  18.536  0.00  0.00    +0.000 HD
BRANCH  11  17
ATOM     13  C   UNL     1      -0.406  10.889  22.290  0.00  0.00    +0.000 C 
ATOM     14  C   UNL     1       0.319   9.918  21.407  0.00  0.00    +0.000 A 
ATOM     15  C   UNL     1       0.460  10.167  20.039  0.00  0.00    +0.000 A 
ATOM     16  C   UNL     1       1.123   9.249  19.219  0.00  0.00    +0.000 A 
ATOM     17  C   UNL     1       1.680   8.078  19.749  0.00  0.00    +0.000 A 
ATOM     18  C   UNL     1       1.509   7.817  21.112  0.00  0.00    +0.000 A 
ATOM     19  C   UNL     1       0.848   8.735  21.937  0.00  0.00    +0.000 A 
ENDBRANCH  11  17
ENDBRANCH   1  11
BRANCH   8  20
ATOM     20  S   UNL     1       7.477   5.222  18.311  0.00  0.00    +0.000 S 
BRANCH  20  21
ATOM     21  C   UNL     1       7.229   6.338  16.899  0.00  0.00    +0.000 C 
BRANCH  21  22
ATOM     22  C   UNL     1       6.929   5.544  15.663  0.00  0.00    +0.000 A 
ATOM     23  N   UNL     1       5.844   4.834  15.416  0.00  0.00    +0.000 NA
ATOM     24  C   UNL     1       5.993   4.352  14.135  0.00  0.00    +0.000 A 
ATOM     25  C   UNL     1       5.123   3.573  13.358  0.00  0.00    +0.000 A 
ATOM     26  C   UNL     1       5.504   3.231  12.054  0.00  0.00    +0.000 A 
ATOM     27  C   UNL     1       6.733   3.648  11.537  0.00  0.00    +0.000 A 
ATOM     28  C   UNL     1       7.618   4.417  12.302  0.00  0.00    +0.000 A 
ATOM     29  C   UNL     1       7.210   4.749  13.596  0.00  0.00    +0.000 A 
ATOM     30  N   UNL     1       7.798   5.482  14.595  0.00  0.00    +0.000 N 
ATOM     31  H   UNL     1       8.688   5.954  14.537  0.00  0.00    +0.000 HD
ENDBRANCH  21  22
ENDBRANCH  20  21
ENDBRANCH   8  20
TORSDOF 5
ENDMDL
MODEL 5
REMARK VINA RESULT:      -8.6      1.026      1.447
REMARK  Name = 
REMARK  7 active torsions:
REMARK  status: ('A' for Active; 'I' for Inactive)
REMARK    1  A    between atoms: C_1  and  C_2
REMARK    2  A    between atoms: C_5  and  N_6
REMARK    3  A    between atoms: N_6  and  C_7
REMARK    4  A    between atoms: C_9  and  C_10
REMARK    5  A    between atoms: C_14  and  S_15
REMARK    6  A    between atoms: S_15  and  C_16
REMARK    7  A    between atoms: C_16  and  C_17
REMARK                            x       y       z     vdW  Elec       q    Type
REMARK                         _______ _______ _______ _____ _____    ______ ____
ROOT
ATOM      1  C   UNL     1       2.550   5.542  19.300  0.00  0.00    +0.000 A 
ATOM      2  C   UNL     1       1.648   4.828  19.997  0.00  0.00    +0.000 A 
ATOM      3  C   UNL     1       2.118   3.540  20.588  0.00  0.00    +0.000 A 
ATOM      4  C   UNL     1       1.110   2.768  21.406  0.00  0.00    +0.000 C 
ATOM      5  N   UNL     1       3.318   3.050  20.462  0.00  0.00    +0.000 NA
ATOM      6  C   UNL     1       4.207   3.787  19.732  0.00  0.00    +0.000 A 
ATOM      7  N   UNL     1       5.479   3.554  19.474  0.00  0.00    +0.000 NA
ATOM      8  C   UNL     1       5.862   4.641  18.747  0.00  0.00    +0.000 A 
ATOM      9  N   UNL     1       4.913   5.551  18.520  0.00  0.00    +0.000 NA
ATOM     10  N   UNL     1       3.843   5.007  19.152  0.00  0.00    +0.000 N 
ENDROOT
BRANCH   1  11
ATOM     11  N   UNL     1       2.277   6.791  18.726  0.00  0.00    +0.000 N 
ATOM     12  H   UNL     1       3.130   7.164  18.288  0.00  0.00    +0.000 HD
BRANCH  11  17
ATOM     13  C   UNL     1       0.209  11.199  21.777  0.00  0.00    +0.000 C 
ATOM     14  C   UNL     1       0.721  10.032  20.986  0.00  0.00    +0.000 A 
ATOM     15  C   UNL     1       1.029   8.824  21.617  0.00  0.00    +0.000 A 
ATOM     16  C   UNL     1       1.521   7.746  20.876  0.00  0.00    +0.000 A 
ATOM     17  C   UNL     1       1.694   7.842  19.490  0.00  0.00    +0.000 A 
ATOM     18  C   UNL     1       1.415   9.062  18.866  0.00  0.00    +0.000 A 
ATOM     19  C   UNL     1       0.919  10.143  19.605  0.00  0.00    +0.000 A 
ENDBRANCH  11  17
ENDBRANCH   1  11
BRANCH   8  20
ATOM     20  S   UNL     1       7.493   4.949  18.222  0.00  0.00    +0.000 S 
BRANCH  20  21
ATOM     21  C   UNL     1       7.246   6.223  16.952  0.00  0.00    +0.000 C 
BRANCH  21  22
ATOM     22  C   UNL     1       6.980   5.580  15.623  0.00  0.00    +0.000 A 
ATOM     23  N   UNL     1       7.789   5.540  14.581  0.00  0.00    +0.000 NA
ATOM     24  C   UNL     1       7.141   4.784  13.630  0.00  0.00    +0.000 A 
ATOM     25  C   UNL     1       7.561   4.392  12.351  0.00  0.00    +0.000 A 
ATOM     26  C   UNL     1       6.713   3.588  11.577  0.00  0.00    +0.000 A 
ATOM     27  C   UNL     1       5.465   3.192  12.065  0.00  0.00    +0.000 A 
ATOM     28  C   UNL     1       5.025   3.583  13.336  0.00  0.00    +0.000 A 
ATOM     29  C   UNL     1       5.893   4.378  14.087  0.00  0.00    +0.000 A 
ATOM     30  N   UNL     1       5.804   4.919  15.344  0.00  0.00    +0.000 N 
ATOM     31  H   UNL     1       5.034   4.799  15.987  0.00  0.00    +0.000 HD
ENDBRANCH  21  22
ENDBRANCH  20  21
ENDBRANCH   8  20
TORSDOF 5
ENDMDL
MODEL 6
REMARK VINA RESULT:      -8.4      2.954      4.904
REMARK  Name = 
REMARK  7 active torsions:
REMARK  status: ('A' for Active; 'I' for Inactive)
REMARK    1  A    between atoms: C_1  and  C_2
REMARK    2  A    between atoms: C_5  and  N_6
REMARK    3  A    between atoms: N_6  and  C_7
REMARK    4  A    between atoms: C_9  and  C_10
REMARK    5  A    between atoms: C_14  and  S_15
REMARK    6  A    between atoms: S_15  and  C_16
REMARK    7  A    between atoms: C_16  and  C_17
REMARK                            x       y       z     vdW  Elec       q    Type
REMARK                         _______ _______ _______ _____ _____    ______ ____
ROOT
ATOM      1  C   UNL     1       2.548   5.474  20.013  0.00  0.00    +0.000 A 
ATOM      2  C   UNL     1       1.590   4.562  19.772  0.00  0.00    +0.000 A 
ATOM      3  C   UNL     1       1.987   3.356  18.987  0.00  0.00    +0.000 A 
ATOM      4  C   UNL     1       0.915   2.317  18.760  0.00  0.00    +0.000 C 
ATOM      5  N   UNL     1       3.176   3.135  18.503  0.00  0.00    +0.000 NA
ATOM      6  C   UNL     1       4.124   4.088  18.745  0.00  0.00    +0.000 A 
ATOM      7  N   UNL     1       5.399   4.109  18.410  0.00  0.00    +0.000 NA
ATOM      8  C   UNL     1       5.853   5.274  18.952  0.00  0.00    +0.000 A 
ATOM      9  N   UNL     1       4.946   6.000  19.608  0.00  0.00    +0.000 NA
ATOM     10  N   UNL     1       3.829   5.242  19.478  0.00  0.00    +0.000 N 
ENDROOT
BRANCH   1  11
ATOM     11  N   UNL     1       2.345   6.633  20.774  0.00  0.00    +0.000 N 
ATOM     12  H   UNL     1       1.907   6.384  21.671  0.00  0.00    +0.000 HD
BRANCH  11  17
ATOM     13  C   UNL     1      -0.238  11.310  18.661  0.00  0.00    +0.000 C 
ATOM     14  C   UNL     1       0.407  10.074  19.212  0.00  0.00    +0.000 A 
ATOM     15  C   UNL     1       0.106   9.627  20.502  0.00  0.00    +0.000 A 
ATOM     16  C   UNL     1       0.724   8.483  21.014  0.00  0.00    +0.000 A 
ATOM     17  C   UNL     1       1.635   7.748  20.245  0.00  0.00    +0.000 A 
ATOM     18  C   UNL     1       1.958   8.216  18.967  0.00  0.00    +0.000 A 
ATOM     19  C   UNL     1       1.338   9.360  18.449  0.00  0.00    +0.000 A 
ENDBRANCH  11  17
ENDBRANCH   1  11
BRANCH   8  20
ATOM     20  S   UNL     1       7.517   5.783  18.937  0.00  0.00    +0.000 S 
BRANCH  20  21
ATOM     21  C   UNL     1       7.559   6.892  17.499  0.00  0.00    +0.000 C 
BRANCH  21  22
ATOM     22  C   UNL     1       8.082   8.238  17.902  0.00  0.00    +0.000 A 
ATOM     23  N   UNL     1       7.971   9.370  17.232  0.00  0.00    +0.000 NA
ATOM     24  C   UNL     1       8.538  10.338  18.029  0.00  0.00    +0.000 A 
ATOM     25  C   UNL     1       8.656  11.719  17.824  0.00  0.00    +0.000 A 
ATOM     26  C   UNL     1       9.262  12.502  18.817  0.00  0.00    +0.000 A 
ATOM     27  C   UNL     1       9.751  11.916  19.987  0.00  0.00    +0.000 A 
ATOM     28  C   UNL     1       9.651  10.536  20.205  0.00  0.00    +0.000 A 
ATOM     29  C   UNL     1       9.037   9.782  19.201  0.00  0.00    +0.000 A 
ATOM     30  N   UNL     1       8.759   8.445  19.084  0.00  0.00    +0.000 N 
ATOM     31  H   UNL     1       8.956   7.737  19.777  0.00  0.00    +0.000 HD
ENDBRANCH  21  22
ENDBRANCH  20  21
ENDBRANCH   8  20
TORSDOF 5
ENDMDL
MODEL 7
REMARK VINA RESULT:      -8.3      2.989      8.248
REMARK  Name = 
REMARK  7 active torsions:
REMARK  status: ('A' for Active; 'I' for Inactive)
REMARK    1  A    between atoms: C_1  and  C_2
REMARK    2  A    between atoms: C_5  and  N_6
REMARK    3  A    between atoms: N_6  and  C_7
REMARK    4  A    between atoms: C_9  and  C_10
REMARK    5  A    between atoms: C_14  and  S_15
REMARK    6  A    between atoms: S_15  and  C_16
REMARK    7  A    between atoms: C_16  and  C_17
REMARK                            x       y       z     vdW  Elec       q    Type
REMARK                         _______ _______ _______ _____ _____    ______ ____
ROOT
ATOM      1  C   UNL     1       4.579   5.137  19.022  0.00  0.00    +0.000 A 
ATOM      2  C   UNL     1       4.309   4.018  19.718  0.00  0.00    +0.000 A 
ATOM      3  C   UNL     1       2.972   3.938  20.377  0.00  0.00    +0.000 A 
ATOM      4  C   UNL     1       2.662   2.660  21.119  0.00  0.00    +0.000 C 
ATOM      5  N   UNL     1       2.064   4.872  20.347  0.00  0.00    +0.000 NA
ATOM      6  C   UNL     1       2.373   6.005  19.650  0.00  0.00    +0.000 A 
ATOM      7  N   UNL     1       1.643   7.080  19.427  0.00  0.00    +0.000 NA
ATOM      8  C   UNL     1       2.444   7.854  18.642  0.00  0.00    +0.000 A 
ATOM      9  N   UNL     1       3.642   7.343  18.354  0.00  0.00    +0.000 NA
ATOM     10  N   UNL     1       3.604   6.151  19.001  0.00  0.00    +0.000 N 
ENDROOT
BRANCH   1  11
ATOM     11  N   UNL     1       5.768   5.342  18.310  0.00  0.00    +0.000 N 
ATOM     12  H   UNL     1       6.065   6.322  18.407  0.00  0.00    +0.000 HD
BRANCH  11  17
ATOM     13  C   UNL     1       6.223   3.634  12.842  0.00  0.00    +0.000 C 
ATOM     14  C   UNL     1       6.103   4.111  14.259  0.00  0.00    +0.000 A 
ATOM     15  C   UNL     1       7.135   4.841  14.856  0.00  0.00    +0.000 A 
ATOM     16  C   UNL     1       7.022   5.267  16.182  0.00  0.00    +0.000 A 
ATOM     17  C   UNL     1       5.871   4.997  16.932  0.00  0.00    +0.000 A 
ATOM     18  C   UNL     1       4.854   4.239  16.343  0.00  0.00    +0.000 A 
ATOM     19  C   UNL     1       4.962   3.813  15.013  0.00  0.00    +0.000 A 
ENDBRANCH  11  17
ENDBRANCH   1  11
BRANCH   8  20
ATOM     20  S   UNL     1       1.956   9.363  17.924  0.00  0.00    +0.000 S 
BRANCH  20  21
ATOM     21  C   UNL     1       0.854  10.046  19.195  0.00  0.00    +0.000 C 
BRANCH  21  22
ATOM     22  C   UNL     1      -0.498  10.326  18.608  0.00  0.00    +0.000 A 
ATOM     23  N   UNL     1      -1.520  10.913  19.204  0.00  0.00    +0.000 NA
ATOM     24  C   UNL     1      -2.507  11.012  18.250  0.00  0.00    +0.000 A 
ATOM     25  C   UNL     1      -3.784  11.583  18.330  0.00  0.00    +0.000 A 
ATOM     26  C   UNL     1      -4.600  11.578  17.191  0.00  0.00    +0.000 A 
ATOM     27  C   UNL     1      -4.156  11.004  15.997  0.00  0.00    +0.000 A 
ATOM     28  C   UNL     1      -2.887  10.419  15.902  0.00  0.00    +0.000 A 
ATOM     29  C   UNL     1      -2.093  10.444  17.051  0.00  0.00    +0.000 A 
ATOM     30  N   UNL     1      -0.825   9.992  17.312  0.00  0.00    +0.000 N 
ATOM     31  H   UNL     1      -0.206   9.549  16.649  0.00  0.00    +0.000 HD
ENDBRANCH  21  22
ENDBRANCH  20  21
ENDBRANCH   8  20
TORSDOF 5
ENDMDL
MODEL 8
REMARK VINA RESULT:      -8.3      3.618      5.475
REMARK  Name = 
REMARK  7 active torsions:
REMARK  status: ('A' for Active; 'I' for Inactive)
REMARK    1  A    between atoms: C_1  and  C_2
REMARK    2  A    between atoms: C_5  and  N_6
REMARK    3  A    between atoms: N_6  and  C_7
REMARK    4  A    between atoms: C_9  and  C_10
REMARK    5  A    between atoms: C_14  and  S_15
REMARK    6  A    between atoms: S_15  and  C_16
REMARK    7  A    between atoms: C_16  and  C_17
REMARK                            x       y       z     vdW  Elec       q    Type
REMARK                         _______ _______ _______ _____ _____    ______ ____
ROOT
ATOM      1  C   UNL     1       3.015   5.576  18.177  0.00  0.00    +0.000 A 
ATOM      2  C   UNL     1       2.231   4.522  18.463  0.00  0.00    +0.000 A 
ATOM      3  C   UNL     1       2.906   3.306  19.007  0.00  0.00    +0.000 A 
ATOM      4  C   UNL     1       2.011   2.143  19.367  0.00  0.00    +0.000 C 
ATOM      5  N   UNL     1       4.188   3.184  19.203  0.00  0.00    +0.000 NA
ATOM      6  C   UNL     1       4.962   4.263  18.885  0.00  0.00    +0.000 A 
ATOM      7  N   UNL     1       6.264   4.430  19.011  0.00  0.00    +0.000 NA
ATOM      8  C   UNL     1       6.466   5.706  18.580  0.00  0.00    +0.000 A 
ATOM      9  N   UNL     1       5.376   6.364  18.183  0.00  0.00    +0.000 NA
ATOM     10  N   UNL     1       4.402   5.439  18.376  0.00  0.00    +0.000 N 
ENDROOT
BRANCH   1  11
ATOM     11  N   UNL     1       2.528   6.802  17.706  0.00  0.00    +0.000 N 
ATOM     12  H   UNL     1       3.232   7.243  17.099  0.00  0.00    +0.000 HD
BRANCH  11  17
ATOM     13  C   UNL     1       0.323  10.645  21.365  0.00  0.00    +0.000 C 
ATOM     14  C   UNL     1       0.924   9.661  20.406  0.00  0.00    +0.000 A 
ATOM     15  C   UNL     1       1.022   9.963  19.044  0.00  0.00    +0.000 A 
ATOM     16  C   UNL     1       1.568   9.035  18.153  0.00  0.00    +0.000 A 
ATOM     17  C   UNL     1       2.050   7.799  18.603  0.00  0.00    +0.000 A 
ATOM     18  C   UNL     1       1.922   7.488  19.961  0.00  0.00    +0.000 A 
ATOM     19  C   UNL     1       1.378   8.417  20.857  0.00  0.00    +0.000 A 
ENDBRANCH  11  17
ENDBRANCH   1  11
BRANCH   8  20
ATOM     20  S   UNL     1       7.998   6.532  18.635  0.00  0.00    +0.000 S 
BRANCH  20  21
ATOM     21  C   UNL     1       7.694   7.961  17.556  0.00  0.00    +0.000 C 
BRANCH  21  22
ATOM     22  C   UNL     1       8.336   9.187  18.133  0.00  0.00    +0.000 A 
ATOM     23  N   UNL     1       9.036   9.269  19.250  0.00  0.00    +0.000 NA
ATOM     24  C   UNL     1       9.479  10.571  19.322  0.00  0.00    +0.000 A 
ATOM     25  C   UNL     1      10.292  11.194  20.278  0.00  0.00    +0.000 A 
ATOM     26  C   UNL     1      10.625  12.545  20.107  0.00  0.00    +0.000 A 
ATOM     27  C   UNL     1      10.147  13.263  19.008  0.00  0.00    +0.000 A 
ATOM     28  C   UNL     1       9.325  12.660  18.048  0.00  0.00    +0.000 A 
ATOM     29  C   UNL     1       9.014  11.311  18.242  0.00  0.00    +0.000 A 
ATOM     30  N   UNL     1       8.270  10.417  17.516  0.00  0.00    +0.000 N 
ATOM     31  H   UNL     1       7.805  10.608  16.640  0.00  0.00    +0.000 HD
ENDBRANCH  21  22
ENDBRANCH  20  21
ENDBRANCH   8  20
TORSDOF 5
ENDMDL
MODEL 9
REMARK VINA RESULT:      -8.2      2.903      4.748
REMARK  Name = 
REMARK  7 active torsions:
REMARK  status: ('A' for Active; 'I' for Inactive)
REMARK    1  A    between atoms: C_1  and  C_2
REMARK    2  A    between atoms: C_5  and  N_6
REMARK    3  A    between atoms: N_6  and  C_7
REMARK    4  A    between atoms: C_9  and  C_10
REMARK    5  A    between atoms: C_14  and  S_15
REMARK    6  A    between atoms: S_15  and  C_16
REMARK    7  A    between atoms: C_16  and  C_17
REMARK                            x       y       z     vdW  Elec       q    Type
REMARK                         _______ _______ _______ _____ _____    ______ ____
ROOT
ATOM      1  C   UNL     1       2.540   5.198  19.943  0.00  0.00    +0.000 A 
ATOM      2  C   UNL     1       1.585   4.281  19.711  0.00  0.00    +0.000 A 
ATOM      3  C   UNL     1       1.957   3.121  18.847  0.00  0.00    +0.000 A 
ATOM      4  C   UNL     1       0.891   2.075  18.628  0.00  0.00    +0.000 C 
ATOM      5  N   UNL     1       3.121   2.945  18.289  0.00  0.00    +0.000 NA
ATOM      6  C   UNL     1       4.066   3.903  18.526  0.00  0.00    +0.000 A 
ATOM      7  N   UNL     1       5.320   3.963  18.124  0.00  0.00    +0.000 NA
ATOM      8  C   UNL     1       5.784   5.109  18.697  0.00  0.00    +0.000 A 
ATOM      9  N   UNL     1       4.904   5.786  19.435  0.00  0.00    +0.000 NA
ATOM     10  N   UNL     1       3.794   5.015  19.329  0.00  0.00    +0.000 N 
ENDROOT
BRANCH   1  11
ATOM     11  N   UNL     1       2.361   6.315  20.770  0.00  0.00    +0.000 N 
ATOM     12  H   UNL     1       1.757   6.064  21.564  0.00  0.00    +0.000 HD
BRANCH  11  17
ATOM     13  C   UNL     1       0.150  11.174  18.646  0.00  0.00    +0.000 C 
ATOM     14  C   UNL     1       0.757   9.919  19.199  0.00  0.00    +0.000 A 
ATOM     15  C   UNL     1       1.573   9.111  18.402  0.00  0.00    +0.000 A 
ATOM     16  C   UNL     1       2.122   7.935  18.919  0.00  0.00    +0.000 A 
ATOM     17  C   UNL     1       1.889   7.552  20.246  0.00  0.00    +0.000 A 
ATOM     18  C   UNL     1       1.046   8.346  21.031  0.00  0.00    +0.000 A 
ATOM     19  C   UNL     1       0.497   9.527  20.517  0.00  0.00    +0.000 A 
ENDBRANCH  11  17
ENDBRANCH   1  11
BRANCH   8  20
ATOM     20  S   UNL     1       7.438   5.649  18.617  0.00  0.00    +0.000 S 
BRANCH  20  21
ATOM     21  C   UNL     1       7.349   6.947  17.349  0.00  0.00    +0.000 C 
BRANCH  21  22
ATOM     22  C   UNL     1       7.917   8.227  17.884  0.00  0.00    +0.000 A 
ATOM     23  N   UNL     1       8.692   8.374  18.943  0.00  0.00    +0.000 NA
ATOM     24  C   UNL     1       9.015   9.712  18.990  0.00  0.00    +0.000 A 
ATOM     25  C   UNL     1       9.839  10.409  19.884  0.00  0.00    +0.000 A 
ATOM     26  C   UNL     1      10.029  11.785  19.699  0.00  0.00    +0.000 A 
ATOM     27  C   UNL     1       9.400  12.456  18.647  0.00  0.00    +0.000 A 
ATOM     28  C   UNL     1       8.565  11.778  17.750  0.00  0.00    +0.000 A 
ATOM     29  C   UNL     1       8.399  10.406  17.956  0.00  0.00    +0.000 A 
ATOM     30  N   UNL     1       7.687   9.446  17.284  0.00  0.00    +0.000 N 
ATOM     31  H   UNL     1       7.137   9.592  16.450  0.00  0.00    +0.000 HD
ENDBRANCH  21  22
ENDBRANCH  20  21
ENDBRANCH   8  20
TORSDOF 5
ENDMDL
