MODEL 1
REMARK VINA RESULT:      -8.0      0.000      0.000
REMARK  Name = 
REMARK  0 active torsions:
REMARK  status: ('A' for Active; 'I' for Inactive)
REMARK                            x       y       z     vdW  Elec       q    Type
REMARK                         _______ _______ _______ _____ _____    ______ ____
ROOT
ATOM      1  O   UNL     1       7.411   4.924  18.859  0.00  0.00    +0.000 OA
ATOM      2  C   UNL     1       6.494   4.619  18.134  0.00  0.00    +0.000 C 
ATOM      3  C   UNL     1       6.487   4.594  16.662  0.00  0.00    +0.000 A 
ATOM      4  C   UNL     1       7.480   4.902  15.751  0.00  0.00    +0.000 A 
ATOM      5  C   UNL     1       7.163   4.782  14.394  0.00  0.00    +0.000 A 
ATOM      6  C   UNL     1       5.882   4.364  13.985  0.00  0.00    +0.000 A 
ATOM      7  C   UNL     1       4.896   4.060  14.925  0.00  0.00    +0.000 A 
ATOM      8  C   UNL     1       5.215   4.181  16.266  0.00  0.00    +0.000 A 
ATOM      9  N   UNL     1       4.406   3.937  17.381  0.00  0.00    +0.000 N 
ATOM     10  C   UNL     1       5.091   4.174  18.547  0.00  0.00    +0.000 A 
ATOM     11  N   UNL     1       4.622   4.041  19.743  0.00  0.00    +0.000 NA
ATOM     12  C   UNL     1       3.303   3.616  19.819  0.00  0.00    +0.000 A 
ATOM     13  C   UNL     1       2.536   3.354  18.750  0.00  0.00    +0.000 A 
ATOM     14  C   UNL     1       3.105   3.523  17.386  0.00  0.00    +0.000 A 
ATOM     15  O   UNL     1       2.422   3.296  16.392  0.00  0.00    +0.000 OA
ATOM     16  C   UNL     1       1.120   2.893  18.779  0.00  0.00    +0.000 C 
ATOM     17  C   UNL     1       0.479   2.708  20.143  0.00  0.00    +0.000 C 
ATOM     18  C   UNL     1       1.331   2.952  21.383  0.00  0.00    +0.000 C 
ATOM     19  C   UNL     1       2.767   3.457  21.215  0.00  0.00    +0.000 C 
ENDROOT
TORSDOF 0
ENDMDL
MODEL 2
REMARK VINA RESULT:      -7.7      2.539      5.421
REMARK  Name = 
REMARK  0 active torsions:
REMARK  status: ('A' for Active; 'I' for Inactive)
REMARK                            x       y       z     vdW  Elec       q    Type
REMARK                         _______ _______ _______ _____ _____    ______ ____
ROOT
ATOM      1  O   UNL     1       4.924   1.901  20.431  0.00  0.00    +0.000 OA
ATOM      2  C   UNL     1       4.405   2.749  19.744  0.00  0.00    +0.000 C 
ATOM      3  C   UNL     1       3.017   2.779  19.256  0.00  0.00    +0.000 A 
ATOM      4  C   UNL     1       1.978   1.886  19.439  0.00  0.00    +0.000 A 
ATOM      5  C   UNL     1       0.755   2.195  18.836  0.00  0.00    +0.000 A 
ATOM      6  C   UNL     1       0.600   3.371  18.077  0.00  0.00    +0.000 A 
ATOM      7  C   UNL     1       1.665   4.257  17.907  0.00  0.00    +0.000 A 
ATOM      8  C   UNL     1       2.873   3.946  18.505  0.00  0.00    +0.000 A 
ATOM      9  N   UNL     1       4.071   4.666  18.478  0.00  0.00    +0.000 N 
ATOM     10  C   UNL     1       5.048   4.023  19.197  0.00  0.00    +0.000 A 
ATOM     11  N   UNL     1       6.262   4.433  19.362  0.00  0.00    +0.000 NA
ATOM     12  C   UNL     1       6.571   5.637  18.745  0.00  0.00    +0.000 A 
ATOM     13  C   UNL     1       5.701   6.354  18.019  0.00  0.00    +0.000 A 
ATOM     14  C   UNL     1       4.311   5.851  17.843  0.00  0.00    +0.000 A 
ATOM     15  O   UNL     1       3.498   6.485  17.178  0.00  0.00    +0.000 OA
ATOM     16  C   UNL     1       5.981   7.651  17.342  0.00  0.00    +0.000 C 
ATOM     17  C   UNL     1       7.385   8.213  17.479  0.00  0.00    +0.000 C 
ATOM     18  C   UNL     1       8.392   7.451  18.333  0.00  0.00    +0.000 C 
ATOM     19  C   UNL     1       7.985   6.109  18.949  0.00  0.00    +0.000 C 
ENDROOT
TORSDOF 0
ENDMDL
MODEL 3
REMARK VINA RESULT:      -7.1      3.679      3.839
REMARK  Name = 
REMARK  0 active torsions:
REMARK  status: ('A' for Active; 'I' for Inactive)
REMARK                            x       y       z     vdW  Elec       q    Type
REMARK                         _______ _______ _______ _____ _____    ______ ____
ROOT
ATOM      1  O   UNL     1       4.430   3.413  19.468  0.00  0.00    +0.000 OA
ATOM      2  C   UNL     1       4.312   4.379  18.752  0.00  0.00    +0.000 C 
ATOM      3  C   UNL     1       4.953   4.609  17.448  0.00  0.00    +0.000 A 
ATOM      4  C   UNL     1       5.826   3.820  16.721  0.00  0.00    +0.000 A 
ATOM      5  C   UNL     1       6.271   4.322  15.493  0.00  0.00    +0.000 A 
ATOM      6  C   UNL     1       5.842   5.580  15.028  0.00  0.00    +0.000 A 
ATOM      7  C   UNL     1       4.960   6.357  15.781  0.00  0.00    +0.000 A 
ATOM      8  C   UNL     1       4.524   5.856  16.994  0.00  0.00    +0.000 A 
ATOM      9  N   UNL     1       3.651   6.442  17.918  0.00  0.00    +0.000 N 
ATOM     10  C   UNL     1       3.464   5.626  19.005  0.00  0.00    +0.000 A 
ATOM     11  N   UNL     1       2.718   5.883  20.027  0.00  0.00    +0.000 NA
ATOM     12  C   UNL     1       2.056   7.102  19.988  0.00  0.00    +0.000 A 
ATOM     13  C   UNL     1       2.161   7.980  18.979  0.00  0.00    +0.000 A 
ATOM     14  C   UNL     1       3.034   7.657  17.819  0.00  0.00    +0.000 A 
ATOM     15  O   UNL     1       3.151   8.446  16.887  0.00  0.00    +0.000 OA
ATOM     16  C   UNL     1       1.470   9.296  18.887  0.00  0.00    +0.000 C 
ATOM     17  C   UNL     1       0.569   9.688  20.046  0.00  0.00    +0.000 C 
ATOM     18  C   UNL     1       0.389   8.698  21.190  0.00  0.00    +0.000 C 
ATOM     19  C   UNL     1       1.184   7.389  21.179  0.00  0.00    +0.000 C 
ENDROOT
TORSDOF 0
ENDMDL
MODEL 4
REMARK VINA RESULT:      -7.1      4.839      6.692
REMARK  Name = 
REMARK  0 active torsions:
REMARK  status: ('A' for Active; 'I' for Inactive)
REMARK                            x       y       z     vdW  Elec       q    Type
REMARK                         _______ _______ _______ _____ _____    ______ ____
ROOT
ATOM      1  O   UNL     1       2.194  10.261  17.455  0.00  0.00    +0.000 OA
ATOM      2  C   UNL     1       1.993   9.441  18.319  0.00  0.00    +0.000 C 
ATOM      3  C   UNL     1       1.182   9.603  19.536  0.00  0.00    +0.000 A 
ATOM      4  C   UNL     1       0.465  10.689  20.003  0.00  0.00    +0.000 A 
ATOM      5  C   UNL     1      -0.214  10.533  21.216  0.00  0.00    +0.000 A 
ATOM      6  C   UNL     1      -0.162   9.317  21.923  0.00  0.00    +0.000 A 
ATOM      7  C   UNL     1       0.570   8.235  21.430  0.00  0.00    +0.000 A 
ATOM      8  C   UNL     1       1.240   8.395  20.230  0.00  0.00    +0.000 A 
ATOM      9  N   UNL     1       2.031   7.468  19.543  0.00  0.00    +0.000 N 
ATOM     10  C   UNL     1       2.525   8.009  18.382  0.00  0.00    +0.000 A 
ATOM     11  N   UNL     1       3.287   7.408  17.530  0.00  0.00    +0.000 NA
ATOM     12  C   UNL     1       3.614   6.097  17.846  0.00  0.00    +0.000 A 
ATOM     13  C   UNL     1       3.191   5.464  18.950  0.00  0.00    +0.000 A 
ATOM     14  C   UNL     1       2.319   6.186  19.915  0.00  0.00    +0.000 A 
ATOM     15  O   UNL     1       1.923   5.631  20.936  0.00  0.00    +0.000 OA
ATOM     16  C   UNL     1       3.509   4.060  19.333  0.00  0.00    +0.000 C 
ATOM     17  C   UNL     1       4.402   3.271  18.391  0.00  0.00    +0.000 C 
ATOM     18  C   UNL     1       4.867   3.940  17.103  0.00  0.00    +0.000 C 
ATOM     19  C   UNL     1       4.496   5.404  16.844  0.00  0.00    +0.000 C 
ENDROOT
TORSDOF 0
ENDMDL
MODEL 5
REMARK VINA RESULT:      -7.1      4.487      4.845
REMARK  Name = 
REMARK  0 active torsions:
REMARK  status: ('A' for Active; 'I' for Inactive)
REMARK                            x       y       z     vdW  Elec       q    Type
REMARK                         _______ _______ _______ _____ _____    ______ ____
ROOT
ATOM      1  O   UNL     1       3.164   4.100  20.455  0.00  0.00    +0.000 OA
ATOM      2  C   UNL     1       3.232   4.992  19.644  0.00  0.00    +0.000 C 
ATOM      3  C   UNL     1       4.007   5.009  18.393  0.00  0.00    +0.000 A 
ATOM      4  C   UNL     1       4.833   4.053  17.832  0.00  0.00    +0.000 A 
ATOM      5  C   UNL     1       5.443   4.369  16.614  0.00  0.00    +0.000 A 
ATOM      6  C   UNL     1       5.216   5.612  15.993  0.00  0.00    +0.000 A 
ATOM      7  C   UNL     1       4.377   6.561  16.580  0.00  0.00    +0.000 A 
ATOM      8  C   UNL     1       3.778   6.244  17.786  0.00  0.00    +0.000 A 
ATOM      9  N   UNL     1       2.909   7.020  18.560  0.00  0.00    +0.000 N 
ATOM     10  C   UNL     1       2.528   6.349  19.695  0.00  0.00    +0.000 A 
ATOM     11  N   UNL     1       1.734   6.796  20.610  0.00  0.00    +0.000 NA
ATOM     12  C   UNL     1       1.237   8.073  20.392  0.00  0.00    +0.000 A 
ATOM     13  C   UNL     1       1.537   8.823  19.321  0.00  0.00    +0.000 A 
ATOM     14  C   UNL     1       2.460   8.281  18.288  0.00  0.00    +0.000 A 
ATOM     15  O   UNL     1       2.755   8.950  17.302  0.00  0.00    +0.000 OA
ATOM     16  C   UNL     1       1.027  10.194  19.039  0.00  0.00    +0.000 C 
ATOM     17  C   UNL     1       0.086  10.806  20.062  0.00  0.00    +0.000 C 
ATOM     18  C   UNL     1      -0.316   9.969  21.270  0.00  0.00    +0.000 C 
ATOM     19  C   UNL     1       0.307   8.583  21.459  0.00  0.00    +0.000 C 
ENDROOT
TORSDOF 0
ENDMDL
MODEL 6
REMARK VINA RESULT:      -6.9      1.453      1.535
REMARK  Name = 
REMARK  0 active torsions:
REMARK  status: ('A' for Active; 'I' for Inactive)
REMARK                            x       y       z     vdW  Elec       q    Type
REMARK                         _______ _______ _______ _____ _____    ______ ____
ROOT
ATOM      1  O   UNL     1       6.806   7.107  17.123  0.00  0.00    +0.000 OA
ATOM      2  C   UNL     1       6.121   6.186  16.749  0.00  0.00    +0.000 C 
ATOM      3  C   UNL     1       6.273   5.403  15.512  0.00  0.00    +0.000 A 
ATOM      4  C   UNL     1       7.196   5.505  14.488  0.00  0.00    +0.000 A 
ATOM      5  C   UNL     1       7.077   4.602  13.426  0.00  0.00    +0.000 A 
ATOM      6  C   UNL     1       6.056   3.634  13.412  0.00  0.00    +0.000 A 
ATOM      7  C   UNL     1       5.135   3.551  14.458  0.00  0.00    +0.000 A 
ATOM      8  C   UNL     1       5.257   4.447  15.506  0.00  0.00    +0.000 A 
ATOM      9  N   UNL     1       4.464   4.562  16.653  0.00  0.00    +0.000 N 
ATOM     10  C   UNL     1       4.910   5.580  17.458  0.00  0.00    +0.000 A 
ATOM     11  N   UNL     1       4.391   5.937  18.586  0.00  0.00    +0.000 NA
ATOM     12  C   UNL     1       3.286   5.201  18.990  0.00  0.00    +0.000 A 
ATOM     13  C   UNL     1       2.763   4.186  18.288  0.00  0.00    +0.000 A 
ATOM     14  C   UNL     1       3.380   3.803  16.990  0.00  0.00    +0.000 A 
ATOM     15  O   UNL     1       2.916   2.881  16.326  0.00  0.00    +0.000 OA
ATOM     16  C   UNL     1       1.584   3.364  18.680  0.00  0.00    +0.000 C 
ATOM     17  C   UNL     1       0.904   3.710  19.993  0.00  0.00    +0.000 C 
ATOM     18  C   UNL     1       1.496   4.829  20.843  0.00  0.00    +0.000 C 
ATOM     19  C   UNL     1       2.693   5.620  20.308  0.00  0.00    +0.000 C 
ENDROOT
TORSDOF 0
ENDMDL
MODEL 7
REMARK VINA RESULT:      -6.8      4.491      5.749
REMARK  Name = 
REMARK  0 active torsions:
REMARK  status: ('A' for Active; 'I' for Inactive)
REMARK                            x       y       z     vdW  Elec       q    Type
REMARK                         _______ _______ _______ _____ _____    ______ ____
ROOT
ATOM      1  O   UNL     1       4.464   5.566  16.643  0.00  0.00    +0.000 OA
ATOM      2  C   UNL     1       3.834   5.596  17.673  0.00  0.00    +0.000 C 
ATOM      3  C   UNL     1       3.654   4.506  18.644  0.00  0.00    +0.000 A 
ATOM      4  C   UNL     1       4.132   3.208  18.642  0.00  0.00    +0.000 A 
ATOM      5  C   UNL     1       3.780   2.394  19.723  0.00  0.00    +0.000 A 
ATOM      6  C   UNL     1       2.972   2.887  20.766  0.00  0.00    +0.000 A 
ATOM      7  C   UNL     1       2.502   4.201  20.745  0.00  0.00    +0.000 A 
ATOM      8  C   UNL     1       2.852   5.001  19.673  0.00  0.00    +0.000 A 
ATOM      9  N   UNL     1       2.506   6.335  19.429  0.00  0.00    +0.000 N 
ATOM     10  C   UNL     1       3.053   6.777  18.250  0.00  0.00    +0.000 A 
ATOM     11  N   UNL     1       2.918   7.959  17.748  0.00  0.00    +0.000 NA
ATOM     12  C   UNL     1       2.147   8.837  18.497  0.00  0.00    +0.000 A 
ATOM     13  C   UNL     1       1.564   8.519  19.662  0.00  0.00    +0.000 A 
ATOM     14  C   UNL     1       1.734   7.146  20.210  0.00  0.00    +0.000 A 
ATOM     15  O   UNL     1       1.206   6.828  21.271  0.00  0.00    +0.000 OA
ATOM     16  C   UNL     1       0.733   9.424  20.504  0.00  0.00    +0.000 C 
ATOM     17  C   UNL     1       0.516  10.838  19.994  0.00  0.00    +0.000 C 
ATOM     18  C   UNL     1       1.198  11.253  18.696  0.00  0.00    +0.000 C 
ATOM     19  C   UNL     1       2.001  10.214  17.908  0.00  0.00    +0.000 C 
ENDROOT
TORSDOF 0
ENDMDL
MODEL 8
REMARK VINA RESULT:      -6.8      4.568      5.325
REMARK  Name = 
REMARK  0 active torsions:
REMARK  status: ('A' for Active; 'I' for Inactive)
REMARK                            x       y       z     vdW  Elec       q    Type
REMARK                         _______ _______ _______ _____ _____    ______ ____
ROOT
ATOM      1  O   UNL     1       2.061   3.990  21.442  0.00  0.00    +0.000 OA
ATOM      2  C   UNL     1       2.315   4.729  20.521  0.00  0.00    +0.000 C 
ATOM      3  C   UNL     1       3.073   4.411  19.301  0.00  0.00    +0.000 A 
ATOM      4  C   UNL     1       3.675   3.234  18.895  0.00  0.00    +0.000 A 
ATOM      5  C   UNL     1       4.335   3.245  17.662  0.00  0.00    +0.000 A 
ATOM      6  C   UNL     1       4.378   4.412  16.875  0.00  0.00    +0.000 A 
ATOM      7  C   UNL     1       3.762   5.587  17.307  0.00  0.00    +0.000 A 
ATOM      8  C   UNL     1       3.111   5.571  18.528  0.00  0.00    +0.000 A 
ATOM      9  N   UNL     1       2.430   6.612  19.167  0.00  0.00    +0.000 N 
ATOM     10  C   UNL     1       1.917   6.198  20.372  0.00  0.00    +0.000 A 
ATOM     11  N   UNL     1       1.239   6.924  21.197  0.00  0.00    +0.000 NA
ATOM     12  C   UNL     1       1.025   8.235  20.797  0.00  0.00    +0.000 A 
ATOM     13  C   UNL     1       1.476   8.751  19.644  0.00  0.00    +0.000 A 
ATOM     14  C   UNL     1       2.260   7.891  18.718  0.00  0.00    +0.000 A 
ATOM     15  O   UNL     1       2.689   8.341  17.660  0.00  0.00    +0.000 OA
ATOM     16  C   UNL     1       1.270  10.147  19.168  0.00  0.00    +0.000 C 
ATOM     17  C   UNL     1       0.483  11.079  20.074  0.00  0.00    +0.000 C 
ATOM     18  C   UNL     1      -0.085  10.518  21.373  0.00  0.00    +0.000 C 
ATOM     19  C   UNL     1       0.229   9.070  21.762  0.00  0.00    +0.000 C 
ENDROOT
TORSDOF 0
ENDMDL
MODEL 9
REMARK VINA RESULT:      -6.7      1.345      1.358
REMARK  Name = 
REMARK  0 active torsions:
REMARK  status: ('A' for Active; 'I' for Inactive)
REMARK                            x       y       z     vdW  Elec       q    Type
REMARK                         _______ _______ _______ _____ _____    ______ ____
ROOT
ATOM      1  O   UNL     1       5.899   7.381  17.659  0.00  0.00    +0.000 OA
ATOM      2  C   UNL     1       5.551   6.270  17.337  0.00  0.00    +0.000 C 
ATOM      3  C   UNL     1       5.954   5.518  16.139  0.00  0.00    +0.000 A 
ATOM      4  C   UNL     1       6.800   5.862  15.100  0.00  0.00    +0.000 A 
ATOM      5  C   UNL     1       6.984   4.918  14.085  0.00  0.00    +0.000 A 
ATOM      6  C   UNL     1       6.331   3.672  14.130  0.00  0.00    +0.000 A 
ATOM      7  C   UNL     1       5.481   3.348  15.189  0.00  0.00    +0.000 A 
ATOM      8  C   UNL     1       5.302   4.286  16.190  0.00  0.00    +0.000 A 
ATOM      9  N   UNL     1       4.509   4.195  17.339  0.00  0.00    +0.000 N 
ATOM     10  C   UNL     1       4.597   5.342  18.089  0.00  0.00    +0.000 A 
ATOM     11  N   UNL     1       3.985   5.568  19.204  0.00  0.00    +0.000 NA
ATOM     12  C   UNL     1       3.176   4.535  19.656  0.00  0.00    +0.000 A 
ATOM     13  C   UNL     1       3.013   3.371  19.010  0.00  0.00    +0.000 A 
ATOM     14  C   UNL     1       3.727   3.145  17.725  0.00  0.00    +0.000 A 
ATOM     15  O   UNL     1       3.589   2.091  17.112  0.00  0.00    +0.000 OA
ATOM     16  C   UNL     1       2.161   2.233  19.455  0.00  0.00    +0.000 C 
ATOM     17  C   UNL     1       1.399   2.406  20.758  0.00  0.00    +0.000 C 
ATOM     18  C   UNL     1       1.593   3.697  21.545  0.00  0.00    +0.000 C 
ATOM     19  C   UNL     1       2.473   4.805  20.959  0.00  0.00    +0.000 C 
ENDROOT
TORSDOF 0
ENDMDL
