MODEL 1
REMARK VINA RESULT:      -8.3      0.000      0.000
REMARK  Name = 
REMARK  5 active torsions:
REMARK  status: ('A' for Active; 'I' for Inactive)
REMARK    1  A    between atoms: C_2  and  C_3
REMARK    2  A    between atoms: C_3  and  C_4
REMARK    3  A    between atoms: C_6  and  O_7
REMARK    4  A    between atoms: N_10  and  N_11
REMARK    5  A    between atoms: C_12  and  C_13
REMARK                            x       y       z     vdW  Elec       q    Type
REMARK                         _______ _______ _______ _____ _____    ______ ____
ROOT
ATOM      1  O   UNL     1       7.803   5.281  14.800  0.00  0.00    +0.000 OA
ATOM      2  C   UNL     1       7.068   4.745  15.636  0.00  0.00    +0.000 C 
ATOM      3  N   UNL     1       5.971   4.035  15.215  0.00  0.00    +0.000 N 
ATOM      4  H   UNL     1       5.840   3.961  14.211  0.00  0.00    +0.000 HD
ENDROOT
BRANCH   3   5
ATOM      5  N   UNL     1       5.088   3.467  16.076  0.00  0.00    +0.000 NA
ATOM      6  C   UNL     1       4.323   4.305  16.711  0.00  0.00    +0.000 C 
BRANCH   6   7
ATOM      7  C   UNL     1       3.287   3.850  17.671  0.00  0.00    +0.000 A 
ATOM      8  C   UNL     1       2.865   2.515  17.582  0.00  0.00    +0.000 A 
ATOM      9  C   UNL     1       1.877   2.032  18.429  0.00  0.00    +0.000 A 
ATOM     10  C   UNL     1       1.302   2.882  19.370  0.00  0.00    +0.000 A 
ATOM     11  C   UNL     1       1.709   4.221  19.485  0.00  0.00    +0.000 A 
ATOM     12  C   UNL     1       1.107   5.047  20.446  0.00  0.00    +0.000 A 
ATOM     13  C   UNL     1       1.487   6.378  20.594  0.00  0.00    +0.000 A 
ATOM     14  C   UNL     1       2.481   6.902  19.780  0.00  0.00    +0.000 A 
ATOM     15  C   UNL     1       3.089   6.095  18.816  0.00  0.00    +0.000 A 
ATOM     16  C   UNL     1       2.723   4.735  18.634  0.00  0.00    +0.000 A 
ENDBRANCH   6   7
ENDBRANCH   3   5
BRANCH   2  17
ATOM     17  C   UNL     1       7.291   4.868  17.143  0.00  0.00    +0.000 C 
BRANCH  17  18
ATOM     18  C   UNL     1       7.634   6.264  17.564  0.00  0.00    +0.000 A 
ATOM     19  C   UNL     1       8.224   6.753  18.714  0.00  0.00    +0.000 A 
ATOM     20  C   UNL     1       8.300   8.132  18.496  0.00  0.00    +0.000 A 
ATOM     21  N   UNL     1       7.786   8.523  17.340  0.00  0.00    +0.000 NA
ATOM     22  N   UNL     1       7.385   7.369  16.782  0.00  0.00    +0.000 N 
ATOM     23  H   UNL     1       6.985   7.384  15.845  0.00  0.00    +0.000 HD
BRANCH  20  24
ATOM     24  O   UNL     1       8.821   9.083  19.275  0.00  0.00    +0.000 OA
ATOM     25  H   UNL     1       8.723   9.941  18.839  0.00  0.00    +0.000 HD
ENDBRANCH  20  24
ENDBRANCH  17  18
ENDBRANCH   2  17
TORSDOF 5
ENDMDL
MODEL 2
REMARK VINA RESULT:      -8.1      1.305      1.581
REMARK  Name = 
REMARK  5 active torsions:
REMARK  status: ('A' for Active; 'I' for Inactive)
REMARK    1  A    between atoms: C_2  and  C_3
REMARK    2  A    between atoms: C_3  and  C_4
REMARK    3  A    between atoms: C_6  and  O_7
REMARK    4  A    between atoms: N_10  and  N_11
REMARK    5  A    between atoms: C_12  and  C_13
REMARK                            x       y       z     vdW  Elec       q    Type
REMARK                         _______ _______ _______ _____ _____    ______ ____
ROOT
ATOM      1  O   UNL     1       6.367   4.008  14.255  0.00  0.00    +0.000 OA
ATOM      2  C   UNL     1       5.863   4.247  15.358  0.00  0.00    +0.000 C 
ATOM      3  N   UNL     1       5.468   3.205  16.160  0.00  0.00    +0.000 N 
ATOM      4  H   UNL     1       5.645   2.271  15.805  0.00  0.00    +0.000 HD
ENDROOT
BRANCH   3   5
ATOM      5  N   UNL     1       4.857   3.390  17.359  0.00  0.00    +0.000 NA
ATOM      6  C   UNL     1       3.558   3.410  17.316  0.00  0.00    +0.000 C 
BRANCH   6   7
ATOM      7  C   UNL     1       2.735   3.579  18.539  0.00  0.00    +0.000 A 
ATOM      8  C   UNL     1       2.214   2.420  19.133  0.00  0.00    +0.000 A 
ATOM      9  C   UNL     1       1.410   2.508  20.261  0.00  0.00    +0.000 A 
ATOM     10  C   UNL     1       1.119   3.757  20.802  0.00  0.00    +0.000 A 
ATOM     11  C   UNL     1       1.632   4.933  20.232  0.00  0.00    +0.000 A 
ATOM     12  C   UNL     1       1.316   6.175  20.806  0.00  0.00    +0.000 A 
ATOM     13  C   UNL     1       1.810   7.363  20.273  0.00  0.00    +0.000 A 
ATOM     14  C   UNL     1       2.629   7.324  19.155  0.00  0.00    +0.000 A 
ATOM     15  C   UNL     1       2.950   6.098  18.568  0.00  0.00    +0.000 A 
ATOM     16  C   UNL     1       2.462   4.868  19.082  0.00  0.00    +0.000 A 
ENDBRANCH   6   7
ENDBRANCH   3   5
BRANCH   2  17
ATOM     17  C   UNL     1       5.611   5.665  15.870  0.00  0.00    +0.000 C 
BRANCH  17  18
ATOM     18  C   UNL     1       6.582   6.075  16.934  0.00  0.00    +0.000 A 
ATOM     19  C   UNL     1       7.194   7.288  17.194  0.00  0.00    +0.000 A 
ATOM     20  C   UNL     1       7.965   7.040  18.334  0.00  0.00    +0.000 A 
ATOM     21  N   UNL     1       7.900   5.790  18.767  0.00  0.00    +0.000 NA
ATOM     22  N   UNL     1       7.050   5.214  17.900  0.00  0.00    +0.000 N 
ATOM     23  H   UNL     1       6.786   4.240  18.038  0.00  0.00    +0.000 HD
BRANCH  20  24
ATOM     24  O   UNL     1       8.729   7.880  19.036  0.00  0.00    +0.000 OA
ATOM     25  H   UNL     1       8.261   8.140  19.842  0.00  0.00    +0.000 HD
ENDBRANCH  20  24
ENDBRANCH  17  18
ENDBRANCH   2  17
TORSDOF 5
ENDMDL
MODEL 3
REMARK VINA RESULT:      -8.1      1.232      1.355
REMARK  Name = 
REMARK  5 active torsions:
REMARK  status: ('A' for Active; 'I' for Inactive)
REMARK    1  A    between atoms: C_2  and  C_3
REMARK    2  A    between atoms: C_3  and  C_4
REMARK    3  A    between atoms: C_6  and  O_7
REMARK    4  A    between atoms: N_10  and  N_11
REMARK    5  A    between atoms: C_12  and  C_13
REMARK                            x       y       z     vdW  Elec       q    Type
REMARK                         _______ _______ _______ _____ _____    ______ ____
ROOT
ATOM      1  O   UNL     1       6.929   5.301  14.264  0.00  0.00    +0.000 OA
ATOM      2  C   UNL     1       6.262   5.020  15.266  0.00  0.00    +0.000 C 
ATOM      3  N   UNL     1       5.879   3.719  15.480  0.00  0.00    +0.000 N 
ATOM      4  H   UNL     1       6.202   3.037  14.801  0.00  0.00    +0.000 HD
ENDROOT
BRANCH   3   5
ATOM      5  N   UNL     1       5.099   3.343  16.526  0.00  0.00    +0.000 NA
ATOM      6  C   UNL     1       3.958   3.960  16.609  0.00  0.00    +0.000 C 
BRANCH   6   7
ATOM      7  C   UNL     1       2.976   3.654  17.679  0.00  0.00    +0.000 A 
ATOM      8  C   UNL     1       2.461   2.350  17.730  0.00  0.00    +0.000 A 
ATOM      9  C   UNL     1       1.516   2.004  18.686  0.00  0.00    +0.000 A 
ATOM     10  C   UNL     1       1.077   2.961  19.596  0.00  0.00    +0.000 A 
ATOM     11  C   UNL     1       1.580   4.272  19.573  0.00  0.00    +0.000 A 
ATOM     12  C   UNL     1       1.113   5.209  20.508  0.00  0.00    +0.000 A 
ATOM     13  C   UNL     1       1.592   6.516  20.519  0.00  0.00    +0.000 A 
ATOM     14  C   UNL     1       2.548   6.905  19.593  0.00  0.00    +0.000 A 
ATOM     15  C   UNL     1       3.021   5.987  18.653  0.00  0.00    +0.000 A 
ATOM     16  C   UNL     1       2.552   4.647  18.609  0.00  0.00    +0.000 A 
ENDBRANCH   6   7
ENDBRANCH   3   5
BRANCH   2  17
ATOM     17  C   UNL     1       5.792   6.067  16.276  0.00  0.00    +0.000 C 
BRANCH  17  18
ATOM     18  C   UNL     1       6.661   6.124  17.494  0.00  0.00    +0.000 A 
ATOM     19  C   UNL     1       6.708   5.326  18.621  0.00  0.00    +0.000 A 
ATOM     20  C   UNL     1       7.748   5.873  19.380  0.00  0.00    +0.000 A 
ATOM     21  N   UNL     1       8.310   6.939  18.832  0.00  0.00    +0.000 NA
ATOM     22  N   UNL     1       7.635   7.078  17.680  0.00  0.00    +0.000 N 
ATOM     23  H   UNL     1       7.907   7.816  17.032  0.00  0.00    +0.000 HD
BRANCH  20  24
ATOM     24  O   UNL     1       8.246   5.463  20.549  0.00  0.00    +0.000 OA
ATOM     25  H   UNL     1       9.197   5.638  20.570  0.00  0.00    +0.000 HD
ENDBRANCH  20  24
ENDBRANCH  17  18
ENDBRANCH   2  17
TORSDOF 5
ENDMDL
MODEL 4
REMARK VINA RESULT:      -8.0      1.564      2.446
REMARK  Name = 
REMARK  5 active torsions:
REMARK  status: ('A' for Active; 'I' for Inactive)
REMARK    1  A    between atoms: C_2  and  C_3
REMARK    2  A    between atoms: C_3  and  C_4
REMARK    3  A    between atoms: C_6  and  O_7
REMARK    4  A    between atoms: N_10  and  N_11
REMARK    5  A    between atoms: C_12  and  C_13
REMARK                            x       y       z     vdW  Elec       q    Type
REMARK                         _______ _______ _______ _____ _____    ______ ____
ROOT
ATOM      1  O   UNL     1       6.755   4.285  14.596  0.00  0.00    +0.000 OA
ATOM      2  C   UNL     1       6.228   4.368  15.711  0.00  0.00    +0.000 C 
ATOM      3  N   UNL     1       4.863   4.489  15.805  0.00  0.00    +0.000 N 
ATOM      4  H   UNL     1       4.348   4.472  14.931  0.00  0.00    +0.000 HD
ENDROOT
BRANCH   3   5
ATOM      5  N   UNL     1       4.218   4.640  16.991  0.00  0.00    +0.000 NA
ATOM      6  C   UNL     1       3.827   5.852  17.253  0.00  0.00    +0.000 C 
BRANCH   6   7
ATOM      7  C   UNL     1       3.088   6.188  18.494  0.00  0.00    +0.000 A 
ATOM      8  C   UNL     1       3.003   5.197  19.485  0.00  0.00    +0.000 A 
ATOM      9  C   UNL     1       2.300   5.433  20.657  0.00  0.00    +0.000 A 
ATOM     10  C   UNL     1       1.674   6.661  20.849  0.00  0.00    +0.000 A 
ATOM     11  C   UNL     1       1.747   7.673  19.878  0.00  0.00    +0.000 A 
ATOM     12  C   UNL     1       1.103   8.899  20.107  0.00  0.00    +0.000 A 
ATOM     13  C   UNL     1       1.158   9.929  19.171  0.00  0.00    +0.000 A 
ATOM     14  C   UNL     1       1.861   9.745  17.990  0.00  0.00    +0.000 A 
ATOM     15  C   UNL     1       2.505   8.530  17.744  0.00  0.00    +0.000 A 
ATOM     16  C   UNL     1       2.467   7.457  18.673  0.00  0.00    +0.000 A 
ENDBRANCH   6   7
ENDBRANCH   3   5
BRANCH   2  17
ATOM     17  C   UNL     1       7.028   4.387  17.013  0.00  0.00    +0.000 C 
BRANCH  17  18
ATOM     18  C   UNL     1       7.455   5.767  17.408  0.00  0.00    +0.000 A 
ATOM     19  C   UNL     1       7.944   6.266  18.601  0.00  0.00    +0.000 A 
ATOM     20  C   UNL     1       8.184   7.617  18.328  0.00  0.00    +0.000 A 
ATOM     21  N   UNL     1       7.861   7.984  17.098  0.00  0.00    +0.000 NA
ATOM     22  N   UNL     1       7.417   6.841  16.549  0.00  0.00    +0.000 N 
ATOM     23  H   UNL     1       7.141   6.838  15.568  0.00  0.00    +0.000 HD
BRANCH  20  24
ATOM     24  O   UNL     1       8.698   8.559  19.122  0.00  0.00    +0.000 OA
ATOM     25  H   UNL     1       9.295   8.147  19.763  0.00  0.00    +0.000 HD
ENDBRANCH  20  24
ENDBRANCH  17  18
ENDBRANCH   2  17
TORSDOF 5
ENDMDL
MODEL 5
REMARK VINA RESULT:      -8.0      3.188      5.060
REMARK  Name = 
REMARK  5 active torsions:
REMARK  status: ('A' for Active; 'I' for Inactive)
REMARK    1  A    between atoms: C_2  and  C_3
REMARK    2  A    between atoms: C_3  and  C_4
REMARK    3  A    between atoms: C_6  and  O_7
REMARK    4  A    between atoms: N_10  and  N_11
REMARK    5  A    between atoms: C_12  and  C_13
REMARK                            x       y       z     vdW  Elec       q    Type
REMARK                         _______ _______ _______ _____ _____    ______ ____
ROOT
ATOM      1  O   UNL     1       4.419   2.980  19.611  0.00  0.00    +0.000 OA
ATOM      2  C   UNL     1       4.234   4.169  19.329  0.00  0.00    +0.000 C 
ATOM      3  N   UNL     1       2.968   4.601  19.018  0.00  0.00    +0.000 N 
ATOM      4  H   UNL     1       2.230   3.907  19.070  0.00  0.00    +0.000 HD
ENDROOT
BRANCH   3   5
ATOM      5  N   UNL     1       2.697   5.878  18.644  0.00  0.00    +0.000 NA
ATOM      6  C   UNL     1       2.143   6.613  19.563  0.00  0.00    +0.000 C 
BRANCH   6   7
ATOM      7  C   UNL     1       1.803   8.038  19.329  0.00  0.00    +0.000 A 
ATOM      8  C   UNL     1       2.197   8.605  18.107  0.00  0.00    +0.000 A 
ATOM      9  C   UNL     1       1.937   9.941  17.835  0.00  0.00    +0.000 A 
ATOM     10  C   UNL     1       1.285  10.722  18.785  0.00  0.00    +0.000 A 
ATOM     11  C   UNL     1       0.874  10.180  20.013  0.00  0.00    +0.000 A 
ATOM     12  C   UNL     1       0.218  10.998  20.946  0.00  0.00    +0.000 A 
ATOM     13  C   UNL     1      -0.209  10.496  22.172  0.00  0.00    +0.000 A 
ATOM     14  C   UNL     1       0.014   9.163  22.483  0.00  0.00    +0.000 A 
ATOM     15  C   UNL     1       0.669   8.335  21.568  0.00  0.00    +0.000 A 
ATOM     16  C   UNL     1       1.122   8.814  20.310  0.00  0.00    +0.000 A 
ENDBRANCH   6   7
ENDBRANCH   3   5
BRANCH   2  17
ATOM     17  C   UNL     1       5.364   5.196  19.261  0.00  0.00    +0.000 C 
BRANCH  17  18
ATOM     18  C   UNL     1       6.188   5.067  18.018  0.00  0.00    +0.000 A 
ATOM     19  C   UNL     1       6.051   5.638  16.767  0.00  0.00    +0.000 A 
ATOM     20  C   UNL     1       7.148   5.151  16.049  0.00  0.00    +0.000 A 
ATOM     21  N   UNL     1       7.915   4.320  16.738  0.00  0.00    +0.000 NA
ATOM     22  N   UNL     1       7.315   4.280  17.939  0.00  0.00    +0.000 N 
ATOM     23  H   UNL     1       7.739   3.734  18.687  0.00  0.00    +0.000 HD
BRANCH  20  24
ATOM     24  O   UNL     1       7.523   5.417  14.796  0.00  0.00    +0.000 OA
ATOM     25  H   UNL     1       6.777   5.263  14.200  0.00  0.00    +0.000 HD
ENDBRANCH  20  24
ENDBRANCH  17  18
ENDBRANCH   2  17
TORSDOF 5
ENDMDL
MODEL 6
REMARK VINA RESULT:      -8.0      1.734      4.170
REMARK  Name = 
REMARK  5 active torsions:
REMARK  status: ('A' for Active; 'I' for Inactive)
REMARK    1  A    between atoms: C_2  and  C_3
REMARK    2  A    between atoms: C_3  and  C_4
REMARK    3  A    between atoms: C_6  and  O_7
REMARK    4  A    between atoms: N_10  and  N_11
REMARK    5  A    between atoms: C_12  and  C_13
REMARK                            x       y       z     vdW  Elec       q    Type
REMARK                         _______ _______ _______ _____ _____    ______ ____
ROOT
ATOM      1  O   UNL     1       7.817   7.665  16.951  0.00  0.00    +0.000 OA
ATOM      2  C   UNL     1       6.886   6.867  17.106  0.00  0.00    +0.000 C 
ATOM      3  N   UNL     1       5.640   7.338  17.436  0.00  0.00    +0.000 N 
ATOM      4  H   UNL     1       5.543   8.346  17.504  0.00  0.00    +0.000 HD
ENDROOT
BRANCH   3   5
ATOM      5  N   UNL     1       4.583   6.520  17.676  0.00  0.00    +0.000 NA
ATOM      6  C   UNL     1       4.275   6.374  18.931  0.00  0.00    +0.000 C 
BRANCH   6   7
ATOM      7  C   UNL     1       3.134   5.534  19.367  0.00  0.00    +0.000 A 
ATOM      8  C   UNL     1       2.170   6.129  20.195  0.00  0.00    +0.000 A 
ATOM      9  C   UNL     1       1.093   5.392  20.664  0.00  0.00    +0.000 A 
ATOM     10  C   UNL     1       0.971   4.051  20.312  0.00  0.00    +0.000 A 
ATOM     11  C   UNL     1       1.917   3.430  19.479  0.00  0.00    +0.000 A 
ATOM     12  C   UNL     1       1.760   2.076  19.145  0.00  0.00    +0.000 A 
ATOM     13  C   UNL     1       2.674   1.427  18.318  0.00  0.00    +0.000 A 
ATOM     14  C   UNL     1       3.759   2.127  17.812  0.00  0.00    +0.000 A 
ATOM     15  C   UNL     1       3.932   3.474  18.138  0.00  0.00    +0.000 A 
ATOM     16  C   UNL     1       3.024   4.166  18.981  0.00  0.00    +0.000 A 
ENDBRANCH   6   7
ENDBRANCH   3   5
BRANCH   2  17
ATOM     17  C   UNL     1       7.059   5.352  16.992  0.00  0.00    +0.000 C 
BRANCH  17  18
ATOM     18  C   UNL     1       6.915   4.859  15.586  0.00  0.00    +0.000 A 
ATOM     19  C   UNL     1       6.169   3.825  15.051  0.00  0.00    +0.000 A 
ATOM     20  C   UNL     1       6.435   3.890  13.680  0.00  0.00    +0.000 A 
ATOM     21  N   UNL     1       7.290   4.843  13.341  0.00  0.00    +0.000 NA
ATOM     22  N   UNL     1       7.572   5.427  14.518  0.00  0.00    +0.000 N 
ATOM     23  H   UNL     1       8.188   6.238  14.533  0.00  0.00    +0.000 HD
BRANCH  20  24
ATOM     24  O   UNL     1       5.942   3.144  12.688  0.00  0.00    +0.000 OA
ATOM     25  H   UNL     1       4.977   3.121  12.756  0.00  0.00    +0.000 HD
ENDBRANCH  20  24
ENDBRANCH  17  18
ENDBRANCH   2  17
TORSDOF 5
ENDMDL
MODEL 7
REMARK VINA RESULT:      -8.0      3.597      5.656
REMARK  Name = 
REMARK  5 active torsions:
REMARK  status: ('A' for Active; 'I' for Inactive)
REMARK    1  A    between atoms: C_2  and  C_3
REMARK    2  A    between atoms: C_3  and  C_4
REMARK    3  A    between atoms: C_6  and  O_7
REMARK    4  A    between atoms: N_10  and  N_11
REMARK    5  A    between atoms: C_12  and  C_13
REMARK                            x       y       z     vdW  Elec       q    Type
REMARK                         _______ _______ _______ _____ _____    ______ ____
ROOT
ATOM      1  O   UNL     1       4.187   3.547  19.667  0.00  0.00    +0.000 OA
ATOM      2  C   UNL     1       3.728   4.580  19.167  0.00  0.00    +0.000 C 
ATOM      3  N   UNL     1       3.226   5.561  19.985  0.00  0.00    +0.000 N 
ATOM      4  H   UNL     1       3.291   5.392  20.984  0.00  0.00    +0.000 HD
ENDROOT
BRANCH   3   5
ATOM      5  N   UNL     1       2.656   6.697  19.507  0.00  0.00    +0.000 NA
ATOM      6  C   UNL     1       1.980   7.382  20.382  0.00  0.00    +0.000 C 
BRANCH   6   7
ATOM      7  C   UNL     1       1.313   8.660  20.032  0.00  0.00    +0.000 A 
ATOM      8  C   UNL     1       1.467   9.132  18.719  0.00  0.00    +0.000 A 
ATOM      9  C   UNL     1       0.895  10.337  18.333  0.00  0.00    +0.000 A 
ATOM     10  C   UNL     1       0.168  11.081  19.258  0.00  0.00    +0.000 A 
ATOM     11  C   UNL     1      -0.007  10.630  20.576  0.00  0.00    +0.000 A 
ATOM     12  C   UNL     1      -0.748  11.407  21.481  0.00  0.00    +0.000 A 
ATOM     13  C   UNL     1      -0.948  10.992  22.795  0.00  0.00    +0.000 A 
ATOM     14  C   UNL     1      -0.409   9.788  23.223  0.00  0.00    +0.000 A 
ATOM     15  C   UNL     1       0.334   9.003  22.337  0.00  0.00    +0.000 A 
ATOM     16  C   UNL     1       0.562   9.398  20.992  0.00  0.00    +0.000 A 
ENDBRANCH   6   7
ENDBRANCH   3   5
BRANCH   2  17
ATOM     17  C   UNL     1       3.646   4.811  17.658  0.00  0.00    +0.000 C 
BRANCH  17  18
ATOM     18  C   UNL     1       4.994   4.848  17.006  0.00  0.00    +0.000 A 
ATOM     19  C   UNL     1       5.432   5.462  15.848  0.00  0.00    +0.000 A 
ATOM     20  C   UNL     1       6.795   5.150  15.795  0.00  0.00    +0.000 A 
ATOM     21  N   UNL     1       7.211   4.385  16.791  0.00  0.00    +0.000 NA
ATOM     22  N   UNL     1       6.099   4.210  17.524  0.00  0.00    +0.000 N 
ATOM     23  H   UNL     1       6.155   3.682  18.393  0.00  0.00    +0.000 HD
BRANCH  20  24
ATOM     24  O   UNL     1       7.712   5.525  14.900  0.00  0.00    +0.000 OA
ATOM     25  H   UNL     1       7.303   5.574  14.025  0.00  0.00    +0.000 HD
ENDBRANCH  20  24
ENDBRANCH  17  18
ENDBRANCH   2  17
TORSDOF 5
ENDMDL
MODEL 8
REMARK VINA RESULT:      -8.0      4.015      5.996
REMARK  Name = 
REMARK  5 active torsions:
REMARK  status: ('A' for Active; 'I' for Inactive)
REMARK    1  A    between atoms: C_2  and  C_3
REMARK    2  A    between atoms: C_3  and  C_4
REMARK    3  A    between atoms: C_6  and  O_7
REMARK    4  A    between atoms: N_10  and  N_11
REMARK    5  A    between atoms: C_12  and  C_13
REMARK                            x       y       z     vdW  Elec       q    Type
REMARK                         _______ _______ _______ _____ _____    ______ ____
ROOT
ATOM      1  O   UNL     1       3.221   3.230  20.500  0.00  0.00    +0.000 OA
ATOM      2  C   UNL     1       3.042   4.315  19.934  0.00  0.00    +0.000 C 
ATOM      3  N   UNL     1       2.504   5.363  20.638  0.00  0.00    +0.000 N 
ATOM      4  H   UNL     1       2.307   5.193  21.619  0.00  0.00    +0.000 HD
ENDROOT
BRANCH   3   5
ATOM      5  N   UNL     1       2.227   6.566  20.071  0.00  0.00    +0.000 NA
ATOM      6  C   UNL     1       1.486   7.355  20.791  0.00  0.00    +0.000 C 
BRANCH   6   7
ATOM      7  C   UNL     1       1.109   8.714  20.331  0.00  0.00    +0.000 A 
ATOM      8  C   UNL     1       1.527   9.102  19.049  0.00  0.00    +0.000 A 
ATOM      9  C   UNL     1       1.236  10.371  18.568  0.00  0.00    +0.000 A 
ATOM     10  C   UNL     1       0.526  11.263  19.366  0.00  0.00    +0.000 A 
ATOM     11  C   UNL     1       0.088  10.899  20.650  0.00  0.00    +0.000 A 
ATOM     12  C   UNL     1      -0.626  11.825  21.426  0.00  0.00    +0.000 A 
ATOM     13  C   UNL     1      -1.080  11.500  22.702  0.00  0.00    +0.000 A 
ATOM     14  C   UNL     1      -0.826  10.239  23.219  0.00  0.00    +0.000 A 
ATOM     15  C   UNL     1      -0.113   9.306  22.463  0.00  0.00    +0.000 A 
ATOM     16  C   UNL     1       0.369   9.604  21.161  0.00  0.00    +0.000 A 
ENDBRANCH   6   7
ENDBRANCH   3   5
BRANCH   2  17
ATOM     17  C   UNL     1       3.352   4.545  18.455  0.00  0.00    +0.000 C 
BRANCH  17  18
ATOM     18  C   UNL     1       4.819   4.512  18.160  0.00  0.00    +0.000 A 
ATOM     19  C   UNL     1       5.511   4.484  16.964  0.00  0.00    +0.000 A 
ATOM     20  C   UNL     1       6.855   4.490  17.349  0.00  0.00    +0.000 A 
ATOM     21  N   UNL     1       7.039   4.489  18.660  0.00  0.00    +0.000 NA
ATOM     22  N   UNL     1       5.785   4.504  19.141  0.00  0.00    +0.000 N 
ATOM     23  H   UNL     1       5.640   4.551  20.149  0.00  0.00    +0.000 HD
BRANCH  20  24
ATOM     24  O   UNL     1       7.952   4.511  16.588  0.00  0.00    +0.000 OA
ATOM     25  H   UNL     1       8.514   3.757  16.818  0.00  0.00    +0.000 HD
ENDBRANCH  20  24
ENDBRANCH  17  18
ENDBRANCH   2  17
TORSDOF 5
ENDMDL
MODEL 9
REMARK VINA RESULT:      -7.9      0.774      2.354
REMARK  Name = 
REMARK  5 active torsions:
REMARK  status: ('A' for Active; 'I' for Inactive)
REMARK    1  A    between atoms: C_2  and  C_3
REMARK    2  A    between atoms: C_3  and  C_4
REMARK    3  A    between atoms: C_6  and  O_7
REMARK    4  A    between atoms: N_10  and  N_11
REMARK    5  A    between atoms: C_12  and  C_13
REMARK                            x       y       z     vdW  Elec       q    Type
REMARK                         _______ _______ _______ _____ _____    ______ ____
ROOT
ATOM      1  O   UNL     1       7.424   4.696  14.879  0.00  0.00    +0.000 OA
ATOM      2  C   UNL     1       6.724   4.624  15.894  0.00  0.00    +0.000 C 
ATOM      3  N   UNL     1       5.369   4.442  15.770  0.00  0.00    +0.000 N 
ATOM      4  H   UNL     1       5.013   4.341  14.824  0.00  0.00    +0.000 HD
ENDROOT
BRANCH   3   5
ATOM      5  N   UNL     1       4.530   4.408  16.836  0.00  0.00    +0.000 NA
ATOM      6  C   UNL     1       4.126   5.572  17.254  0.00  0.00    +0.000 C 
BRANCH   6   7
ATOM      7  C   UNL     1       3.188   5.714  18.394  0.00  0.00    +0.000 A 
ATOM      8  C   UNL     1       2.917   7.013  18.851  0.00  0.00    +0.000 A 
ATOM      9  C   UNL     1       2.073   7.217  19.933  0.00  0.00    +0.000 A 
ATOM     10  C   UNL     1       1.495   6.123  20.570  0.00  0.00    +0.000 A 
ATOM     11  C   UNL     1       1.743   4.812  20.131  0.00  0.00    +0.000 A 
ATOM     12  C   UNL     1       1.141   3.734  20.798  0.00  0.00    +0.000 A 
ATOM     13  C   UNL     1       1.359   2.420  20.390  0.00  0.00    +0.000 A 
ATOM     14  C   UNL     1       2.183   2.168  19.304  0.00  0.00    +0.000 A 
ATOM     15  C   UNL     1       2.793   3.229  18.630  0.00  0.00    +0.000 A 
ATOM     16  C   UNL     1       2.598   4.580  19.022  0.00  0.00    +0.000 A 
ENDBRANCH   6   7
ENDBRANCH   3   5
BRANCH   2  17
ATOM     17  C   UNL     1       7.287   4.773  17.308  0.00  0.00    +0.000 C 
BRANCH  17  18
ATOM     18  C   UNL     1       7.629   6.191  17.646  0.00  0.00    +0.000 A 
ATOM     19  C   UNL     1       8.220   6.747  18.765  0.00  0.00    +0.000 A 
ATOM     20  C   UNL     1       8.293   8.111  18.466  0.00  0.00    +0.000 A 
ATOM     21  N   UNL     1       7.777   8.434  17.291  0.00  0.00    +0.000 NA
ATOM     22  N   UNL     1       7.377   7.249  16.801  0.00  0.00    +0.000 N 
ATOM     23  H   UNL     1       6.975   7.209  15.866  0.00  0.00    +0.000 HD
BRANCH  20  24
ATOM     24  O   UNL     1       8.815   9.107  19.188  0.00  0.00    +0.000 OA
ATOM     25  H   UNL     1       9.778   9.099  19.093  0.00  0.00    +0.000 HD
ENDBRANCH  20  24
ENDBRANCH  17  18
ENDBRANCH   2  17
TORSDOF 5
ENDMDL
