MODEL 1
REMARK VINA RESULT:      -6.9      0.000      0.000
REMARK  Name = 
REMARK  5 active torsions:
REMARK  status: ('A' for Active; 'I' for Inactive)
REMARK    1  A    between atoms: N_6  and  C_7
REMARK    2  A    between atoms: C_7  and  C_8
REMARK    3  A    between atoms: N_10  and  C_11
REMARK    4  A    between atoms: C_11  and  C_12
REMARK    5  A    between atoms: C_12  and  C_13
REMARK                            x       y       z     vdW  Elec       q    Type
REMARK                         _______ _______ _______ _____ _____    ______ ____
ROOT
ATOM      1  C   UNL     1       7.910   7.181  18.194  0.00  0.00    +0.000 C 
ATOM      2  O   UNL     1       7.357   7.573  17.175  0.00  0.00    +0.000 OA
ATOM      3  N   UNL     1       8.642   8.055  18.946  0.00  0.00    +0.000 N 
ATOM      4  H   UNL     1       9.104   7.731  19.810  0.00  0.00    +0.000 HD
ENDROOT
BRANCH   1   5
ATOM      5  C   UNL     1       7.715   5.731  18.583  0.00  0.00    +0.000 C 
BRANCH   5  11
ATOM      6  N   UNL     1       4.851   5.449  19.114  0.00  0.00    +0.000 NA
ATOM      7  C   UNL     1       5.385   4.963  18.053  0.00  0.00    +0.000 A 
ATOM      8  S   UNL     1       4.530   4.175  16.839  0.00  0.00    +0.000 S 
ATOM      9  C   UNL     1       5.901   3.949  15.888  0.00  0.00    +0.000 A 
ATOM     10  C   UNL     1       6.993   4.500  16.549  0.00  0.00    +0.000 A 
ATOM     11  N   UNL     1       6.706   5.059  17.761  0.00  0.00    +0.000 N 
ATOM     12  H   UNL     1       3.836   5.369  19.280  0.00  0.00    +0.000 HD
ENDBRANCH   5  11
ENDBRANCH   1   5
BRANCH   3  13
ATOM     13  C   UNL     1       8.715   9.455  18.547  0.00  0.00    +0.000 C 
BRANCH  13  14
ATOM     14  C   UNL     1       9.387  10.375  19.586  0.00  0.00    +0.000 C 
BRANCH  14  15
ATOM     15  C   UNL     1       9.809  11.684  18.923  0.00  0.00    +0.000 A 
ATOM     16  C   UNL     1      10.558  11.628  17.730  0.00  0.00    +0.000 A 
ATOM     17  C   UNL     1      10.994  12.794  17.096  0.00  0.00    +0.000 A 
ATOM     18  C   UNL     1      10.681  14.042  17.635  0.00  0.00    +0.000 A 
ATOM     19 CL   UNL     1      11.237  15.503  16.838  0.00  0.00    +0.000 Cl
ATOM     20  C   UNL     1       9.926  14.123  18.807  0.00  0.00    +0.000 A 
ATOM     21  C   UNL     1       9.486  12.957  19.456  0.00  0.00    +0.000 A 
ATOM     22 CL   UNL     1       8.546  13.152  20.932  0.00  0.00    +0.000 Cl
ENDBRANCH  14  15
ENDBRANCH  13  14
ENDBRANCH   3  13
TORSDOF 5
ENDMDL
MODEL 2
REMARK VINA RESULT:      -6.9      0.926      1.437
REMARK  Name = 
REMARK  5 active torsions:
REMARK  status: ('A' for Active; 'I' for Inactive)
REMARK    1  A    between atoms: N_6  and  C_7
REMARK    2  A    between atoms: C_7  and  C_8
REMARK    3  A    between atoms: N_10  and  C_11
REMARK    4  A    between atoms: C_11  and  C_12
REMARK    5  A    between atoms: C_12  and  C_13
REMARK                            x       y       z     vdW  Elec       q    Type
REMARK                         _______ _______ _______ _____ _____    ______ ____
ROOT
ATOM      1  C   UNL     1       8.079   7.753  18.112  0.00  0.00    +0.000 C 
ATOM      2  O   UNL     1       7.797   8.078  16.966  0.00  0.00    +0.000 OA
ATOM      3  N   UNL     1       8.673   8.658  18.945  0.00  0.00    +0.000 N 
ATOM      4  H   UNL     1       8.905   8.391  19.915  0.00  0.00    +0.000 HD
ENDROOT
BRANCH   1   5
ATOM      5  C   UNL     1       7.713   6.352  18.552  0.00  0.00    +0.000 C 
BRANCH   5  11
ATOM      6  N   UNL     1       7.850   4.109  16.678  0.00  0.00    +0.000 NA
ATOM      7  C   UNL     1       6.748   4.728  16.899  0.00  0.00    +0.000 A 
ATOM      8  S   UNL     1       5.274   4.311  16.209  0.00  0.00    +0.000 S 
ATOM      9  C   UNL     1       4.437   5.516  17.036  0.00  0.00    +0.000 A 
ATOM     10  C   UNL     1       5.339   6.211  17.834  0.00  0.00    +0.000 A 
ATOM     11  N   UNL     1       6.630   5.776  17.752  0.00  0.00    +0.000 N 
ATOM     12  H   UNL     1       7.884   3.301  16.037  0.00  0.00    +0.000 HD
ENDBRANCH   5  11
ENDBRANCH   1   5
BRANCH   3  13
ATOM     13  C   UNL     1       8.919  10.014  18.470  0.00  0.00    +0.000 C 
BRANCH  13  14
ATOM     14  C   UNL     1      10.099  10.723  19.165  0.00  0.00    +0.000 C 
BRANCH  14  15
ATOM     15  C   UNL     1      10.302  12.108  18.556  0.00  0.00    +0.000 A 
ATOM     16  C   UNL     1      11.154  12.239  17.440  0.00  0.00    +0.000 A 
ATOM     17  C   UNL     1      11.396  13.487  16.861  0.00  0.00    +0.000 A 
ATOM     18  C   UNL     1      10.786  14.629  17.378  0.00  0.00    +0.000 A 
ATOM     19 CL   UNL     1      11.101  16.194  16.649  0.00  0.00    +0.000 Cl
ATOM     20  C   UNL     1       9.925  14.522  18.473  0.00  0.00    +0.000 A 
ATOM     21  C   UNL     1       9.677  13.274  19.066  0.00  0.00    +0.000 A 
ATOM     22 CL   UNL     1       8.585  13.232  20.447  0.00  0.00    +0.000 Cl
ENDBRANCH  14  15
ENDBRANCH  13  14
ENDBRANCH   3  13
TORSDOF 5
ENDMDL
MODEL 3
REMARK VINA RESULT:      -6.9      1.310      1.871
REMARK  Name = 
REMARK  5 active torsions:
REMARK  status: ('A' for Active; 'I' for Inactive)
REMARK    1  A    between atoms: N_6  and  C_7
REMARK    2  A    between atoms: C_7  and  C_8
REMARK    3  A    between atoms: N_10  and  C_11
REMARK    4  A    between atoms: C_11  and  C_12
REMARK    5  A    between atoms: C_12  and  C_13
REMARK                            x       y       z     vdW  Elec       q    Type
REMARK                         _______ _______ _______ _____ _____    ______ ____
ROOT
ATOM      1  C   UNL     1       7.910   7.450  18.158  0.00  0.00    +0.000 C 
ATOM      2  O   UNL     1       7.375   7.839  17.128  0.00  0.00    +0.000 OA
ATOM      3  N   UNL     1       8.679   8.311  18.889  0.00  0.00    +0.000 N 
ATOM      4  H   UNL     1       9.126   7.990  19.762  0.00  0.00    +0.000 HD
ENDROOT
BRANCH   1   5
ATOM      5  C   UNL     1       7.652   6.021  18.584  0.00  0.00    +0.000 C 
BRANCH   5  11
ATOM      6  N   UNL     1       7.707   4.556  16.052  0.00  0.00    +0.000 NA
ATOM      7  C   UNL     1       6.611   4.739  16.694  0.00  0.00    +0.000 A 
ATOM      8  S   UNL     1       5.119   4.133  16.212  0.00  0.00    +0.000 S 
ATOM      9  C   UNL     1       4.324   4.752  17.563  0.00  0.00    +0.000 A 
ATOM     10  C   UNL     1       5.254   5.415  18.355  0.00  0.00    +0.000 A 
ATOM     11  N   UNL     1       6.529   5.415  17.868  0.00  0.00    +0.000 N 
ATOM     12  H   UNL     1       7.722   4.014  15.174  0.00  0.00    +0.000 HD
ENDBRANCH   5  11
ENDBRANCH   1   5
BRANCH   3  13
ATOM     13  C   UNL     1       8.813   9.696  18.453  0.00  0.00    +0.000 C 
BRANCH  13  14
ATOM     14  C   UNL     1       9.278  10.665  19.559  0.00  0.00    +0.000 C 
BRANCH  14  15
ATOM     15  C   UNL     1       9.712  11.990  18.937  0.00  0.00    +0.000 A 
ATOM     16  C   UNL     1       8.753  12.761  18.248  0.00  0.00    +0.000 A 
ATOM     17  C   UNL     1       9.103  13.968  17.637  0.00  0.00    +0.000 A 
ATOM     18  C   UNL     1      10.414  14.435  17.710  0.00  0.00    +0.000 A 
ATOM     19 CL   UNL     1      10.847  15.948  16.934  0.00  0.00    +0.000 Cl
ATOM     20  C   UNL     1      11.378  13.697  18.400  0.00  0.00    +0.000 A 
ATOM     21  C   UNL     1      11.040  12.480  19.015  0.00  0.00    +0.000 A 
ATOM     22 CL   UNL     1      12.319  11.611  19.858  0.00  0.00    +0.000 Cl
ENDBRANCH  14  15
ENDBRANCH  13  14
ENDBRANCH   3  13
TORSDOF 5
ENDMDL
MODEL 4
REMARK VINA RESULT:      -6.9      6.683      8.703
REMARK  Name = 
REMARK  5 active torsions:
REMARK  status: ('A' for Active; 'I' for Inactive)
REMARK    1  A    between atoms: N_6  and  C_7
REMARK    2  A    between atoms: C_7  and  C_8
REMARK    3  A    between atoms: N_10  and  C_11
REMARK    4  A    between atoms: C_11  and  C_12
REMARK    5  A    between atoms: C_12  and  C_13
REMARK                            x       y       z     vdW  Elec       q    Type
REMARK                         _______ _______ _______ _____ _____    ______ ____
ROOT
ATOM      1  C   UNL     1       4.923   3.374  19.036  0.00  0.00    +0.000 C 
ATOM      2  O   UNL     1       4.840   2.903  20.163  0.00  0.00    +0.000 OA
ATOM      3  N   UNL     1       4.165   2.853  18.026  0.00  0.00    +0.000 N 
ATOM      4  H   UNL     1       4.226   3.251  17.076  0.00  0.00    +0.000 HD
ENDROOT
BRANCH   1   5
ATOM      5  C   UNL     1       5.855   4.551  18.837  0.00  0.00    +0.000 C 
BRANCH   5  11
ATOM      6  N   UNL     1       8.199   4.007  17.173  0.00  0.00    +0.000 NA
ATOM      7  C   UNL     1       7.163   4.595  16.695  0.00  0.00    +0.000 A 
ATOM      8  S   UNL     1       6.997   5.065  15.090  0.00  0.00    +0.000 S 
ATOM      9  C   UNL     1       5.435   5.650  15.323  0.00  0.00    +0.000 A 
ATOM     10  C   UNL     1       5.087   5.458  16.655  0.00  0.00    +0.000 A 
ATOM     11  N   UNL     1       6.054   4.876  17.423  0.00  0.00    +0.000 N 
ATOM     12  H   UNL     1       9.011   3.794  16.572  0.00  0.00    +0.000 HD
ENDBRANCH   5  11
ENDBRANCH   1   5
BRANCH   3  13
ATOM     13  C   UNL     1       3.232   1.771  18.317  0.00  0.00    +0.000 C 
BRANCH  13  14
ATOM     14  C   UNL     1       1.769   2.227  18.489  0.00  0.00    +0.000 C 
BRANCH  14  15
ATOM     15  C   UNL     1       1.732   3.656  19.027  0.00  0.00    +0.000 A 
ATOM     16  C   UNL     1       1.851   4.726  18.116  0.00  0.00    +0.000 A 
ATOM     17  C   UNL     1       1.851   6.051  18.557  0.00  0.00    +0.000 A 
ATOM     18  C   UNL     1       1.722   6.337  19.915  0.00  0.00    +0.000 A 
ATOM     19 CL   UNL     1       1.729   8.004  20.463  0.00  0.00    +0.000 Cl
ATOM     20  C   UNL     1       1.586   5.295  20.836  0.00  0.00    +0.000 A 
ATOM     21  C   UNL     1       1.589   3.958  20.405  0.00  0.00    +0.000 A 
ATOM     22 CL   UNL     1       1.421   2.706  21.633  0.00  0.00    +0.000 Cl
ENDBRANCH  14  15
ENDBRANCH  13  14
ENDBRANCH   3  13
TORSDOF 5
ENDMDL
MODEL 5
REMARK VINA RESULT:      -6.8      0.832      1.460
REMARK  Name = 
REMARK  5 active torsions:
REMARK  status: ('A' for Active; 'I' for Inactive)
REMARK    1  A    between atoms: N_6  and  C_7
REMARK    2  A    between atoms: C_7  and  C_8
REMARK    3  A    between atoms: N_10  and  C_11
REMARK    4  A    between atoms: C_11  and  C_12
REMARK    5  A    between atoms: C_12  and  C_13
REMARK                            x       y       z     vdW  Elec       q    Type
REMARK                         _______ _______ _______ _____ _____    ______ ____
ROOT
ATOM      1  C   UNL     1       7.830   7.207  17.867  0.00  0.00    +0.000 C 
ATOM      2  O   UNL     1       7.490   7.652  16.779  0.00  0.00    +0.000 OA
ATOM      3  N   UNL     1       8.423   8.031  18.780  0.00  0.00    +0.000 N 
ATOM      4  H   UNL     1       8.705   7.662  19.702  0.00  0.00    +0.000 HD
ENDROOT
BRANCH   1   5
ATOM      5  C   UNL     1       7.535   5.749  18.150  0.00  0.00    +0.000 C 
BRANCH   5  11
ATOM      6  N   UNL     1       5.750   5.124  15.918  0.00  0.00    +0.000 NA
ATOM      7  C   UNL     1       5.318   5.173  17.125  0.00  0.00    +0.000 A 
ATOM      8  S   UNL     1       3.733   4.841  17.578  0.00  0.00    +0.000 S 
ATOM      9  C   UNL     1       4.052   5.070  19.215  0.00  0.00    +0.000 A 
ATOM     10  C   UNL     1       5.395   5.399  19.361  0.00  0.00    +0.000 A 
ATOM     11  N   UNL     1       6.100   5.464  18.194  0.00  0.00    +0.000 N 
ATOM     12  H   UNL     1       5.119   4.875  15.139  0.00  0.00    +0.000 HD
ENDBRANCH   5  11
ENDBRANCH   1   5
BRANCH   3  13
ATOM     13  C   UNL     1       8.598   9.443  18.462  0.00  0.00    +0.000 C 
BRANCH  13  14
ATOM     14  C   UNL     1       9.395  10.235  19.518  0.00  0.00    +0.000 C 
BRANCH  14  15
ATOM     15  C   UNL     1       9.770  11.607  18.962  0.00  0.00    +0.000 A 
ATOM     16  C   UNL     1      10.444  11.675  17.724  0.00  0.00    +0.000 A 
ATOM     17  C   UNL     1      10.835  12.901  17.183  0.00  0.00    +0.000 A 
ATOM     18  C   UNL     1      10.554  14.087  17.860  0.00  0.00    +0.000 A 
ATOM     19 CL   UNL     1      11.055  15.624  17.177  0.00  0.00    +0.000 Cl
ATOM     20  C   UNL     1       9.873  14.046  19.079  0.00  0.00    +0.000 A 
ATOM     21  C   UNL     1       9.478  12.819  19.636  0.00  0.00    +0.000 A 
ATOM     22 CL   UNL     1       8.632  12.860  21.180  0.00  0.00    +0.000 Cl
ENDBRANCH  14  15
ENDBRANCH  13  14
ENDBRANCH   3  13
TORSDOF 5
ENDMDL
MODEL 6
REMARK VINA RESULT:      -6.8      4.646      8.730
REMARK  Name = 
REMARK  5 active torsions:
REMARK  status: ('A' for Active; 'I' for Inactive)
REMARK    1  A    between atoms: N_6  and  C_7
REMARK    2  A    between atoms: C_7  and  C_8
REMARK    3  A    between atoms: N_10  and  C_11
REMARK    4  A    between atoms: C_11  and  C_12
REMARK    5  A    between atoms: C_12  and  C_13
REMARK                            x       y       z     vdW  Elec       q    Type
REMARK                         _______ _______ _______ _____ _____    ______ ____
ROOT
ATOM      1  C   UNL     1       8.756   9.595  18.609  0.00  0.00    +0.000 C 
ATOM      2  O   UNL     1       8.120  10.085  17.685  0.00  0.00    +0.000 OA
ATOM      3  N   UNL     1       8.655   8.257  18.866  0.00  0.00    +0.000 N 
ATOM      4  H   UNL     1       9.196   7.837  19.639  0.00  0.00    +0.000 HD
ENDROOT
BRANCH   1   5
ATOM      5  C   UNL     1       9.659  10.515  19.403  0.00  0.00    +0.000 C 
BRANCH   5  11
ATOM      6  N   UNL     1      11.872  11.320  17.665  0.00  0.00    +0.000 NA
ATOM      7  C   UNL     1      10.911  12.125  17.939  0.00  0.00    +0.000 A 
ATOM      8  S   UNL     1      10.770  13.678  17.313  0.00  0.00    +0.000 S 
ATOM      9  C   UNL     1       9.304  13.962  18.093  0.00  0.00    +0.000 A 
ATOM     10  C   UNL     1       8.966  12.828  18.823  0.00  0.00    +0.000 A 
ATOM     11  N   UNL     1       9.866  11.805  18.743  0.00  0.00    +0.000 N 
ATOM     12  H   UNL     1      12.633  11.602  17.029  0.00  0.00    +0.000 HD
ENDBRANCH   5  11
ENDBRANCH   1   5
BRANCH   3  13
ATOM     13  C   UNL     1       7.825   7.423  18.005  0.00  0.00    +0.000 C 
BRANCH  13  14
ATOM     14  C   UNL     1       7.703   5.958  18.469  0.00  0.00    +0.000 C 
BRANCH  14  15
ATOM     15  C   UNL     1       6.300   5.436  18.172  0.00  0.00    +0.000 A 
ATOM     16  C   UNL     1       5.326   5.494  19.190  0.00  0.00    +0.000 A 
ATOM     17  C   UNL     1       4.034   5.006  18.980  0.00  0.00    +0.000 A 
ATOM     18  C   UNL     1       3.685   4.457  17.748  0.00  0.00    +0.000 A 
ATOM     19 CL   UNL     1       2.062   3.838  17.494  0.00  0.00    +0.000 Cl
ATOM     20  C   UNL     1       4.628   4.403  16.718  0.00  0.00    +0.000 A 
ATOM     21  C   UNL     1       5.930   4.887  16.918  0.00  0.00    +0.000 A 
ATOM     22 CL   UNL     1       7.057   4.773  15.569  0.00  0.00    +0.000 Cl
ENDBRANCH  14  15
ENDBRANCH  13  14
ENDBRANCH   3  13
TORSDOF 5
ENDMDL
MODEL 7
REMARK VINA RESULT:      -6.7      6.754      8.927
REMARK  Name = 
REMARK  5 active torsions:
REMARK  status: ('A' for Active; 'I' for Inactive)
REMARK    1  A    between atoms: N_6  and  C_7
REMARK    2  A    between atoms: C_7  and  C_8
REMARK    3  A    between atoms: N_10  and  C_11
REMARK    4  A    between atoms: C_11  and  C_12
REMARK    5  A    between atoms: C_12  and  C_13
REMARK                            x       y       z     vdW  Elec       q    Type
REMARK                         _______ _______ _______ _____ _____    ______ ____
ROOT
ATOM      1  C   UNL     1       6.325   5.986  16.653  0.00  0.00    +0.000 C 
ATOM      2  O   UNL     1       6.503   7.166  16.383  0.00  0.00    +0.000 OA
ATOM      3  N   UNL     1       5.274   5.625  17.447  0.00  0.00    +0.000 N 
ATOM      4  H   UNL     1       5.114   4.630  17.672  0.00  0.00    +0.000 HD
ENDROOT
BRANCH   1   5
ATOM      5  C   UNL     1       7.280   4.977  16.051  0.00  0.00    +0.000 C 
BRANCH   5  11
ATOM      6  N   UNL     1       8.607   5.776  13.568  0.00  0.00    +0.000 NA
ATOM      7  C   UNL     1       7.578   5.009  13.559  0.00  0.00    +0.000 A 
ATOM      8  S   UNL     1       6.910   4.338  12.170  0.00  0.00    +0.000 S 
ATOM      9  C   UNL     1       5.731   3.496  13.029  0.00  0.00    +0.000 A 
ATOM     10  C   UNL     1       5.896   3.764  14.383  0.00  0.00    +0.000 A 
ATOM     11  N   UNL     1       6.922   4.615  14.679  0.00  0.00    +0.000 N 
ATOM     12  H   UNL     1       9.086   6.029  12.691  0.00  0.00    +0.000 HD
ENDBRANCH   5  11
ENDBRANCH   1   5
BRANCH   3  13
ATOM     13  C   UNL     1       4.351   6.649  17.922  0.00  0.00    +0.000 C 
BRANCH  13  14
ATOM     14  C   UNL     1       2.862   6.293  17.740  0.00  0.00    +0.000 C 
BRANCH  14  15
ATOM     15  C   UNL     1       2.441   5.269  18.791  0.00  0.00    +0.000 A 
ATOM     16  C   UNL     1       2.198   5.712  20.108  0.00  0.00    +0.000 A 
ATOM     17  C   UNL     1       1.838   4.814  21.116  0.00  0.00    +0.000 A 
ATOM     18  C   UNL     1       1.703   3.456  20.828  0.00  0.00    +0.000 A 
ATOM     19 CL   UNL     1       1.257   2.333  22.100  0.00  0.00    +0.000 Cl
ATOM     20  C   UNL     1       1.923   2.996  19.527  0.00  0.00    +0.000 A 
ATOM     21  C   UNL     1       2.290   3.888  18.507  0.00  0.00    +0.000 A 
ATOM     22 CL   UNL     1       2.555   3.222  16.898  0.00  0.00    +0.000 Cl
ENDBRANCH  14  15
ENDBRANCH  13  14
ENDBRANCH   3  13
TORSDOF 5
ENDMDL
MODEL 8
REMARK VINA RESULT:      -6.7      5.625      8.785
REMARK  Name = 
REMARK  5 active torsions:
REMARK  status: ('A' for Active; 'I' for Inactive)
REMARK    1  A    between atoms: N_6  and  C_7
REMARK    2  A    between atoms: C_7  and  C_8
REMARK    3  A    between atoms: N_10  and  C_11
REMARK    4  A    between atoms: C_11  and  C_12
REMARK    5  A    between atoms: C_12  and  C_13
REMARK                            x       y       z     vdW  Elec       q    Type
REMARK                         _______ _______ _______ _____ _____    ______ ____
ROOT
ATOM      1  C   UNL     1       4.767   3.124  17.583  0.00  0.00    +0.000 C 
ATOM      2  O   UNL     1       5.009   3.436  18.742  0.00  0.00    +0.000 OA
ATOM      3  N   UNL     1       3.805   2.190  17.321  0.00  0.00    +0.000 N 
ATOM      4  H   UNL     1       3.591   1.929  16.346  0.00  0.00    +0.000 HD
ENDROOT
BRANCH   1   5
ATOM      5  C   UNL     1       5.540   3.831  16.491  0.00  0.00    +0.000 C 
BRANCH   5  11
ATOM      6  N   UNL     1       8.132   4.221  17.793  0.00  0.00    +0.000 NA
ATOM      7  C   UNL     1       7.353   5.210  17.544  0.00  0.00    +0.000 A 
ATOM      8  S   UNL     1       7.730   6.816  17.871  0.00  0.00    +0.000 S 
ATOM      9  C   UNL     1       6.286   7.387  17.219  0.00  0.00    +0.000 A 
ATOM     10  C   UNL     1       5.548   6.300  16.762  0.00  0.00    +0.000 A 
ATOM     11  N   UNL     1       6.141   5.085  16.950  0.00  0.00    +0.000 N 
ATOM     12  H   UNL     1       9.056   4.370  18.227  0.00  0.00    +0.000 HD
ENDBRANCH   5  11
ENDBRANCH   1   5
BRANCH   3  13
ATOM     13  C   UNL     1       3.047   1.614  18.425  0.00  0.00    +0.000 C 
BRANCH  13  14
ATOM     14  C   UNL     1       1.617   2.170  18.570  0.00  0.00    +0.000 C 
BRANCH  14  15
ATOM     15  C   UNL     1       1.670   3.613  19.065  0.00  0.00    +0.000 A 
ATOM     16  C   UNL     1       1.782   4.651  18.116  0.00  0.00    +0.000 A 
ATOM     17  C   UNL     1       1.863   5.987  18.515  0.00  0.00    +0.000 A 
ATOM     18  C   UNL     1       1.823   6.317  19.869  0.00  0.00    +0.000 A 
ATOM     19 CL   UNL     1       1.932   7.997  20.364  0.00  0.00    +0.000 Cl
ATOM     20  C   UNL     1       1.696   5.308  20.827  0.00  0.00    +0.000 A 
ATOM     21  C   UNL     1       1.618   3.960  20.438  0.00  0.00    +0.000 A 
ATOM     22 CL   UNL     1       1.467   2.753  21.711  0.00  0.00    +0.000 Cl
ENDBRANCH  14  15
ENDBRANCH  13  14
ENDBRANCH   3  13
TORSDOF 5
ENDMDL
MODEL 9
REMARK VINA RESULT:      -6.6      6.477      7.962
REMARK  Name = 
REMARK  5 active torsions:
REMARK  status: ('A' for Active; 'I' for Inactive)
REMARK    1  A    between atoms: N_6  and  C_7
REMARK    2  A    between atoms: C_7  and  C_8
REMARK    3  A    between atoms: N_10  and  C_11
REMARK    4  A    between atoms: C_11  and  C_12
REMARK    5  A    between atoms: C_12  and  C_13
REMARK                            x       y       z     vdW  Elec       q    Type
REMARK                         _______ _______ _______ _____ _____    ______ ____
ROOT
ATOM      1  C   UNL     1       3.341   4.623  19.443  0.00  0.00    +0.000 C 
ATOM      2  O   UNL     1       2.270   4.090  19.183  0.00  0.00    +0.000 OA
ATOM      3  N   UNL     1       3.360   5.885  19.965  0.00  0.00    +0.000 N 
ATOM      4  H   UNL     1       4.260   6.336  20.193  0.00  0.00    +0.000 HD
ENDROOT
BRANCH   1   5
ATOM      5  C   UNL     1       4.600   3.819  19.199  0.00  0.00    +0.000 C 
BRANCH   5  11
ATOM      6  N   UNL     1       7.313   4.806  18.722  0.00  0.00    +0.000 NA
ATOM      7  C   UNL     1       6.500   4.591  17.752  0.00  0.00    +0.000 A 
ATOM      8  S   UNL     1       6.890   4.787  16.129  0.00  0.00    +0.000 S 
ATOM      9  C   UNL     1       5.377   4.268  15.604  0.00  0.00    +0.000 A 
ATOM     10  C   UNL     1       4.607   3.953  16.718  0.00  0.00    +0.000 A 
ATOM     11  N   UNL     1       5.231   4.141  17.918  0.00  0.00    +0.000 N 
ATOM     12  H   UNL     1       8.277   5.127  18.543  0.00  0.00    +0.000 HD
ENDBRANCH   5  11
ENDBRANCH   1   5
BRANCH   3  13
ATOM     13  C   UNL     1       2.100   6.562  20.247  0.00  0.00    +0.000 C 
BRANCH  13  14
ATOM     14  C   UNL     1       1.938   7.921  19.538  0.00  0.00    +0.000 C 
BRANCH  14  15
ATOM     15  C   UNL     1       1.099   8.860  20.401  0.00  0.00    +0.000 A 
ATOM     16  C   UNL     1       0.545   8.364  21.600  0.00  0.00    +0.000 A 
ATOM     17  C   UNL     1      -0.253   9.171  22.413  0.00  0.00    +0.000 A 
ATOM     18  C   UNL     1      -0.507  10.494  22.053  0.00  0.00    +0.000 A 
ATOM     19 CL   UNL     1      -1.517  11.500  23.076  0.00  0.00    +0.000 Cl
ATOM     20  C   UNL     1       0.044  11.013  20.879  0.00  0.00    +0.000 A 
ATOM     21  C   UNL     1       0.844  10.210  20.050  0.00  0.00    +0.000 A 
ATOM     22 CL   UNL     1       1.492  10.942  18.585  0.00  0.00    +0.000 Cl
ENDBRANCH  14  15
ENDBRANCH  13  14
ENDBRANCH   3  13
TORSDOF 5
ENDMDL
