MODEL 1
REMARK VINA RESULT:      -7.1      0.000      0.000
REMARK  Name = 
REMARK  5 active torsions:
REMARK  status: ('A' for Active; 'I' for Inactive)
REMARK    1  A    between atoms: C_1  and  N_2
REMARK    2  A    between atoms: N_2  and  C_3
REMARK    3  A    between atoms: C_3  and  C_4
REMARK    4  A    between atoms: C_5  and  C_6
REMARK    5  A    between atoms: C_6  and  N_7
REMARK                            x       y       z     vdW  Elec       q    Type
REMARK                         _______ _______ _______ _____ _____    ______ ____
ROOT
ATOM      1  C   UNL     1       7.734   4.413  17.453  0.00  0.00    +0.000 C 
ATOM      2  N   UNL     1       6.404   5.050  17.238  0.00  0.00    +0.000 N 
ATOM      3  C   UNL     1       6.614   6.444  16.754  0.00  0.00    +0.000 C 
ATOM      4  C   UNL     1       5.303   7.229  16.544  0.00  0.00    +0.000 C 
ATOM      5  C   UNL     1       4.290   6.983  17.630  0.00  0.00    +0.000 A 
ATOM      6  C   UNL     1       3.117   7.758  17.672  0.00  0.00    +0.000 A 
ATOM      7  C   UNL     1       2.151   7.526  18.654  0.00  0.00    +0.000 A 
ATOM      8  C   UNL     1       2.342   6.519  19.600  0.00  0.00    +0.000 A 
ATOM      9  C   UNL     1       3.505   5.745  19.572  0.00  0.00    +0.000 A 
ATOM     10  C   UNL     1       4.480   5.964  18.585  0.00  0.00    +0.000 A 
ATOM     11  C   UNL     1       5.723   5.102  18.567  0.00  0.00    +0.000 C 
ENDROOT
BRANCH   2  12
ATOM     12  C   UNL     1       5.610   4.214  16.290  0.00  0.00    +0.000 C 
BRANCH  12  13
ATOM     13  C   UNL     1       4.724   3.257  16.989  0.00  0.00    +0.000 C 
ATOM     14  C   UNL     1       3.940   2.449  17.647  0.00  0.00    +0.000 C 
BRANCH  14  15
ATOM     15  C   UNL     1       3.025   1.508  18.413  0.00  0.00    +0.000 C 
BRANCH  15  16
ATOM     16  N   UNL     1       2.365   2.166  19.521  0.00  0.00    +0.000 N 
ATOM     17  O   UNL     1       3.047   2.526  20.627  0.00  0.00    +0.000 OA
ATOM     18  C   UNL     1       2.025   2.857  21.551  0.00  0.00    +0.000 C 
ATOM     19  C   UNL     1       0.790   3.287  20.754  0.00  0.00    +0.000 C 
ATOM     20  C   UNL     1       1.087   2.571  19.517  0.00  0.00    +0.000 C 
ATOM     21  O   UNL     1       0.330   2.451  18.565  0.00  0.00    +0.000 OA
ENDBRANCH  15  16
ENDBRANCH  14  15
ENDBRANCH  12  13
ENDBRANCH   2  12
TORSDOF 4
ENDMDL
MODEL 2
REMARK VINA RESULT:      -7.0      3.021      5.655
REMARK  Name = 
REMARK  5 active torsions:
REMARK  status: ('A' for Active; 'I' for Inactive)
REMARK    1  A    between atoms: C_1  and  N_2
REMARK    2  A    between atoms: N_2  and  C_3
REMARK    3  A    between atoms: C_3  and  C_4
REMARK    4  A    between atoms: C_5  and  C_6
REMARK    5  A    between atoms: C_6  and  N_7
REMARK                            x       y       z     vdW  Elec       q    Type
REMARK                         _______ _______ _______ _____ _____    ______ ____
ROOT
ATOM      1  C   UNL     1       3.078   1.912  18.137  0.00  0.00    +0.000 C 
ATOM      2  N   UNL     1       3.116   3.221  18.850  0.00  0.00    +0.000 N 
ATOM      3  C   UNL     1       2.111   3.195  19.950  0.00  0.00    +0.000 C 
ATOM      4  C   UNL     1       2.019   4.522  20.733  0.00  0.00    +0.000 C 
ATOM      5  C   UNL     1       2.092   5.735  19.844  0.00  0.00    +0.000 A 
ATOM      6  C   UNL     1       1.847   7.008  20.388  0.00  0.00    +0.000 A 
ATOM      7  C   UNL     1       1.937   8.149  19.586  0.00  0.00    +0.000 A 
ATOM      8  C   UNL     1       2.277   8.032  18.239  0.00  0.00    +0.000 A 
ATOM      9  C   UNL     1       2.519   6.773  17.685  0.00  0.00    +0.000 A 
ATOM     10  C   UNL     1       2.437   5.619  18.482  0.00  0.00    +0.000 A 
ATOM     11  C   UNL     1       2.718   4.268  17.862  0.00  0.00    +0.000 C 
ENDROOT
BRANCH   2  12
ATOM     12  C   UNL     1       4.506   3.474  19.331  0.00  0.00    +0.000 C 
BRANCH  12  13
ATOM     13  C   UNL     1       5.336   4.164  18.319  0.00  0.00    +0.000 C 
ATOM     14  C   UNL     1       6.051   4.736  17.390  0.00  0.00    +0.000 C 
BRANCH  14  15
ATOM     15  C   UNL     1       6.885   5.401  16.308  0.00  0.00    +0.000 C 
BRANCH  15  16
ATOM     16  N   UNL     1       6.641   4.830  15.000  0.00  0.00    +0.000 N 
ATOM     17  O   UNL     1       5.527   4.114  14.746  0.00  0.00    +0.000 OA
ATOM     18  C   UNL     1       5.801   3.512  13.494  0.00  0.00    +0.000 C 
ATOM     19  C   UNL     1       6.809   4.397  12.754  0.00  0.00    +0.000 C 
ATOM     20  C   UNL     1       7.408   5.039  13.920  0.00  0.00    +0.000 C 
ATOM     21  O   UNL     1       8.397   5.757  13.907  0.00  0.00    +0.000 OA
ENDBRANCH  15  16
ENDBRANCH  14  15
ENDBRANCH  12  13
ENDBRANCH   2  12
TORSDOF 4
ENDMDL
MODEL 3
REMARK VINA RESULT:      -6.9      0.562      1.312
REMARK  Name = 
REMARK  5 active torsions:
REMARK  status: ('A' for Active; 'I' for Inactive)
REMARK    1  A    between atoms: C_1  and  N_2
REMARK    2  A    between atoms: N_2  and  C_3
REMARK    3  A    between atoms: C_3  and  C_4
REMARK    4  A    between atoms: C_5  and  C_6
REMARK    5  A    between atoms: C_6  and  N_7
REMARK                            x       y       z     vdW  Elec       q    Type
REMARK                         _______ _______ _______ _____ _____    ______ ____
ROOT
ATOM      1  C   UNL     1       7.597   4.456  17.068  0.00  0.00    +0.000 C 
ATOM      2  N   UNL     1       6.236   5.059  16.976  0.00  0.00    +0.000 N 
ATOM      3  C   UNL     1       6.357   6.425  16.394  0.00  0.00    +0.000 C 
ATOM      4  C   UNL     1       5.013   7.176  16.297  0.00  0.00    +0.000 C 
ATOM      5  C   UNL     1       4.141   6.978  17.508  0.00  0.00    +0.000 A 
ATOM      6  C   UNL     1       2.964   7.735  17.645  0.00  0.00    +0.000 A 
ATOM      7  C   UNL     1       2.126   7.546  18.747  0.00  0.00    +0.000 A 
ATOM      8  C   UNL     1       2.450   6.599  19.718  0.00  0.00    +0.000 A 
ATOM      9  C   UNL     1       3.617   5.843  19.595  0.00  0.00    +0.000 A 
ATOM     10  C   UNL     1       4.465   6.019  18.489  0.00  0.00    +0.000 A 
ATOM     11  C   UNL     1       5.717   5.177  18.372  0.00  0.00    +0.000 C 
ENDROOT
BRANCH   2  12
ATOM     12  C   UNL     1       5.356   4.156  16.179  0.00  0.00    +0.000 C 
BRANCH  12  13
ATOM     13  C   UNL     1       4.526   3.278  17.033  0.00  0.00    +0.000 C 
ATOM     14  C   UNL     1       3.758   2.501  17.744  0.00  0.00    +0.000 C 
BRANCH  14  15
ATOM     15  C   UNL     1       2.864   1.595  18.574  0.00  0.00    +0.000 C 
BRANCH  15  16
ATOM     16  N   UNL     1       2.246   2.297  19.679  0.00  0.00    +0.000 N 
ATOM     17  O   UNL     1       0.952   2.675  19.631  0.00  0.00    +0.000 OA
ATOM     18  C   UNL     1       0.824   3.554  20.734  0.00  0.00    +0.000 C 
ATOM     19  C   UNL     1       1.887   3.171  21.768  0.00  0.00    +0.000 C 
ATOM     20  C   UNL     1       2.836   2.536  20.858  0.00  0.00    +0.000 C 
ATOM     21  O   UNL     1       3.964   2.169  21.150  0.00  0.00    +0.000 OA
ENDBRANCH  15  16
ENDBRANCH  14  15
ENDBRANCH  12  13
ENDBRANCH   2  12
TORSDOF 4
ENDMDL
MODEL 4
REMARK VINA RESULT:      -6.8      2.596      5.487
REMARK  Name = 
REMARK  5 active torsions:
REMARK  status: ('A' for Active; 'I' for Inactive)
REMARK    1  A    between atoms: C_1  and  N_2
REMARK    2  A    between atoms: N_2  and  C_3
REMARK    3  A    between atoms: C_3  and  C_4
REMARK    4  A    between atoms: C_5  and  C_6
REMARK    5  A    between atoms: C_6  and  N_7
REMARK                            x       y       z     vdW  Elec       q    Type
REMARK                         _______ _______ _______ _____ _____    ______ ____
ROOT
ATOM      1  C   UNL     1       1.898   1.701  18.421  0.00  0.00    +0.000 C 
ATOM      2  N   UNL     1       2.219   2.976  19.123  0.00  0.00    +0.000 N 
ATOM      3  C   UNL     1       1.272   3.146  20.262  0.00  0.00    +0.000 C 
ATOM      4  C   UNL     1       1.470   4.464  21.039  0.00  0.00    +0.000 C 
ATOM      5  C   UNL     1       1.742   5.640  20.139  0.00  0.00    +0.000 A 
ATOM      6  C   UNL     1       1.771   6.936  20.684  0.00  0.00    +0.000 A 
ATOM      7  C   UNL     1       2.049   8.039  19.873  0.00  0.00    +0.000 A 
ATOM      8  C   UNL     1       2.306   7.860  18.513  0.00  0.00    +0.000 A 
ATOM      9  C   UNL     1       2.276   6.578  17.959  0.00  0.00    +0.000 A 
ATOM     10  C   UNL     1       2.004   5.461  18.766  0.00  0.00    +0.000 A 
ATOM     11  C   UNL     1       1.993   4.082  18.144  0.00  0.00    +0.000 C 
ENDROOT
BRANCH   2  12
ATOM     12  C   UNL     1       3.650   2.954  19.547  0.00  0.00    +0.000 C 
BRANCH  12  13
ATOM     13  C   UNL     1       4.543   3.578  18.547  0.00  0.00    +0.000 C 
ATOM     14  C   UNL     1       5.370   4.131  17.704  0.00  0.00    +0.000 C 
BRANCH  14  15
ATOM     15  C   UNL     1       6.334   4.776  16.722  0.00  0.00    +0.000 C 
BRANCH  15  16
ATOM     16  N   UNL     1       6.971   5.954  17.272  0.00  0.00    +0.000 N 
ATOM     17  O   UNL     1       6.700   7.184  16.792  0.00  0.00    +0.000 OA
ATOM     18  C   UNL     1       7.706   7.994  17.375  0.00  0.00    +0.000 C 
ATOM     19  C   UNL     1       8.153   7.327  18.679  0.00  0.00    +0.000 C 
ATOM     20  C   UNL     1       7.776   5.957  18.345  0.00  0.00    +0.000 C 
ATOM     21  O   UNL     1       8.052   4.963  19.000  0.00  0.00    +0.000 OA
ENDBRANCH  15  16
ENDBRANCH  14  15
ENDBRANCH  12  13
ENDBRANCH   2  12
TORSDOF 4
ENDMDL
MODEL 5
REMARK VINA RESULT:      -6.7      2.206      4.460
REMARK  Name = 
REMARK  5 active torsions:
REMARK  status: ('A' for Active; 'I' for Inactive)
REMARK    1  A    between atoms: C_1  and  N_2
REMARK    2  A    between atoms: N_2  and  C_3
REMARK    3  A    between atoms: C_3  and  C_4
REMARK    4  A    between atoms: C_5  and  C_6
REMARK    5  A    between atoms: C_6  and  N_7
REMARK                            x       y       z     vdW  Elec       q    Type
REMARK                         _______ _______ _______ _____ _____    ______ ____
ROOT
ATOM      1  C   UNL     1       7.084   5.746  18.295  0.00  0.00    +0.000 C 
ATOM      2  N   UNL     1       6.427   5.439  16.992  0.00  0.00    +0.000 N 
ATOM      3  C   UNL     1       5.820   4.081  17.071  0.00  0.00    +0.000 C 
ATOM      4  C   UNL     1       5.152   3.626  15.758  0.00  0.00    +0.000 C 
ATOM      5  C   UNL     1       5.949   3.994  14.535  0.00  0.00    +0.000 A 
ATOM      6  C   UNL     1       5.560   3.497  13.279  0.00  0.00    +0.000 A 
ATOM      7  C   UNL     1       6.270   3.849  12.128  0.00  0.00    +0.000 A 
ATOM      8  C   UNL     1       7.369   4.703  12.217  0.00  0.00    +0.000 A 
ATOM      9  C   UNL     1       7.768   5.201  13.460  0.00  0.00    +0.000 A 
ATOM     10  C   UNL     1       7.059   4.859  14.623  0.00  0.00    +0.000 A 
ATOM     11  C   UNL     1       7.503   5.423  15.955  0.00  0.00    +0.000 C 
ENDROOT
BRANCH   2  12
ATOM     12  C   UNL     1       5.435   6.510  16.682  0.00  0.00    +0.000 C 
BRANCH  12  13
ATOM     13  C   UNL     1       4.309   6.531  17.641  0.00  0.00    +0.000 C 
ATOM     14  C   UNL     1       3.329   6.497  18.501  0.00  0.00    +0.000 C 
BRANCH  14  15
ATOM     15  C   UNL     1       2.187   6.458  19.503  0.00  0.00    +0.000 C 
BRANCH  15  16
ATOM     16  N   UNL     1       1.971   5.130  20.035  0.00  0.00    +0.000 N 
ATOM     17  O   UNL     1       2.085   4.878  21.355  0.00  0.00    +0.000 OA
ATOM     18  C   UNL     1       2.087   3.463  21.422  0.00  0.00    +0.000 C 
ATOM     19  C   UNL     1       1.337   2.932  20.197  0.00  0.00    +0.000 C 
ATOM     20  C   UNL     1       1.542   4.080  19.320  0.00  0.00    +0.000 C 
ATOM     21  O   UNL     1       1.263   4.126  18.131  0.00  0.00    +0.000 OA
ENDBRANCH  15  16
ENDBRANCH  14  15
ENDBRANCH  12  13
ENDBRANCH   2  12
TORSDOF 4
ENDMDL
MODEL 6
REMARK VINA RESULT:      -6.7      2.532      5.365
REMARK  Name = 
REMARK  5 active torsions:
REMARK  status: ('A' for Active; 'I' for Inactive)
REMARK    1  A    between atoms: C_1  and  N_2
REMARK    2  A    between atoms: N_2  and  C_3
REMARK    3  A    between atoms: C_3  and  C_4
REMARK    4  A    between atoms: C_5  and  C_6
REMARK    5  A    between atoms: C_6  and  N_7
REMARK                            x       y       z     vdW  Elec       q    Type
REMARK                         _______ _______ _______ _____ _____    ______ ____
ROOT
ATOM      1  C   UNL     1       2.958   1.601  18.449  0.00  0.00    +0.000 C 
ATOM      2  N   UNL     1       2.920   2.847  19.267  0.00  0.00    +0.000 N 
ATOM      3  C   UNL     1       1.777   2.759  20.220  0.00  0.00    +0.000 C 
ATOM      4  C   UNL     1       1.601   4.020  21.090  0.00  0.00    +0.000 C 
ATOM      5  C   UNL     1       1.809   5.298  20.322  0.00  0.00    +0.000 A 
ATOM      6  C   UNL     1       1.512   6.530  20.933  0.00  0.00    +0.000 A 
ATOM      7  C   UNL     1       1.725   7.729  20.248  0.00  0.00    +0.000 A 
ATOM      8  C   UNL     1       2.239   7.712  18.951  0.00  0.00    +0.000 A 
ATOM      9  C   UNL     1       2.534   6.495  18.332  0.00  0.00    +0.000 A 
ATOM     10  C   UNL     1       2.330   5.283  19.013  0.00  0.00    +0.000 A 
ATOM     11  C   UNL     1       2.672   3.980  18.325  0.00  0.00    +0.000 C 
ENDROOT
BRANCH   2  12
ATOM     12  C   UNL     1       4.238   3.026  19.945  0.00  0.00    +0.000 C 
BRANCH  12  13
ATOM     13  C   UNL     1       5.168   3.865  19.158  0.00  0.00    +0.000 C 
ATOM     14  C   UNL     1       6.027   4.568  18.474  0.00  0.00    +0.000 C 
BRANCH  14  15
ATOM     15  C   UNL     1       7.029   5.387  17.677  0.00  0.00    +0.000 C 
BRANCH  15  16
ATOM     16  N   UNL     1       6.864   5.216  16.249  0.00  0.00    +0.000 N 
ATOM     17  O   UNL     1       7.762   4.524  15.519  0.00  0.00    +0.000 OA
ATOM     18  C   UNL     1       7.406   4.830  14.183  0.00  0.00    +0.000 C 
ATOM     19  C   UNL     1       5.917   5.188  14.160  0.00  0.00    +0.000 C 
ATOM     20  C   UNL     1       5.791   5.614  15.551  0.00  0.00    +0.000 C 
ATOM     21  O   UNL     1       4.811   6.152  16.043  0.00  0.00    +0.000 OA
ENDBRANCH  15  16
ENDBRANCH  14  15
ENDBRANCH  12  13
ENDBRANCH   2  12
TORSDOF 4
ENDMDL
MODEL 7
REMARK VINA RESULT:      -6.7      2.224      4.624
REMARK  Name = 
REMARK  5 active torsions:
REMARK  status: ('A' for Active; 'I' for Inactive)
REMARK    1  A    between atoms: C_1  and  N_2
REMARK    2  A    between atoms: N_2  and  C_3
REMARK    3  A    between atoms: C_3  and  C_4
REMARK    4  A    between atoms: C_5  and  C_6
REMARK    5  A    between atoms: C_6  and  N_7
REMARK                            x       y       z     vdW  Elec       q    Type
REMARK                         _______ _______ _______ _____ _____    ______ ____
ROOT
ATOM      1  C   UNL     1       7.355   5.971  18.039  0.00  0.00    +0.000 C 
ATOM      2  N   UNL     1       6.636   5.550  16.803  0.00  0.00    +0.000 N 
ATOM      3  C   UNL     1       6.140   4.157  16.988  0.00  0.00    +0.000 C 
ATOM      4  C   UNL     1       5.420   3.588  15.749  0.00  0.00    +0.000 C 
ATOM      5  C   UNL     1       6.103   3.949  14.456  0.00  0.00    +0.000 A 
ATOM      6  C   UNL     1       5.668   3.360  13.255  0.00  0.00    +0.000 A 
ATOM      7  C   UNL     1       6.269   3.702  12.041  0.00  0.00    +0.000 A 
ATOM      8  C   UNL     1       7.304   4.636  12.012  0.00  0.00    +0.000 A 
ATOM      9  C   UNL     1       7.748   5.225  13.198  0.00  0.00    +0.000 A 
ATOM     10  C   UNL     1       7.147   4.894  14.424  0.00  0.00    +0.000 A 
ATOM     11  C   UNL     1       7.637   5.558  15.693  0.00  0.00    +0.000 C 
ENDROOT
BRANCH   2  12
ATOM     12  C   UNL     1       5.547   6.529  16.515  0.00  0.00    +0.000 C 
BRANCH  12  13
ATOM     13  C   UNL     1       4.418   6.412  17.463  0.00  0.00    +0.000 C 
ATOM     14  C   UNL     1       3.402   6.268  18.268  0.00  0.00    +0.000 C 
BRANCH  14  15
ATOM     15  C   UNL     1       2.219   6.100  19.206  0.00  0.00    +0.000 C 
BRANCH  15  16
ATOM     16  N   UNL     1       1.826   4.714  19.350  0.00  0.00    +0.000 N 
ATOM     17  O   UNL     1       1.450   3.979  18.284  0.00  0.00    +0.000 OA
ATOM     18  C   UNL     1       0.886   2.818  18.867  0.00  0.00    +0.000 C 
ATOM     19  C   UNL     1       1.522   2.625  20.247  0.00  0.00    +0.000 C 
ATOM     20  C   UNL     1       1.899   4.014  20.491  0.00  0.00    +0.000 C 
ATOM     21  O   UNL     1       2.328   4.459  21.545  0.00  0.00    +0.000 OA
ENDBRANCH  15  16
ENDBRANCH  14  15
ENDBRANCH  12  13
ENDBRANCH   2  12
TORSDOF 4
ENDMDL
MODEL 8
REMARK VINA RESULT:      -6.7      4.733      7.269
REMARK  Name = 
REMARK  5 active torsions:
REMARK  status: ('A' for Active; 'I' for Inactive)
REMARK    1  A    between atoms: C_1  and  N_2
REMARK    2  A    between atoms: N_2  and  C_3
REMARK    3  A    between atoms: C_3  and  C_4
REMARK    4  A    between atoms: C_5  and  C_6
REMARK    5  A    between atoms: C_6  and  N_7
REMARK                            x       y       z     vdW  Elec       q    Type
REMARK                         _______ _______ _______ _____ _____    ______ ____
ROOT
ATOM      1  C   UNL     1       7.085   5.311  15.890  0.00  0.00    +0.000 C 
ATOM      2  N   UNL     1       6.269   5.482  17.126  0.00  0.00    +0.000 N 
ATOM      3  C   UNL     1       5.652   4.172  17.476  0.00  0.00    +0.000 C 
ATOM      4  C   UNL     1       4.735   4.232  18.715  0.00  0.00    +0.000 C 
ATOM      5  C   UNL     1       3.880   5.471  18.753  0.00  0.00    +0.000 A 
ATOM      6  C   UNL     1       2.871   5.586  19.725  0.00  0.00    +0.000 A 
ATOM      7  C   UNL     1       2.085   6.739  19.796  0.00  0.00    +0.000 A 
ATOM      8  C   UNL     1       2.301   7.788  18.903  0.00  0.00    +0.000 A 
ATOM      9  C   UNL     1       3.297   7.685  17.931  0.00  0.00    +0.000 A 
ATOM     10  C   UNL     1       4.098   6.533  17.853  0.00  0.00    +0.000 A 
ATOM     11  C   UNL     1       5.181   6.453  16.800  0.00  0.00    +0.000 C 
ENDROOT
BRANCH   2  12
ATOM     12  C   UNL     1       7.135   6.031  18.210  0.00  0.00    +0.000 C 
BRANCH  12  13
ATOM     13  C   UNL     1       7.586   7.411  17.928  0.00  0.00    +0.000 C 
ATOM     14  C   UNL     1       8.012   8.627  17.726  0.00  0.00    +0.000 C 
BRANCH  14  15
ATOM     15  C   UNL     1       8.508  10.044  17.490  0.00  0.00    +0.000 C 
BRANCH  15  16
ATOM     16  N   UNL     1       9.146  10.603  18.663  0.00  0.00    +0.000 N 
ATOM     17  O   UNL     1       9.024  10.018  19.871  0.00  0.00    +0.000 OA
ATOM     18  C   UNL     1       9.528  10.995  20.764  0.00  0.00    +0.000 C 
ATOM     19  C   UNL     1      10.516  11.875  19.992  0.00  0.00    +0.000 C 
ATOM     20  C   UNL     1       9.981  11.652  18.652  0.00  0.00    +0.000 C 
ATOM     21  O   UNL     1      10.321  12.250  17.642  0.00  0.00    +0.000 OA
ENDBRANCH  15  16
ENDBRANCH  14  15
ENDBRANCH  12  13
ENDBRANCH   2  12
TORSDOF 4
ENDMDL
MODEL 9
REMARK VINA RESULT:      -6.6      3.550      5.545
REMARK  Name = 
REMARK  5 active torsions:
REMARK  status: ('A' for Active; 'I' for Inactive)
REMARK    1  A    between atoms: C_1  and  N_2
REMARK    2  A    between atoms: N_2  and  C_3
REMARK    3  A    between atoms: C_3  and  C_4
REMARK    4  A    between atoms: C_5  and  C_6
REMARK    5  A    between atoms: C_6  and  N_7
REMARK                            x       y       z     vdW  Elec       q    Type
REMARK                         _______ _______ _______ _____ _____    ______ ____
ROOT
ATOM      1  C   UNL     1       4.859   5.489  16.193  0.00  0.00    +0.000 C 
ATOM      2  N   UNL     1       4.442   5.106  17.572  0.00  0.00    +0.000 N 
ATOM      3  C   UNL     1       5.314   3.993  18.043  0.00  0.00    +0.000 C 
ATOM      4  C   UNL     1       4.944   3.471  19.447  0.00  0.00    +0.000 C 
ATOM      5  C   UNL     1       3.457   3.370  19.662  0.00  0.00    +0.000 A 
ATOM      6  C   UNL     1       2.967   2.747  20.824  0.00  0.00    +0.000 A 
ATOM      7  C   UNL     1       1.591   2.668  21.057  0.00  0.00    +0.000 A 
ATOM      8  C   UNL     1       0.693   3.211  20.138  0.00  0.00    +0.000 A 
ATOM      9  C   UNL     1       1.167   3.829  18.979  0.00  0.00    +0.000 A 
ATOM     10  C   UNL     1       2.548   3.920  18.736  0.00  0.00    +0.000 A 
ATOM     11  C   UNL     1       3.036   4.607  17.480  0.00  0.00    +0.000 C 
ENDROOT
BRANCH   2  12
ATOM     12  C   UNL     1       4.499   6.311  18.451  0.00  0.00    +0.000 C 
BRANCH  12  13
ATOM     13  C   UNL     1       3.381   7.246  18.201  0.00  0.00    +0.000 C 
ATOM     14  C   UNL     1       2.429   8.111  17.992  0.00  0.00    +0.000 C 
BRANCH  14  15
ATOM     15  C   UNL     1       1.319   9.121  17.750  0.00  0.00    +0.000 C 
BRANCH  15  16
ATOM     16  N   UNL     1       0.703   9.565  18.982  0.00  0.00    +0.000 N 
ATOM     17  O   UNL     1       1.194   9.194  20.182  0.00  0.00    +0.000 OA
ATOM     18  C   UNL     1       0.175   9.580  21.088  0.00  0.00    +0.000 C 
ATOM     19  C   UNL     1      -0.605  10.737  20.457  0.00  0.00    +0.000 C 
ATOM     20  C   UNL     1      -0.307  10.443  19.059  0.00  0.00    +0.000 C 
ATOM     21  O   UNL     1      -0.817  10.991  18.093  0.00  0.00    +0.000 OA
ENDBRANCH  15  16
ENDBRANCH  14  15
ENDBRANCH  12  13
ENDBRANCH   2  12
TORSDOF 4
ENDMDL
