MODEL 1
REMARK VINA RESULT:      -7.7      0.000      0.000
REMARK  Name = 
REMARK  5 active torsions:
REMARK  status: ('A' for Active; 'I' for Inactive)
REMARK    1  A    between atoms: C_1  and  C_2
REMARK    2  A    between atoms: C_2  and  C_3
REMARK    3  A    between atoms: C_4  and  C_5
REMARK    4  A    between atoms: C_18  and  C_19
REMARK    5  A    between atoms: C_22  and  O_23
REMARK                            x       y       z     vdW  Elec       q    Type
REMARK                         _______ _______ _______ _____ _____    ______ ____
ROOT
ATOM      1  C   UNL     1       2.183   6.583  19.642  0.00  0.00    +0.000 A 
ATOM      2  C   UNL     1       1.942   8.002  19.577  0.00  0.00    +0.000 A 
ATOM      3  C   UNL     1       2.564   8.665  18.513  0.00  0.00    +0.000 A 
ATOM      4  N   UNL     1       3.320   8.103  17.550  0.00  0.00    +0.000 NA
ATOM      5  C   UNL     1       3.522   6.778  17.617  0.00  0.00    +0.000 A 
ATOM      6  N   UNL     1       4.338   6.321  16.581  0.00  0.00    +0.000 N 
ATOM      7  C   UNL     1       3.010   5.938  18.639  0.00  0.00    +0.000 A 
ATOM      8  H   UNL     1       4.504   7.115  15.968  0.00  0.00    +0.000 HD
ATOM      9  H   UNL     1       3.921   5.535  16.098  0.00  0.00    +0.000 HD
ENDROOT
BRANCH   2  10
ATOM     10  C   UNL     1       1.119   8.832  20.526  0.00  0.00    +0.000 A 
ATOM     11  C   UNL     1       1.199   8.660  21.930  0.00  0.00    +0.000 A 
ATOM     12  C   UNL     1       0.414   9.394  22.847  0.00  0.00    +0.000 A 
ATOM     13  C   UNL     1      -0.437  10.395  22.356  0.00  0.00    +0.000 A 
ATOM     14  C   UNL     1      -1.344  11.343  22.880  0.00  0.00    +0.000 A 
ATOM     15  N   UNL     1      -1.904  12.109  21.934  0.00  0.00    +0.000 NA
ATOM     16  N   UNL     1      -1.362  11.634  20.802  0.00  0.00    +0.000 N 
ATOM     17  C   UNL     1      -0.508  10.579  20.989  0.00  0.00    +0.000 A 
ATOM     18  C   UNL     1       0.197   9.795  20.076  0.00  0.00    +0.000 A 
ATOM     19  H   UNL     1      -1.606  12.080  19.924  0.00  0.00    +0.000 HD
ENDBRANCH   2  10
BRANCH   7  20
ATOM     20  C   UNL     1       3.365   4.469  18.643  0.00  0.00    +0.000 A 
ATOM     21  C   UNL     1       4.297   3.942  19.566  0.00  0.00    +0.000 A 
ATOM     22  C   UNL     1       4.677   2.591  19.566  0.00  0.00    +0.000 A 
ATOM     23  C   UNL     1       4.056   1.710  18.696  0.00  0.00    +0.000 A 
ATOM     24  C   UNL     1       3.118   2.175  17.792  0.00  0.00    +0.000 A 
ATOM     25  C   UNL     1       2.837   3.546  17.722  0.00  0.00    +0.000 A 
BRANCH  23  26
ATOM     26  O   UNL     1       4.359   0.383  18.676  0.00  0.00    +0.000 OA
ATOM     27  H   UNL     1       4.406   0.062  19.591  0.00  0.00    +0.000 HD
ENDBRANCH  23  26
ENDBRANCH   7  20
BRANCH   1  29
ATOM     28  C   UNL     1       0.728   4.608  20.343  0.00  0.00    +0.000 C 
ATOM     29  C   UNL     1       1.596   5.778  20.795  0.00  0.00    +0.000 C 
ENDBRANCH   1  29
TORSDOF 4
ENDMDL
MODEL 2
REMARK VINA RESULT:      -7.6      3.746      7.943
REMARK  Name = 
REMARK  5 active torsions:
REMARK  status: ('A' for Active; 'I' for Inactive)
REMARK    1  A    between atoms: C_1  and  C_2
REMARK    2  A    between atoms: C_2  and  C_3
REMARK    3  A    between atoms: C_4  and  C_5
REMARK    4  A    between atoms: C_18  and  C_19
REMARK    5  A    between atoms: C_22  and  O_23
REMARK                            x       y       z     vdW  Elec       q    Type
REMARK                         _______ _______ _______ _____ _____    ______ ____
ROOT
ATOM      1  C   UNL     1       1.409   8.631  19.980  0.00  0.00    +0.000 A 
ATOM      2  C   UNL     1       2.194   7.657  19.268  0.00  0.00    +0.000 A 
ATOM      3  C   UNL     1       2.727   8.096  18.050  0.00  0.00    +0.000 A 
ATOM      4  N   UNL     1       2.602   9.326  17.517  0.00  0.00    +0.000 NA
ATOM      5  C   UNL     1       1.880  10.226  18.202  0.00  0.00    +0.000 A 
ATOM      6  N   UNL     1       1.806  11.451  17.537  0.00  0.00    +0.000 N 
ATOM      7  C   UNL     1       1.228   9.964  19.434  0.00  0.00    +0.000 A 
ATOM      8  H   UNL     1       2.409  11.379  16.722  0.00  0.00    +0.000 HD
ATOM      9  H   UNL     1       2.059  12.221  18.144  0.00  0.00    +0.000 HD
ENDROOT
BRANCH   2  10
ATOM     10  C   UNL     1       2.483   6.238  19.680  0.00  0.00    +0.000 A 
ATOM     11  C   UNL     1       1.564   5.484  20.450  0.00  0.00    +0.000 A 
ATOM     12  C   UNL     1       1.817   4.164  20.887  0.00  0.00    +0.000 A 
ATOM     13  C   UNL     1       3.004   3.537  20.483  0.00  0.00    +0.000 A 
ATOM     14  C   UNL     1       3.634   2.284  20.655  0.00  0.00    +0.000 A 
ATOM     15  N   UNL     1       4.803   2.193  20.007  0.00  0.00    +0.000 NA
ATOM     16  N   UNL     1       4.925   3.400  19.433  0.00  0.00    +0.000 N 
ATOM     17  C   UNL     1       3.898   4.261  19.718  0.00  0.00    +0.000 A 
ATOM     18  C   UNL     1       3.692   5.594  19.362  0.00  0.00    +0.000 A 
ATOM     19  H   UNL     1       5.732   3.578  18.845  0.00  0.00    +0.000 HD
ENDBRANCH   2  10
BRANCH   7  20
ATOM     20  C   UNL     1       0.385  11.042  20.075  0.00  0.00    +0.000 A 
ATOM     21  C   UNL     1      -1.008  11.121  19.841  0.00  0.00    +0.000 A 
ATOM     22  C   UNL     1      -1.808  12.135  20.389  0.00  0.00    +0.000 A 
ATOM     23  C   UNL     1      -1.245  13.044  21.268  0.00  0.00    +0.000 A 
ATOM     24  C   UNL     1       0.109  12.990  21.549  0.00  0.00    +0.000 A 
ATOM     25  C   UNL     1       0.918  12.047  20.901  0.00  0.00    +0.000 A 
BRANCH  23  26
ATOM     26  O   UNL     1      -1.980  14.027  21.858  0.00  0.00    +0.000 OA
ATOM     27  H   UNL     1      -2.263  13.718  22.734  0.00  0.00    +0.000 HD
ENDBRANCH  23  26
ENDBRANCH   7  20
BRANCH   1  29
ATOM     28  C   UNL     1       1.327   8.932  22.513  0.00  0.00    +0.000 C 
ATOM     29  C   UNL     1       0.737   8.235  21.290  0.00  0.00    +0.000 C 
ENDBRANCH   1  29
TORSDOF 4
ENDMDL
MODEL 3
REMARK VINA RESULT:      -7.6      1.023      1.710
REMARK  Name = 
REMARK  5 active torsions:
REMARK  status: ('A' for Active; 'I' for Inactive)
REMARK    1  A    between atoms: C_1  and  C_2
REMARK    2  A    between atoms: C_2  and  C_3
REMARK    3  A    between atoms: C_4  and  C_5
REMARK    4  A    between atoms: C_18  and  C_19
REMARK    5  A    between atoms: C_22  and  O_23
REMARK                            x       y       z     vdW  Elec       q    Type
REMARK                         _______ _______ _______ _____ _____    ______ ____
ROOT
ATOM      1  C   UNL     1       2.418   6.415  19.307  0.00  0.00    +0.000 A 
ATOM      2  C   UNL     1       2.181   7.812  19.050  0.00  0.00    +0.000 A 
ATOM      3  C   UNL     1       2.870   8.341  17.953  0.00  0.00    +0.000 A 
ATOM      4  N   UNL     1       3.684   7.669  17.117  0.00  0.00    +0.000 NA
ATOM      5  C   UNL     1       3.881   6.365  17.361  0.00  0.00    +0.000 A 
ATOM      6  N   UNL     1       4.760   5.788  16.443  0.00  0.00    +0.000 N 
ATOM      7  C   UNL     1       3.306   5.655  18.446  0.00  0.00    +0.000 A 
ATOM      8  H   UNL     1       4.966   6.500  15.748  0.00  0.00    +0.000 HD
ATOM      9  H   UNL     1       4.375   4.944  16.037  0.00  0.00    +0.000 HD
ENDROOT
BRANCH   2  10
ATOM     10  C   UNL     1       1.301   8.748  19.834  0.00  0.00    +0.000 A 
ATOM     11  C   UNL     1       0.561   9.779  19.203  0.00  0.00    +0.000 A 
ATOM     12  C   UNL     1      -0.246  10.699  19.910  0.00  0.00    +0.000 A 
ATOM     13  C   UNL     1      -0.382  10.548  21.297  0.00  0.00    +0.000 A 
ATOM     14  C   UNL     1      -1.065  11.189  22.355  0.00  0.00    +0.000 A 
ATOM     15  N   UNL     1      -0.861  10.601  23.542  0.00  0.00    +0.000 NA
ATOM     16  N   UNL     1      -0.031   9.591  23.239  0.00  0.00    +0.000 N 
ATOM     17  C   UNL     1       0.324   9.535  21.917  0.00  0.00    +0.000 A 
ATOM     18  C   UNL     1       1.192   8.682  21.235  0.00  0.00    +0.000 A 
ATOM     19  H   UNL     1       0.255   8.960  23.980  0.00  0.00    +0.000 HD
ENDBRANCH   2  10
BRANCH   7  20
ATOM     20  C   UNL     1       3.660   4.201  18.656  0.00  0.00    +0.000 A 
ATOM     21  C   UNL     1       3.158   3.192  17.802  0.00  0.00    +0.000 A 
ATOM     22  C   UNL     1       3.436   1.830  17.998  0.00  0.00    +0.000 A 
ATOM     23  C   UNL     1       4.309   1.453  19.005  0.00  0.00    +0.000 A 
ATOM     24  C   UNL     1       4.848   2.408  19.849  0.00  0.00    +0.000 A 
ATOM     25  C   UNL     1       4.465   3.750  19.717  0.00  0.00    +0.000 A 
BRANCH  23  26
ATOM     26  O   UNL     1       4.644   0.151  19.219  0.00  0.00    +0.000 OA
ATOM     27  H   UNL     1       4.359  -0.372  18.452  0.00  0.00    +0.000 HD
ENDBRANCH  23  26
ENDBRANCH   7  20
BRANCH   1  29
ATOM     28  C   UNL     1       0.846   4.589  20.148  0.00  0.00    +0.000 C 
ATOM     29  C   UNL     1       1.759   5.756  20.514  0.00  0.00    +0.000 C 
ENDBRANCH   1  29
TORSDOF 4
ENDMDL
MODEL 4
REMARK VINA RESULT:      -7.6      4.259      9.047
REMARK  Name = 
REMARK  5 active torsions:
REMARK  status: ('A' for Active; 'I' for Inactive)
REMARK    1  A    between atoms: C_1  and  C_2
REMARK    2  A    between atoms: C_2  and  C_3
REMARK    3  A    between atoms: C_4  and  C_5
REMARK    4  A    between atoms: C_18  and  C_19
REMARK    5  A    between atoms: C_22  and  O_23
REMARK                            x       y       z     vdW  Elec       q    Type
REMARK                         _______ _______ _______ _____ _____    ______ ____
ROOT
ATOM      1  C   UNL     1      -0.638  11.078  20.799  0.00  0.00    +0.000 A 
ATOM      2  C   UNL     1      -0.376  10.445  19.532  0.00  0.00    +0.000 A 
ATOM      3  C   UNL     1      -1.222  10.832  18.486  0.00  0.00    +0.000 A 
ATOM      4  N   UNL     1      -2.209  11.746  18.550  0.00  0.00    +0.000 NA
ATOM      5  C   UNL     1      -2.430  12.337  19.734  0.00  0.00    +0.000 A 
ATOM      6  N   UNL     1      -3.491  13.242  19.676  0.00  0.00    +0.000 N 
ATOM      7  C   UNL     1      -1.707  12.052  20.921  0.00  0.00    +0.000 A 
ATOM      8  H   UNL     1      -3.779  13.293  18.703  0.00  0.00    +0.000 HD
ATOM      9  H   UNL     1      -3.231  14.144  20.055  0.00  0.00    +0.000 HD
ENDROOT
BRANCH   2  10
ATOM     10  C   UNL     1       0.682   9.419  19.225  0.00  0.00    +0.000 A 
ATOM     11  C   UNL     1       1.432   9.458  18.024  0.00  0.00    +0.000 A 
ATOM     12  C   UNL     1       2.405   8.491  17.686  0.00  0.00    +0.000 A 
ATOM     13  C   UNL     1       2.699   7.479  18.611  0.00  0.00    +0.000 A 
ATOM     14  C   UNL     1       3.568   6.368  18.703  0.00  0.00    +0.000 A 
ATOM     15  N   UNL     1       3.459   5.713  19.866  0.00  0.00    +0.000 NA
ATOM     16  N   UNL     1       2.504   6.401  20.511  0.00  0.00    +0.000 N 
ATOM     17  C   UNL     1       1.982   7.444  19.791  0.00  0.00    +0.000 A 
ATOM     18  C   UNL     1       0.958   8.343  20.088  0.00  0.00    +0.000 A 
ATOM     19  H   UNL     1       2.254   6.117  21.452  0.00  0.00    +0.000 HD
ENDBRANCH   2  10
BRANCH   7  20
ATOM     20  C   UNL     1      -2.096  12.735  22.211  0.00  0.00    +0.000 A 
ATOM     21  C   UNL     1      -1.343  13.815  22.727  0.00  0.00    +0.000 A 
ATOM     22  C   UNL     1      -1.656  14.440  23.944  0.00  0.00    +0.000 A 
ATOM     23  C   UNL     1      -2.797  14.059  24.629  0.00  0.00    +0.000 A 
ATOM     24  C   UNL     1      -3.582  13.027  24.149  0.00  0.00    +0.000 A 
ATOM     25  C   UNL     1      -3.190  12.331  22.997  0.00  0.00    +0.000 A 
BRANCH  23  26
ATOM     26  O   UNL     1      -3.170  14.655  25.795  0.00  0.00    +0.000 OA
ATOM     27  H   UNL     1      -3.966  14.209  26.130  0.00  0.00    +0.000 HD
ENDBRANCH  23  26
ENDBRANCH   7  20
BRANCH   1  29
ATOM     28  C   UNL     1      -0.536   9.739  22.968  0.00  0.00    +0.000 C 
ATOM     29  C   UNL     1       0.191  10.683  22.016  0.00  0.00    +0.000 C 
ENDBRANCH   1  29
TORSDOF 4
ENDMDL
MODEL 5
REMARK VINA RESULT:      -7.6      3.715      8.429
REMARK  Name = 
REMARK  5 active torsions:
REMARK  status: ('A' for Active; 'I' for Inactive)
REMARK    1  A    between atoms: C_1  and  C_2
REMARK    2  A    between atoms: C_2  and  C_3
REMARK    3  A    between atoms: C_4  and  C_5
REMARK    4  A    between atoms: C_18  and  C_19
REMARK    5  A    between atoms: C_22  and  O_23
REMARK                            x       y       z     vdW  Elec       q    Type
REMARK                         _______ _______ _______ _____ _____    ______ ____
ROOT
ATOM      1  C   UNL     1       1.489   8.773  19.078  0.00  0.00    +0.000 A 
ATOM      2  C   UNL     1       2.095   7.490  19.326  0.00  0.00    +0.000 A 
ATOM      3  C   UNL     1       1.876   6.964  20.605  0.00  0.00    +0.000 A 
ATOM      4  N   UNL     1       1.139   7.521  21.585  0.00  0.00    +0.000 NA
ATOM      5  C   UNL     1       0.569   8.709  21.332  0.00  0.00    +0.000 A 
ATOM      6  N   UNL     1      -0.144   9.191  22.431  0.00  0.00    +0.000 N 
ATOM      7  C   UNL     1       0.705   9.422  20.113  0.00  0.00    +0.000 A 
ATOM      8  H   UNL     1      -0.126   8.458  23.135  0.00  0.00    +0.000 HD
ATOM      9  H   UNL     1      -1.085   9.464  22.173  0.00  0.00    +0.000 HD
ENDROOT
BRANCH   2  10
ATOM     10  C   UNL     1       2.935   6.678  18.377  0.00  0.00    +0.000 A 
ATOM     11  C   UNL     1       2.694   5.299  18.160  0.00  0.00    +0.000 A 
ATOM     12  C   UNL     1       3.485   4.498  17.307  0.00  0.00    +0.000 A 
ATOM     13  C   UNL     1       4.520   5.105  16.581  0.00  0.00    +0.000 A 
ATOM     14  C   UNL     1       5.503   4.719  15.642  0.00  0.00    +0.000 A 
ATOM     15  N   UNL     1       6.260   5.743  15.226  0.00  0.00    +0.000 NA
ATOM     16  N   UNL     1       5.767   6.783  15.917  0.00  0.00    +0.000 N 
ATOM     17  C   UNL     1       4.751   6.453  16.775  0.00  0.00    +0.000 A 
ATOM     18  C   UNL     1       4.030   7.227  17.685  0.00  0.00    +0.000 A 
ATOM     19  H   UNL     1       6.159   7.704  15.753  0.00  0.00    +0.000 HD
ENDBRANCH   2  10
BRANCH   7  20
ATOM     20  C   UNL     1       0.071  10.786  19.974  0.00  0.00    +0.000 A 
ATOM     21  C   UNL     1      -1.152  10.961  19.286  0.00  0.00    +0.000 A 
ATOM     22  C   UNL     1      -1.743  12.221  19.105  0.00  0.00    +0.000 A 
ATOM     23  C   UNL     1      -1.166  13.332  19.697  0.00  0.00    +0.000 A 
ATOM     24  C   UNL     1       0.016  13.207  20.403  0.00  0.00    +0.000 A 
ATOM     25  C   UNL     1       0.658  11.963  20.472  0.00  0.00    +0.000 A 
BRANCH  23  26
ATOM     26  O   UNL     1      -1.714  14.574  19.585  0.00  0.00    +0.000 OA
ATOM     27  H   UNL     1      -1.985  14.711  18.663  0.00  0.00    +0.000 HD
ENDBRANCH  23  26
ENDBRANCH   7  20
BRANCH   1  29
ATOM     28  C   UNL     1       2.574  10.715  17.829  0.00  0.00    +0.000 C 
ATOM     29  C   UNL     1       1.715   9.458  17.735  0.00  0.00    +0.000 C 
ENDBRANCH   1  29
TORSDOF 4
ENDMDL
MODEL 6
REMARK VINA RESULT:      -7.5      2.662      3.487
REMARK  Name = 
REMARK  5 active torsions:
REMARK  status: ('A' for Active; 'I' for Inactive)
REMARK    1  A    between atoms: C_1  and  C_2
REMARK    2  A    between atoms: C_2  and  C_3
REMARK    3  A    between atoms: C_4  and  C_5
REMARK    4  A    between atoms: C_18  and  C_19
REMARK    5  A    between atoms: C_22  and  O_23
REMARK                            x       y       z     vdW  Elec       q    Type
REMARK                         _______ _______ _______ _____ _____    ______ ____
ROOT
ATOM      1  C   UNL     1       3.116   6.639  19.147  0.00  0.00    +0.000 A 
ATOM      2  C   UNL     1       2.106   6.712  20.171  0.00  0.00    +0.000 A 
ATOM      3  C   UNL     1       1.833   5.506  20.826  0.00  0.00    +0.000 A 
ATOM      4  N   UNL     1       2.439   4.322  20.612  0.00  0.00    +0.000 NA
ATOM      5  C   UNL     1       3.388   4.275  19.665  0.00  0.00    +0.000 A 
ATOM      6  N   UNL     1       3.921   2.994  19.523  0.00  0.00    +0.000 N 
ATOM      7  C   UNL     1       3.781   5.380  18.866  0.00  0.00    +0.000 A 
ATOM      8  H   UNL     1       3.508   2.422  20.255  0.00  0.00    +0.000 HD
ATOM      9  H   UNL     1       4.933   3.005  19.560  0.00  0.00    +0.000 HD
ENDROOT
BRANCH   2  10
ATOM     10  C   UNL     1       1.318   7.924  20.592  0.00  0.00    +0.000 A 
ATOM     11  C   UNL     1       0.949   8.931  19.667  0.00  0.00    +0.000 A 
ATOM     12  C   UNL     1       0.243  10.099  20.033  0.00  0.00    +0.000 A 
ATOM     13  C   UNL     1      -0.179  10.243  21.363  0.00  0.00    +0.000 A 
ATOM     14  C   UNL     1      -0.893  11.186  22.136  0.00  0.00    +0.000 A 
ATOM     15  N   UNL     1      -1.046  10.808  23.412  0.00  0.00    +0.000 NA
ATOM     16  N   UNL     1      -0.412   9.626  23.454  0.00  0.00    +0.000 N 
ATOM     17  C   UNL     1       0.163   9.256  22.267  0.00  0.00    +0.000 A 
ATOM     18  C   UNL     1       0.938   8.146  21.928  0.00  0.00    +0.000 A 
ATOM     19  H   UNL     1      -0.413   9.106  24.326  0.00  0.00    +0.000 HD
ENDBRANCH   2  10
BRANCH   7  20
ATOM     20  C   UNL     1       4.815   5.184  17.782  0.00  0.00    +0.000 A 
ATOM     21  C   UNL     1       4.455   4.701  16.503  0.00  0.00    +0.000 A 
ATOM     22  C   UNL     1       5.400   4.471  15.491  0.00  0.00    +0.000 A 
ATOM     23  C   UNL     1       6.724   4.812  15.707  0.00  0.00    +0.000 A 
ATOM     24  C   UNL     1       7.120   5.314  16.934  0.00  0.00    +0.000 A 
ATOM     25  C   UNL     1       6.187   5.425  17.974  0.00  0.00    +0.000 A 
BRANCH  23  26
ATOM     26  O   UNL     1       7.678   4.644  14.750  0.00  0.00    +0.000 OA
ATOM     27  H   UNL     1       8.091   5.504  14.570  0.00  0.00    +0.000 HD
ENDBRANCH  23  26
ENDBRANCH   7  20
BRANCH   1  29
ATOM     28  C   UNL     1       2.603   8.035  17.074  0.00  0.00    +0.000 C 
ATOM     29  C   UNL     1       3.447   7.886  18.336  0.00  0.00    +0.000 C 
ENDBRANCH   1  29
TORSDOF 4
ENDMDL
MODEL 7
REMARK VINA RESULT:      -7.4      4.055      8.764
REMARK  Name = 
REMARK  5 active torsions:
REMARK  status: ('A' for Active; 'I' for Inactive)
REMARK    1  A    between atoms: C_1  and  C_2
REMARK    2  A    between atoms: C_2  and  C_3
REMARK    3  A    between atoms: C_4  and  C_5
REMARK    4  A    between atoms: C_18  and  C_19
REMARK    5  A    between atoms: C_22  and  O_23
REMARK                            x       y       z     vdW  Elec       q    Type
REMARK                         _______ _______ _______ _____ _____    ______ ____
ROOT
ATOM      1  C   UNL     1       0.048  10.700  20.410  0.00  0.00    +0.000 A 
ATOM      2  C   UNL     1       0.265   9.935  19.209  0.00  0.00    +0.000 A 
ATOM      3  C   UNL     1      -0.601  10.229  18.150  0.00  0.00    +0.000 A 
ATOM      4  N   UNL     1      -1.570  11.164  18.143  0.00  0.00    +0.000 NA
ATOM      5  C   UNL     1      -1.749  11.879  19.264  0.00  0.00    +0.000 A 
ATOM      6  N   UNL     1      -2.795  12.794  19.140  0.00  0.00    +0.000 N 
ATOM      7  C   UNL     1      -1.000  11.703  20.456  0.00  0.00    +0.000 A 
ATOM      8  H   UNL     1      -3.108  12.750  18.173  0.00  0.00    +0.000 HD
ATOM      9  H   UNL     1      -2.509  13.726  19.417  0.00  0.00    +0.000 HD
ENDROOT
BRANCH   2  10
ATOM     10  C   UNL     1       1.296   8.861  18.984  0.00  0.00    +0.000 A 
ATOM     11  C   UNL     1       2.143   8.867  17.848  0.00  0.00    +0.000 A 
ATOM     12  C   UNL     1       3.095   7.857  17.585  0.00  0.00    +0.000 A 
ATOM     13  C   UNL     1       3.266   6.831  18.526  0.00  0.00    +0.000 A 
ATOM     14  C   UNL     1       4.072   5.681  18.683  0.00  0.00    +0.000 A 
ATOM     15  N   UNL     1       3.838   5.030  19.830  0.00  0.00    +0.000 NA
ATOM     16  N   UNL     1       2.867   5.761  20.398  0.00  0.00    +0.000 N 
ATOM     17  C   UNL     1       2.454   6.828  19.644  0.00  0.00    +0.000 A 
ATOM     18  C   UNL     1       1.451   7.773  19.861  0.00  0.00    +0.000 A 
ATOM     19  H   UNL     1       2.528   5.487  21.315  0.00  0.00    +0.000 HD
ENDBRANCH   2  10
BRANCH   7  20
ATOM     20  C   UNL     1      -1.342  12.523  21.678  0.00  0.00    +0.000 A 
ATOM     21  C   UNL     1      -2.415  12.165  22.527  0.00  0.00    +0.000 A 
ATOM     22  C   UNL     1      -2.781  12.930  23.644  0.00  0.00    +0.000 A 
ATOM     23  C   UNL     1      -2.016  14.029  23.995  0.00  0.00    +0.000 A 
ATOM     24  C   UNL     1      -0.939  14.404  23.212  0.00  0.00    +0.000 A 
ATOM     25  C   UNL     1      -0.659  13.701  22.032  0.00  0.00    +0.000 A 
BRANCH  23  26
ATOM     26  O   UNL     1      -2.303  14.788  25.089  0.00  0.00    +0.000 OA
ATOM     27  H   UNL     1      -2.936  14.304  25.645  0.00  0.00    +0.000 HD
ENDBRANCH  23  26
ENDBRANCH   7  20
BRANCH   1  29
ATOM     28  C   UNL     1       0.197   9.559  22.686  0.00  0.00    +0.000 C 
ATOM     29  C   UNL     1       0.902  10.417  21.640  0.00  0.00    +0.000 C 
ENDBRANCH   1  29
TORSDOF 4
ENDMDL
MODEL 8
REMARK VINA RESULT:      -7.3      4.011      7.907
REMARK  Name = 
REMARK  5 active torsions:
REMARK  status: ('A' for Active; 'I' for Inactive)
REMARK    1  A    between atoms: C_1  and  C_2
REMARK    2  A    between atoms: C_2  and  C_3
REMARK    3  A    between atoms: C_4  and  C_5
REMARK    4  A    between atoms: C_18  and  C_19
REMARK    5  A    between atoms: C_22  and  O_23
REMARK                            x       y       z     vdW  Elec       q    Type
REMARK                         _______ _______ _______ _____ _____    ______ ____
ROOT
ATOM      1  C   UNL     1       1.119   8.973  19.844  0.00  0.00    +0.000 A 
ATOM      2  C   UNL     1       1.887   8.028  19.075  0.00  0.00    +0.000 A 
ATOM      3  C   UNL     1       2.543   8.561  17.959  0.00  0.00    +0.000 A 
ATOM      4  N   UNL     1       2.549   9.851  17.572  0.00  0.00    +0.000 NA
ATOM      5  C   UNL     1       1.841  10.721  18.309  0.00  0.00    +0.000 A 
ATOM      6  N   UNL     1       1.905  12.016  17.793  0.00  0.00    +0.000 N 
ATOM      7  C   UNL     1       1.077  10.370  19.452  0.00  0.00    +0.000 A 
ATOM      8  H   UNL     1       2.564  11.990  17.019  0.00  0.00    +0.000 HD
ATOM      9  H   UNL     1       2.165  12.687  18.506  0.00  0.00    +0.000 HD
ENDROOT
BRANCH   2  10
ATOM     10  C   UNL     1       2.041   6.553  19.331  0.00  0.00    +0.000 A 
ATOM     11  C   UNL     1       2.209   5.626  18.273  0.00  0.00    +0.000 A 
ATOM     12  C   UNL     1       2.318   4.231  18.474  0.00  0.00    +0.000 A 
ATOM     13  C   UNL     1       2.335   3.739  19.786  0.00  0.00    +0.000 A 
ATOM     14  C   UNL     1       2.442   2.485  20.431  0.00  0.00    +0.000 A 
ATOM     15  N   UNL     1       2.425   2.581  21.767  0.00  0.00    +0.000 NA
ATOM     16  N   UNL     1       2.290   3.900  21.973  0.00  0.00    +0.000 N 
ATOM     17  C   UNL     1       2.189   4.639  20.824  0.00  0.00    +0.000 A 
ATOM     18  C   UNL     1       1.988   6.005  20.626  0.00  0.00    +0.000 A 
ATOM     19  H   UNL     1       2.283   4.243  22.928  0.00  0.00    +0.000 HD
ENDBRANCH   2  10
BRANCH   7  20
ATOM     20  C   UNL     1       0.265  11.430  20.158  0.00  0.00    +0.000 A 
ATOM     21  C   UNL     1      -1.115  11.593  19.898  0.00  0.00    +0.000 A 
ATOM     22  C   UNL     1      -1.885  12.596  20.508  0.00  0.00    +0.000 A 
ATOM     23  C   UNL     1      -1.307  13.403  21.472  0.00  0.00    +0.000 A 
ATOM     24  C   UNL     1       0.034  13.263  21.782  0.00  0.00    +0.000 A 
ATOM     25  C   UNL     1       0.818  12.340  21.077  0.00  0.00    +0.000 A 
BRANCH  23  26
ATOM     26  O   UNL     1      -2.014  14.368  22.123  0.00  0.00    +0.000 OA
ATOM     27  H   UNL     1      -1.710  14.406  23.045  0.00  0.00    +0.000 HD
ENDBRANCH  23  26
ENDBRANCH   7  20
BRANCH   1  29
ATOM     28  C   UNL     1       0.873   8.969  22.383  0.00  0.00    +0.000 C 
ATOM     29  C   UNL     1       0.321   8.483  21.046  0.00  0.00    +0.000 C 
ENDBRANCH   1  29
TORSDOF 4
ENDMDL
MODEL 9
REMARK VINA RESULT:      -7.3      9.025     10.337
REMARK  Name = 
REMARK  5 active torsions:
REMARK  status: ('A' for Active; 'I' for Inactive)
REMARK    1  A    between atoms: C_1  and  C_2
REMARK    2  A    between atoms: C_2  and  C_3
REMARK    3  A    between atoms: C_4  and  C_5
REMARK    4  A    between atoms: C_18  and  C_19
REMARK    5  A    between atoms: C_22  and  O_23
REMARK                            x       y       z     vdW  Elec       q    Type
REMARK                         _______ _______ _______ _____ _____    ______ ____
ROOT
ATOM      1  C   UNL     1       8.405  13.434  21.296  0.00  0.00    +0.000 A 
ATOM      2  C   UNL     1       7.385  13.727  22.270  0.00  0.00    +0.000 A 
ATOM      3  C   UNL     1       6.409  14.640  21.855  0.00  0.00    +0.000 A 
ATOM      4  N   UNL     1       6.322  15.228  20.646  0.00  0.00    +0.000 NA
ATOM      5  C   UNL     1       7.272  14.932  19.746  0.00  0.00    +0.000 A 
ATOM      6  N   UNL     1       7.086  15.620  18.546  0.00  0.00    +0.000 N 
ATOM      7  C   UNL     1       8.365  14.061  19.987  0.00  0.00    +0.000 A 
ATOM      8  H   UNL     1       6.203  16.117  18.627  0.00  0.00    +0.000 HD
ATOM      9  H   UNL     1       7.111  14.994  17.750  0.00  0.00    +0.000 HD
ENDROOT
BRANCH   2  10
ATOM     10  C   UNL     1       7.270  13.175  23.666  0.00  0.00    +0.000 A 
ATOM     11  C   UNL     1       8.025  13.704  24.741  0.00  0.00    +0.000 A 
ATOM     12  C   UNL     1       7.971  13.187  26.055  0.00  0.00    +0.000 A 
ATOM     13  C   UNL     1       7.076  12.145  26.333  0.00  0.00    +0.000 A 
ATOM     14  C   UNL     1       6.689  11.370  27.449  0.00  0.00    +0.000 A 
ATOM     15  N   UNL     1       5.730  10.480  27.162  0.00  0.00    +0.000 NA
ATOM     16  N   UNL     1       5.518  10.678  25.852  0.00  0.00    +0.000 N 
ATOM     17  C   UNL     1       6.324  11.634  25.292  0.00  0.00    +0.000 A 
ATOM     18  C   UNL     1       6.442  12.081  23.976  0.00  0.00    +0.000 A 
ATOM     19  H   UNL     1       4.796  10.135  25.390  0.00  0.00    +0.000 HD
ENDBRANCH   2  10
BRANCH   7  20
ATOM     20  C   UNL     1       9.410  13.862  18.914  0.00  0.00    +0.000 A 
ATOM     21  C   UNL     1      10.459  14.792  18.729  0.00  0.00    +0.000 A 
ATOM     22  C   UNL     1      11.418  14.655  17.714  0.00  0.00    +0.000 A 
ATOM     23  C   UNL     1      11.406  13.523  16.916  0.00  0.00    +0.000 A 
ATOM     24  C   UNL     1      10.416  12.571  17.078  0.00  0.00    +0.000 A 
ATOM     25  C   UNL     1       9.394  12.781  18.014  0.00  0.00    +0.000 A 
BRANCH  23  26
ATOM     26  O   UNL     1      12.333  13.319  15.940  0.00  0.00    +0.000 OA
ATOM     27  H   UNL     1      11.880  12.986  15.148  0.00  0.00    +0.000 HD
ENDBRANCH  23  26
ENDBRANCH   7  20
BRANCH   1  29
ATOM     28  C   UNL     1       9.319  11.054  21.219  0.00  0.00    +0.000 C 
ATOM     29  C   UNL     1       9.545  12.494  21.669  0.00  0.00    +0.000 C 
ENDBRANCH   1  29
TORSDOF 4
ENDMDL
