MODEL 1
REMARK VINA RESULT:      -6.8      0.000      0.000
REMARK  Name = 
REMARK  7 active torsions:
REMARK  status: ('A' for Active; 'I' for Inactive)
REMARK    1  A    between atoms: C_2  and  C_3
REMARK    2  A    between atoms: C_3  and  O_4
REMARK    3  A    between atoms: O_4  and  C_5
REMARK    4  A    between atoms: C_5  and  C_7
REMARK    5  A    between atoms: N_14  and  C_15
REMARK    6  A    between atoms: C_15  and  C_16
REMARK    7  A    between atoms: C_16  and  C_17
REMARK                            x       y       z     vdW  Elec       q    Type
REMARK                         _______ _______ _______ _____ _____    ______ ____
ROOT
ATOM      1  O   UNL     1       1.409   2.488  21.176  0.00  0.00    +0.000 OA
ATOM      2  C   UNL     1       1.339   2.930  20.033  0.00  0.00    +0.000 C 
ATOM      3  N   UNL     1       1.421   4.276  19.731  0.00  0.00    +0.000 N 
ATOM      4  H   UNL     1       1.370   4.553  18.760  0.00  0.00    +0.000 HD
ENDROOT
BRANCH   2   5
ATOM      5  C   UNL     1       1.235   2.029  18.804  0.00  0.00    +0.000 C 
BRANCH   5   6
ATOM      6  O   UNL     1       2.069   2.483  17.730  0.00  0.00    +0.000 OA
BRANCH   6   7
ATOM      7  C   UNL     1       3.380   2.154  17.870  0.00  0.00    +0.000 C 
ATOM      8  O   UNL     1       3.826   1.039  18.067  0.00  0.00    +0.000 OA
BRANCH   7   9
ATOM      9  C   UNL     1       4.221   3.370  17.797  0.00  0.00    +0.000 A 
ATOM     10  C   UNL     1       4.911   3.864  18.913  0.00  0.00    +0.000 A 
ATOM     11  C   UNL     1       5.685   5.022  18.794  0.00  0.00    +0.000 A 
ATOM     12  C   UNL     1       5.771   5.678  17.568  0.00  0.00    +0.000 A 
ATOM     13 BR   UNL     1       6.831   7.235  17.410  0.00  0.00    +0.000 Br
ATOM     14  C   UNL     1       5.078   5.200  16.455  0.00  0.00    +0.000 A 
ATOM     15  C   UNL     1       4.298   4.046  16.572  0.00  0.00    +0.000 A 
ENDBRANCH   7   9
ENDBRANCH   6   7
ENDBRANCH   5   6
ENDBRANCH   2   5
BRANCH   3  16
ATOM     16  C   UNL     1       1.484   5.278  20.774  0.00  0.00    +0.000 C 
BRANCH  16  17
ATOM     17  C   UNL     1       2.607   6.292  20.535  0.00  0.00    +0.000 C 
BRANCH  17  18
ATOM     18  C   UNL     1       2.151   7.496  19.739  0.00  0.00    +0.000 C 
ATOM     19  C   UNL     1       1.378   8.452  20.287  0.00  0.00    +0.000 C 
ATOM     20  C   UNL     1       0.843   9.631  19.525  0.00  0.00    +0.000 C 
ATOM     21  C   UNL     1       0.972   9.468  18.011  0.00  0.00    +0.000 C 
ATOM     22  C   UNL     1       2.349   8.932  17.639  0.00  0.00    +0.000 C 
ATOM     23  C   UNL     1       2.609   7.575  18.299  0.00  0.00    +0.000 C 
ENDBRANCH  17  18
ENDBRANCH  16  17
ENDBRANCH   3  16
TORSDOF 7
ENDMDL
MODEL 2
REMARK VINA RESULT:      -6.8      5.349      7.058
REMARK  Name = 
REMARK  7 active torsions:
REMARK  status: ('A' for Active; 'I' for Inactive)
REMARK    1  A    between atoms: C_2  and  C_3
REMARK    2  A    between atoms: C_3  and  O_4
REMARK    3  A    between atoms: O_4  and  C_5
REMARK    4  A    between atoms: C_5  and  C_7
REMARK    5  A    between atoms: N_14  and  C_15
REMARK    6  A    between atoms: C_15  and  C_16
REMARK    7  A    between atoms: C_16  and  C_17
REMARK                            x       y       z     vdW  Elec       q    Type
REMARK                         _______ _______ _______ _____ _____    ______ ____
ROOT
ATOM      1  O   UNL     1       7.538   5.834  18.515  0.00  0.00    +0.000 OA
ATOM      2  C   UNL     1       7.361   6.391  17.435  0.00  0.00    +0.000 C 
ATOM      3  N   UNL     1       7.776   7.682  17.168  0.00  0.00    +0.000 N 
ATOM      4  H   UNL     1       7.604   8.059  16.245  0.00  0.00    +0.000 HD
ENDROOT
BRANCH   2   5
ATOM      5  C   UNL     1       6.733   5.686  16.235  0.00  0.00    +0.000 C 
BRANCH   5   6
ATOM      6  O   UNL     1       5.551   4.958  16.594  0.00  0.00    +0.000 OA
BRANCH   6   7
ATOM      7  C   UNL     1       4.557   5.732  17.103  0.00  0.00    +0.000 C 
ATOM      8  O   UNL     1       4.319   6.888  16.803  0.00  0.00    +0.000 OA
BRANCH   7   9
ATOM      9  C   UNL     1       3.806   4.984  18.135  0.00  0.00    +0.000 A 
ATOM     10  C   UNL     1       3.435   3.643  17.958  0.00  0.00    +0.000 A 
ATOM     11  C   UNL     1       2.717   2.983  18.958  0.00  0.00    +0.000 A 
ATOM     12  C   UNL     1       2.377   3.657  20.130  0.00  0.00    +0.000 A 
ATOM     13 BR   UNL     1       1.420   2.753  21.487  0.00  0.00    +0.000 Br
ATOM     14  C   UNL     1       2.733   4.993  20.310  0.00  0.00    +0.000 A 
ATOM     15  C   UNL     1       3.445   5.659  19.308  0.00  0.00    +0.000 A 
ENDBRANCH   7   9
ENDBRANCH   6   7
ENDBRANCH   5   6
ENDBRANCH   2   5
BRANCH   3  16
ATOM     16  C   UNL     1       8.356   8.514  18.201  0.00  0.00    +0.000 C 
BRANCH  16  17
ATOM     17  C   UNL     1       8.351   9.997  17.819  0.00  0.00    +0.000 C 
BRANCH  17  18
ATOM     18  C   UNL     1       9.439  10.787  18.514  0.00  0.00    +0.000 C 
ATOM     19  C   UNL     1      10.371  11.466  17.820  0.00  0.00    +0.000 C 
ATOM     20  C   UNL     1      11.509  12.209  18.459  0.00  0.00    +0.000 C 
ATOM     21  C   UNL     1      11.707  11.845  19.930  0.00  0.00    +0.000 C 
ATOM     22  C   UNL     1      10.370  11.803  20.662  0.00  0.00    +0.000 C 
ATOM     23  C   UNL     1       9.427  10.777  20.028  0.00  0.00    +0.000 C 
ENDBRANCH  17  18
ENDBRANCH  16  17
ENDBRANCH   3  16
TORSDOF 7
ENDMDL
MODEL 3
REMARK VINA RESULT:      -6.8      5.361      6.919
REMARK  Name = 
REMARK  7 active torsions:
REMARK  status: ('A' for Active; 'I' for Inactive)
REMARK    1  A    between atoms: C_2  and  C_3
REMARK    2  A    between atoms: C_3  and  O_4
REMARK    3  A    between atoms: O_4  and  C_5
REMARK    4  A    between atoms: C_5  and  C_7
REMARK    5  A    between atoms: N_14  and  C_15
REMARK    6  A    between atoms: C_15  and  C_16
REMARK    7  A    between atoms: C_16  and  C_17
REMARK                            x       y       z     vdW  Elec       q    Type
REMARK                         _______ _______ _______ _____ _____    ______ ____
ROOT
ATOM      1  O   UNL     1       7.663   5.796  18.480  0.00  0.00    +0.000 OA
ATOM      2  C   UNL     1       7.443   6.352  17.408  0.00  0.00    +0.000 C 
ATOM      3  N   UNL     1       7.704   7.689  17.177  0.00  0.00    +0.000 N 
ATOM      4  H   UNL     1       7.508   8.063  16.258  0.00  0.00    +0.000 HD
ENDROOT
BRANCH   2   5
ATOM      5  C   UNL     1       6.932   5.603  16.178  0.00  0.00    +0.000 C 
BRANCH   5   6
ATOM      6  O   UNL     1       5.685   4.942  16.429  0.00  0.00    +0.000 OA
BRANCH   6   7
ATOM      7  C   UNL     1       4.687   5.774  16.827  0.00  0.00    +0.000 C 
ATOM      8  O   UNL     1       4.497   6.910  16.435  0.00  0.00    +0.000 OA
BRANCH   7   9
ATOM      9  C   UNL     1       3.862   5.119  17.865  0.00  0.00    +0.000 A 
ATOM     10  C   UNL     1       3.924   5.498  19.214  0.00  0.00    +0.000 A 
ATOM     11  C   UNL     1       3.131   4.841  20.158  0.00  0.00    +0.000 A 
ATOM     12  C   UNL     1       2.278   3.815  19.757  0.00  0.00    +0.000 A 
ATOM     13 BR   UNL     1       1.195   2.941  21.036  0.00  0.00    +0.000 Br
ATOM     14  C   UNL     1       2.217   3.424  18.419  0.00  0.00    +0.000 A 
ATOM     15  C   UNL     1       3.014   4.074  17.473  0.00  0.00    +0.000 A 
ENDBRANCH   7   9
ENDBRANCH   6   7
ENDBRANCH   5   6
ENDBRANCH   2   5
BRANCH   3  16
ATOM     16  C   UNL     1       8.156   8.561  18.240  0.00  0.00    +0.000 C 
BRANCH  16  17
ATOM     17  C   UNL     1       8.379   9.997  17.754  0.00  0.00    +0.000 C 
BRANCH  17  18
ATOM     18  C   UNL     1       9.428  10.733  18.559  0.00  0.00    +0.000 C 
ATOM     19  C   UNL     1       9.350  10.830  19.899  0.00  0.00    +0.000 C 
ATOM     20  C   UNL     1      10.325  11.604  20.738  0.00  0.00    +0.000 C 
ATOM     21  C   UNL     1      11.206  12.543  19.913  0.00  0.00    +0.000 C 
ATOM     22  C   UNL     1      11.725  11.839  18.665  0.00  0.00    +0.000 C 
ATOM     23  C   UNL     1      10.570  11.355  17.785  0.00  0.00    +0.000 C 
ENDBRANCH  17  18
ENDBRANCH  16  17
ENDBRANCH   3  16
TORSDOF 7
ENDMDL
MODEL 4
REMARK VINA RESULT:      -6.7      5.159      6.869
REMARK  Name = 
REMARK  7 active torsions:
REMARK  status: ('A' for Active; 'I' for Inactive)
REMARK    1  A    between atoms: C_2  and  C_3
REMARK    2  A    between atoms: C_3  and  O_4
REMARK    3  A    between atoms: O_4  and  C_5
REMARK    4  A    between atoms: C_5  and  C_7
REMARK    5  A    between atoms: N_14  and  C_15
REMARK    6  A    between atoms: C_15  and  C_16
REMARK    7  A    between atoms: C_16  and  C_17
REMARK                            x       y       z     vdW  Elec       q    Type
REMARK                         _______ _______ _______ _____ _____    ______ ____
ROOT
ATOM      1  O   UNL     1       7.608   5.711  18.392  0.00  0.00    +0.000 OA
ATOM      2  C   UNL     1       7.286   6.337  17.387  0.00  0.00    +0.000 C 
ATOM      3  N   UNL     1       7.607   7.666  17.183  0.00  0.00    +0.000 N 
ATOM      4  H   UNL     1       7.316   8.101  16.317  0.00  0.00    +0.000 HD
ENDROOT
BRANCH   2   5
ATOM      5  C   UNL     1       6.562   5.690  16.207  0.00  0.00    +0.000 C 
BRANCH   5   6
ATOM      6  O   UNL     1       5.169   6.023  16.181  0.00  0.00    +0.000 OA
BRANCH   6   7
ATOM      7  C   UNL     1       4.387   5.195  16.922  0.00  0.00    +0.000 C 
ATOM      8  O   UNL     1       4.304   3.986  16.803  0.00  0.00    +0.000 OA
BRANCH   7   9
ATOM      9  C   UNL     1       3.590   5.978  17.891  0.00  0.00    +0.000 A 
ATOM     10  C   UNL     1       3.255   7.321  17.666  0.00  0.00    +0.000 A 
ATOM     11  C   UNL     1       2.508   8.020  18.617  0.00  0.00    +0.000 A 
ATOM     12  C   UNL     1       2.095   7.380  19.784  0.00  0.00    +0.000 A 
ATOM     13 BR   UNL     1       1.071   8.327  21.060  0.00  0.00    +0.000 Br
ATOM     14  C   UNL     1       2.433   6.048  20.022  0.00  0.00    +0.000 A 
ATOM     15  C   UNL     1       3.186   5.347  19.075  0.00  0.00    +0.000 A 
ENDBRANCH   7   9
ENDBRANCH   6   7
ENDBRANCH   5   6
ENDBRANCH   2   5
BRANCH   3  16
ATOM     16  C   UNL     1       8.258   8.449  18.211  0.00  0.00    +0.000 C 
BRANCH  16  17
ATOM     17  C   UNL     1       8.296   9.940  17.865  0.00  0.00    +0.000 C 
BRANCH  17  18
ATOM     18  C   UNL     1       9.383  10.688  18.607  0.00  0.00    +0.000 C 
ATOM     19  C   UNL     1       9.378  10.792  19.949  0.00  0.00    +0.000 C 
ATOM     20  C   UNL     1      10.394  11.578  20.728  0.00  0.00    +0.000 C 
ATOM     21  C   UNL     1      11.221  12.517  19.850  0.00  0.00    +0.000 C 
ATOM     22  C   UNL     1      11.675  11.808  18.579  0.00  0.00    +0.000 C 
ATOM     23  C   UNL     1      10.477  11.312  17.767  0.00  0.00    +0.000 C 
ENDBRANCH  17  18
ENDBRANCH  16  17
ENDBRANCH   3  16
TORSDOF 7
ENDMDL
MODEL 5
REMARK VINA RESULT:      -6.7      5.205      6.738
REMARK  Name = 
REMARK  7 active torsions:
REMARK  status: ('A' for Active; 'I' for Inactive)
REMARK    1  A    between atoms: C_2  and  C_3
REMARK    2  A    between atoms: C_3  and  O_4
REMARK    3  A    between atoms: O_4  and  C_5
REMARK    4  A    between atoms: C_5  and  C_7
REMARK    5  A    between atoms: N_14  and  C_15
REMARK    6  A    between atoms: C_15  and  C_16
REMARK    7  A    between atoms: C_16  and  C_17
REMARK                            x       y       z     vdW  Elec       q    Type
REMARK                         _______ _______ _______ _____ _____    ______ ____
ROOT
ATOM      1  O   UNL     1       8.131   5.474  19.479  0.00  0.00    +0.000 OA
ATOM      2  C   UNL     1       7.718   5.798  18.370  0.00  0.00    +0.000 C 
ATOM      3  N   UNL     1       7.789   7.087  17.877  0.00  0.00    +0.000 N 
ATOM      4  H   UNL     1       7.438   7.263  16.945  0.00  0.00    +0.000 HD
ENDROOT
BRANCH   2   5
ATOM      5  C   UNL     1       7.151   4.789  17.373  0.00  0.00    +0.000 C 
BRANCH   5   6
ATOM      6  O   UNL     1       6.247   5.399  16.442  0.00  0.00    +0.000 OA
BRANCH   6   7
ATOM      7  C   UNL     1       5.318   4.548  15.934  0.00  0.00    +0.000 C 
ATOM      8  O   UNL     1       5.290   4.105  14.801  0.00  0.00    +0.000 OA
BRANCH   7   9
ATOM      9  C   UNL     1       4.284   4.256  16.951  0.00  0.00    +0.000 A 
ATOM     10  C   UNL     1       3.968   2.944  17.334  0.00  0.00    +0.000 A 
ATOM     11  C   UNL     1       2.977   2.720  18.293  0.00  0.00    +0.000 A 
ATOM     12  C   UNL     1       2.309   3.800  18.869  0.00  0.00    +0.000 A 
ATOM     13 BR   UNL     1       0.980   3.491  20.177  0.00  0.00    +0.000 Br
ATOM     14  C   UNL     1       2.609   5.107  18.486  0.00  0.00    +0.000 A 
ATOM     15  C   UNL     1       3.596   5.335  17.522  0.00  0.00    +0.000 A 
ENDBRANCH   7   9
ENDBRANCH   6   7
ENDBRANCH   5   6
ENDBRANCH   2   5
BRANCH   3  16
ATOM     16  C   UNL     1       8.262   8.181  18.699  0.00  0.00    +0.000 C 
BRANCH  16  17
ATOM     17  C   UNL     1       8.370   9.490  17.912  0.00  0.00    +0.000 C 
BRANCH  17  18
ATOM     18  C   UNL     1       9.313  10.485  18.554  0.00  0.00    +0.000 C 
ATOM     19  C   UNL     1       9.952  11.421  17.827  0.00  0.00    +0.000 C 
ATOM     20  C   UNL     1      10.947  12.387  18.402  0.00  0.00    +0.000 C 
ATOM     21  C   UNL     1      11.419  11.994  19.802  0.00  0.00    +0.000 C 
ATOM     22  C   UNL     1      10.241  11.567  20.670  0.00  0.00    +0.000 C 
ATOM     23  C   UNL     1       9.502  10.378  20.051  0.00  0.00    +0.000 C 
ENDBRANCH  17  18
ENDBRANCH  16  17
ENDBRANCH   3  16
TORSDOF 7
ENDMDL
MODEL 6
REMARK VINA RESULT:      -6.6      2.555      5.487
REMARK  Name = 
REMARK  7 active torsions:
REMARK  status: ('A' for Active; 'I' for Inactive)
REMARK    1  A    between atoms: C_2  and  C_3
REMARK    2  A    between atoms: C_3  and  O_4
REMARK    3  A    between atoms: O_4  and  C_5
REMARK    4  A    between atoms: C_5  and  C_7
REMARK    5  A    between atoms: N_14  and  C_15
REMARK    6  A    between atoms: C_15  and  C_16
REMARK    7  A    between atoms: C_16  and  C_17
REMARK                            x       y       z     vdW  Elec       q    Type
REMARK                         _______ _______ _______ _____ _____    ______ ____
ROOT
ATOM      1  O   UNL     1       2.412   3.634  16.705  0.00  0.00    +0.000 OA
ATOM      2  C   UNL     1       3.315   3.439  17.514  0.00  0.00    +0.000 C 
ATOM      3  N   UNL     1       4.655   3.454  17.175  0.00  0.00    +0.000 N 
ATOM      4  H   UNL     1       5.335   3.299  17.908  0.00  0.00    +0.000 HD
ENDROOT
BRANCH   2   5
ATOM      5  C   UNL     1       3.059   3.239  19.006  0.00  0.00    +0.000 C 
BRANCH   5   6
ATOM      6  O   UNL     1       2.584   4.435  19.637  0.00  0.00    +0.000 OA
BRANCH   6   7
ATOM      7  C   UNL     1       3.465   5.469  19.598  0.00  0.00    +0.000 C 
ATOM      8  O   UNL     1       4.667   5.397  19.772  0.00  0.00    +0.000 OA
BRANCH   7   9
ATOM      9  C   UNL     1       2.748   6.740  19.357  0.00  0.00    +0.000 A 
ATOM     10  C   UNL     1       2.824   7.415  18.130  0.00  0.00    +0.000 A 
ATOM     11  C   UNL     1       2.136   8.618  17.954  0.00  0.00    +0.000 A 
ATOM     12  C   UNL     1       1.373   9.141  18.997  0.00  0.00    +0.000 A 
ATOM     13 BR   UNL     1       0.431  10.761  18.749  0.00  0.00    +0.000 Br
ATOM     14  C   UNL     1       1.300   8.482  20.224  0.00  0.00    +0.000 A 
ATOM     15  C   UNL     1       1.993   7.282  20.405  0.00  0.00    +0.000 A 
ENDBRANCH   7   9
ENDBRANCH   6   7
ENDBRANCH   5   6
ENDBRANCH   2   5
BRANCH   3  16
ATOM     16  C   UNL     1       5.081   3.592  15.799  0.00  0.00    +0.000 C 
BRANCH  16  17
ATOM     17  C   UNL     1       6.543   4.037  15.689  0.00  0.00    +0.000 C 
BRANCH  17  18
ATOM     18  C   UNL     1       6.907   5.112  16.689  0.00  0.00    +0.000 C 
ATOM     19  C   UNL     1       6.481   6.381  16.548  0.00  0.00    +0.000 C 
ATOM     20  C   UNL     1       6.868   7.499  17.473  0.00  0.00    +0.000 C 
ATOM     21  C   UNL     1       8.045   7.140  18.380  0.00  0.00    +0.000 C 
ATOM     22  C   UNL     1       7.872   5.744  18.965  0.00  0.00    +0.000 C 
ATOM     23  C   UNL     1       7.770   4.691  17.859  0.00  0.00    +0.000 C 
ENDBRANCH  17  18
ENDBRANCH  16  17
ENDBRANCH   3  16
TORSDOF 7
ENDMDL
MODEL 7
REMARK VINA RESULT:      -6.5      3.472      5.430
REMARK  Name = 
REMARK  7 active torsions:
REMARK  status: ('A' for Active; 'I' for Inactive)
REMARK    1  A    between atoms: C_2  and  C_3
REMARK    2  A    between atoms: C_3  and  O_4
REMARK    3  A    between atoms: O_4  and  C_5
REMARK    4  A    between atoms: C_5  and  C_7
REMARK    5  A    between atoms: N_14  and  C_15
REMARK    6  A    between atoms: C_15  and  C_16
REMARK    7  A    between atoms: C_16  and  C_17
REMARK                            x       y       z     vdW  Elec       q    Type
REMARK                         _______ _______ _______ _____ _____    ______ ____
ROOT
ATOM      1  O   UNL     1       5.562   4.152  19.545  0.00  0.00    +0.000 OA
ATOM      2  C   UNL     1       6.095   5.018  18.858  0.00  0.00    +0.000 C 
ATOM      3  N   UNL     1       5.447   6.165  18.443  0.00  0.00    +0.000 N 
ATOM      4  H   UNL     1       5.967   6.836  17.892  0.00  0.00    +0.000 HD
ENDROOT
BRANCH   2   5
ATOM      5  C   UNL     1       7.567   4.962  18.453  0.00  0.00    +0.000 C 
BRANCH   5   6
ATOM      6  O   UNL     1       7.739   4.516  17.102  0.00  0.00    +0.000 OA
BRANCH   6   7
ATOM      7  C   UNL     1       7.485   5.470  16.168  0.00  0.00    +0.000 C 
ATOM      8  O   UNL     1       7.708   6.661  16.277  0.00  0.00    +0.000 OA
BRANCH   7   9
ATOM      9  C   UNL     1       6.842   4.863  14.981  0.00  0.00    +0.000 A 
ATOM     10  C   UNL     1       7.476   4.822  13.732  0.00  0.00    +0.000 A 
ATOM     11  C   UNL     1       6.822   4.247  12.639  0.00  0.00    +0.000 A 
ATOM     12  C   UNL     1       5.545   3.712  12.796  0.00  0.00    +0.000 A 
ATOM     13 BR   UNL     1       4.671   2.921  11.318  0.00  0.00    +0.000 Br
ATOM     14  C   UNL     1       4.902   3.759  14.033  0.00  0.00    +0.000 A 
ATOM     15  C   UNL     1       5.551   4.340  15.127  0.00  0.00    +0.000 A 
ENDBRANCH   7   9
ENDBRANCH   6   7
ENDBRANCH   5   6
ENDBRANCH   2   5
BRANCH   3  16
ATOM     16  C   UNL     1       4.038   6.369  18.703  0.00  0.00    +0.000 C 
BRANCH  16  17
ATOM     17  C   UNL     1       3.152   5.677  17.662  0.00  0.00    +0.000 C 
BRANCH  17  18
ATOM     18  C   UNL     1       2.499   4.418  18.189  0.00  0.00    +0.000 C 
ATOM     19  C   UNL     1       1.600   4.456  19.190  0.00  0.00    +0.000 C 
ATOM     20  C   UNL     1       0.973   3.233  19.795  0.00  0.00    +0.000 C 
ATOM     21  C   UNL     1       1.694   1.942  19.408  0.00  0.00    +0.000 C 
ATOM     22  C   UNL     1       2.017   1.927  17.919  0.00  0.00    +0.000 C 
ATOM     23  C   UNL     1       2.904   3.115  17.536  0.00  0.00    +0.000 C 
ENDBRANCH  17  18
ENDBRANCH  16  17
ENDBRANCH   3  16
TORSDOF 7
ENDMDL
MODEL 8
REMARK VINA RESULT:      -6.5      5.189      6.502
REMARK  Name = 
REMARK  7 active torsions:
REMARK  status: ('A' for Active; 'I' for Inactive)
REMARK    1  A    between atoms: C_2  and  C_3
REMARK    2  A    between atoms: C_3  and  O_4
REMARK    3  A    between atoms: O_4  and  C_5
REMARK    4  A    between atoms: C_5  and  C_7
REMARK    5  A    between atoms: N_14  and  C_15
REMARK    6  A    between atoms: C_15  and  C_16
REMARK    7  A    between atoms: C_16  and  C_17
REMARK                            x       y       z     vdW  Elec       q    Type
REMARK                         _______ _______ _______ _____ _____    ______ ____
ROOT
ATOM      1  O   UNL     1       7.567   5.647  19.830  0.00  0.00    +0.000 OA
ATOM      2  C   UNL     1       7.514   5.832  18.618  0.00  0.00    +0.000 C 
ATOM      3  N   UNL     1       7.947   6.993  18.006  0.00  0.00    +0.000 N 
ATOM      4  H   UNL     1       7.882   7.056  16.998  0.00  0.00    +0.000 HD
ENDROOT
BRANCH   2   5
ATOM      5  C   UNL     1       7.038   4.761  17.639  0.00  0.00    +0.000 C 
BRANCH   5   6
ATOM      6  O   UNL     1       6.245   5.312  16.580  0.00  0.00    +0.000 OA
BRANCH   6   7
ATOM      7  C   UNL     1       5.318   4.454  16.078  0.00  0.00    +0.000 C 
ATOM      8  O   UNL     1       5.311   3.978  14.958  0.00  0.00    +0.000 OA
BRANCH   7   9
ATOM      9  C   UNL     1       4.261   4.201  17.082  0.00  0.00    +0.000 A 
ATOM     10  C   UNL     1       3.951   2.906  17.523  0.00  0.00    +0.000 A 
ATOM     11  C   UNL     1       2.937   2.718  18.466  0.00  0.00    +0.000 A 
ATOM     12  C   UNL     1       2.241   3.817  18.967  0.00  0.00    +0.000 A 
ATOM     13 BR   UNL     1       0.881   3.558  20.254  0.00  0.00    +0.000 Br
ATOM     14  C   UNL     1       2.536   5.107  18.526  0.00  0.00    +0.000 A 
ATOM     15  C   UNL     1       3.545   5.298  17.577  0.00  0.00    +0.000 A 
ENDBRANCH   7   9
ENDBRANCH   6   7
ENDBRANCH   5   6
ENDBRANCH   2   5
BRANCH   3  16
ATOM     16  C   UNL     1       8.395   8.131  18.782  0.00  0.00    +0.000 C 
BRANCH  16  17
ATOM     17  C   UNL     1       8.369   9.430  17.971  0.00  0.00    +0.000 C 
BRANCH  17  18
ATOM     18  C   UNL     1       9.088  10.568  18.662  0.00  0.00    +0.000 C 
ATOM     19  C   UNL     1       9.489  10.475  19.944  0.00  0.00    +0.000 C 
ATOM     20  C   UNL     1      10.145  11.597  20.696  0.00  0.00    +0.000 C 
ATOM     21  C   UNL     1      10.009  12.946  19.990  0.00  0.00    +0.000 C 
ATOM     22  C   UNL     1      10.298  12.808  18.500  0.00  0.00    +0.000 C 
ATOM     23  C   UNL     1       9.337  11.815  17.842  0.00  0.00    +0.000 C 
ENDBRANCH  17  18
ENDBRANCH  16  17
ENDBRANCH   3  16
TORSDOF 7
ENDMDL
MODEL 9
REMARK VINA RESULT:      -6.5      2.036      5.037
REMARK  Name = 
REMARK  7 active torsions:
REMARK  status: ('A' for Active; 'I' for Inactive)
REMARK    1  A    between atoms: C_2  and  C_3
REMARK    2  A    between atoms: C_3  and  O_4
REMARK    3  A    between atoms: O_4  and  C_5
REMARK    4  A    between atoms: C_5  and  C_7
REMARK    5  A    between atoms: N_14  and  C_15
REMARK    6  A    between atoms: C_15  and  C_16
REMARK    7  A    between atoms: C_16  and  C_17
REMARK                            x       y       z     vdW  Elec       q    Type
REMARK                         _______ _______ _______ _____ _____    ______ ____
ROOT
ATOM      1  O   UNL     1       4.494   2.532  19.420  0.00  0.00    +0.000 OA
ATOM      2  C   UNL     1       3.418   2.750  18.871  0.00  0.00    +0.000 C 
ATOM      3  N   UNL     1       3.301   3.102  17.539  0.00  0.00    +0.000 N 
ATOM      4  H   UNL     1       2.374   3.247  17.162  0.00  0.00    +0.000 HD
ENDROOT
BRANCH   2   5
ATOM      5  C   UNL     1       2.077   2.575  19.581  0.00  0.00    +0.000 C 
BRANCH   5   6
ATOM      6  O   UNL     1       1.372   3.816  19.715  0.00  0.00    +0.000 OA
BRANCH   6   7
ATOM      7  C   UNL     1       1.965   4.702  20.556  0.00  0.00    +0.000 C 
ATOM      8  O   UNL     1       2.419   4.457  21.658  0.00  0.00    +0.000 OA
BRANCH   7   9
ATOM      9  C   UNL     1       1.948   6.058  19.962  0.00  0.00    +0.000 A 
ATOM     10  C   UNL     1       2.411   6.305  18.661  0.00  0.00    +0.000 A 
ATOM     11  C   UNL     1       2.383   7.605  18.149  0.00  0.00    +0.000 A 
ATOM     12  C   UNL     1       1.891   8.650  18.931  0.00  0.00    +0.000 A 
ATOM     13 BR   UNL     1       1.841  10.403  18.227  0.00  0.00    +0.000 Br
ATOM     14  C   UNL     1       1.439   8.414  20.229  0.00  0.00    +0.000 A 
ATOM     15  C   UNL     1       1.473   7.116  20.747  0.00  0.00    +0.000 A 
ENDBRANCH   7   9
ENDBRANCH   6   7
ENDBRANCH   5   6
ENDBRANCH   2   5
BRANCH   3  16
ATOM     16  C   UNL     1       4.470   3.349  16.722  0.00  0.00    +0.000 C 
BRANCH  16  17
ATOM     17  C   UNL     1       4.669   4.841  16.434  0.00  0.00    +0.000 C 
BRANCH  17  18
ATOM     18  C   UNL     1       5.895   5.412  17.114  0.00  0.00    +0.000 C 
ATOM     19  C   UNL     1       6.768   4.626  17.770  0.00  0.00    +0.000 C 
ATOM     20  C   UNL     1       7.962   5.147  18.517  0.00  0.00    +0.000 C 
ATOM     21  C   UNL     1       7.906   6.658  18.747  0.00  0.00    +0.000 C 
ATOM     22  C   UNL     1       7.473   7.383  17.479  0.00  0.00    +0.000 C 
ATOM     23  C   UNL     1       6.093   6.909  17.017  0.00  0.00    +0.000 C 
ENDBRANCH  17  18
ENDBRANCH  16  17
ENDBRANCH   3  16
TORSDOF 7
ENDMDL
