MODEL 1
REMARK VINA RESULT:      -9.2      0.000      0.000
REMARK  Name = 
REMARK  6 active torsions:
REMARK  status: ('A' for Active; 'I' for Inactive)
REMARK    1  A    between atoms: C_2  and  C_3
REMARK    2  A    between atoms: C_3  and  N_4
REMARK    3  A    between atoms: C_7  and  N_8
REMARK    4  A    between atoms: N_22  and  C_23
REMARK    5  A    between atoms: C_26  and  O_27
REMARK    6  A    between atoms: O_27  and  C_28
REMARK                            x       y       z     vdW  Elec       q    Type
REMARK                         _______ _______ _______ _____ _____    ______ ____
ROOT
ATOM      1  C   UNL     1      -0.037   9.691  22.659  0.00  0.00    +0.000 C 
ENDROOT
BRANCH   1   2
ATOM      2  N   UNL     1       0.168  11.067  22.096  0.00  0.00    +0.000 NA
ATOM      3  C   UNL     1      -0.026  11.034  20.633  0.00  0.00    +0.000 C 
ATOM      4  C   UNL     1      -0.211  12.413  20.009  0.00  0.00    +0.000 C 
ATOM      5  C   UNL     1      -1.342  13.232  20.641  0.00  0.00    +0.000 C 
ATOM      6  C   UNL     1      -1.155  13.267  22.157  0.00  0.00    +0.000 C 
ATOM      7  C   UNL     1      -0.825  11.922  22.797  0.00  0.00    +0.000 C 
BRANCH   5   8
ATOM      8  N   UNL     1      -2.697  12.877  20.120  0.00  0.00    +0.000 N 
ATOM      9  C   UNL     1      -3.843  13.199  20.855  0.00  0.00    +0.000 C 
ATOM     10  O   UNL     1      -3.953  14.146  21.618  0.00  0.00    +0.000 OA
ATOM     11  O   UNL     1      -4.858  12.298  20.804  0.00  0.00    +0.000 OA
ATOM     12  C   UNL     1      -5.261  11.852  19.526  0.00  0.00    +0.000 C 
ATOM     13  C   UNL     1      -4.123  11.636  18.592  0.00  0.00    +0.000 A 
ATOM     14  C   UNL     1      -4.364  10.960  17.384  0.00  0.00    +0.000 A 
ATOM     15  C   UNL     1      -3.337  10.784  16.469  0.00  0.00    +0.000 A 
ATOM     16 CL   UNL     1      -3.647   9.985  14.981  0.00  0.00    +0.000 Cl
ATOM     17  C   UNL     1      -2.072  11.279  16.751  0.00  0.00    +0.000 A 
ATOM     18  C   UNL     1      -1.828  11.951  17.957  0.00  0.00    +0.000 A 
ATOM     19  C   UNL     1      -2.851  12.138  18.901  0.00  0.00    +0.000 A 
ENDBRANCH   5   8
ENDBRANCH   1   2
BRANCH   1  21
ATOM     20  O   UNL     1      -0.875   7.873  21.364  0.00  0.00    +0.000 OA
ATOM     21  C   UNL     1       0.116   8.539  21.671  0.00  0.00    +0.000 C 
ATOM     22  N   UNL     1       1.412   8.276  21.277  0.00  0.00    +0.000 N 
ATOM     23  H   UNL     1       2.126   8.815  21.757  0.00  0.00    +0.000 HD
BRANCH  22  24
ATOM     24  C   UNL     1       1.811   7.266  20.380  0.00  0.00    +0.000 A 
ATOM     25  C   UNL     1       1.846   5.911  20.724  0.00  0.00    +0.000 A 
ATOM     26  C   UNL     1       2.327   4.954  19.828  0.00  0.00    +0.000 A 
ATOM     27  C   UNL     1       2.769   5.342  18.567  0.00  0.00    +0.000 A 
ATOM     28  C   UNL     1       2.725   6.693  18.209  0.00  0.00    +0.000 A 
ATOM     29  C   UNL     1       2.211   7.645  19.097  0.00  0.00    +0.000 A 
BRANCH  27  30
ATOM     30  O   UNL     1       3.275   4.332  17.776  0.00  0.00    +0.000 OA
BRANCH  30  31
ATOM     31  C   UNL     1       4.593   4.389  17.392  0.00  0.00    +0.000 A 
ATOM     32  C   UNL     1       5.531   4.644  18.393  0.00  0.00    +0.000 A 
ATOM     33  C   UNL     1       6.881   4.769  18.060  0.00  0.00    +0.000 A 
ATOM     34  C   UNL     1       7.287   4.635  16.731  0.00  0.00    +0.000 A 
ATOM     35  C   UNL     1       6.354   4.323  15.743  0.00  0.00    +0.000 A 
ATOM     36  C   UNL     1       5.015   4.164  16.075  0.00  0.00    +0.000 A 
ENDBRANCH  30  31
ENDBRANCH  27  30
ENDBRANCH  22  24
ENDBRANCH   1  21
TORSDOF 6
ENDMDL
MODEL 2
REMARK VINA RESULT:      -8.7      2.832      4.144
REMARK  Name = 
REMARK  6 active torsions:
REMARK  status: ('A' for Active; 'I' for Inactive)
REMARK    1  A    between atoms: C_2  and  C_3
REMARK    2  A    between atoms: C_3  and  N_4
REMARK    3  A    between atoms: C_7  and  N_8
REMARK    4  A    between atoms: N_22  and  C_23
REMARK    5  A    between atoms: C_26  and  O_27
REMARK    6  A    between atoms: O_27  and  C_28
REMARK                            x       y       z     vdW  Elec       q    Type
REMARK                         _______ _______ _______ _____ _____    ______ ____
ROOT
ATOM      1  C   UNL     1       1.090   9.273  19.229  0.00  0.00    +0.000 C 
ENDROOT
BRANCH   1   2
ATOM      2  N   UNL     1       0.335  10.445  18.673  0.00  0.00    +0.000 NA
ATOM      3  C   UNL     1      -1.111  10.251  18.902  0.00  0.00    +0.000 C 
ATOM      4  C   UNL     1      -1.935  11.521  18.723  0.00  0.00    +0.000 C 
ATOM      5  C   UNL     1      -1.452  12.698  19.578  0.00  0.00    +0.000 C 
ATOM      6  C   UNL     1       0.047  12.904  19.355  0.00  0.00    +0.000 C 
ATOM      7  C   UNL     1       0.884  11.629  19.385  0.00  0.00    +0.000 C 
BRANCH   5   8
ATOM      8  N   UNL     1      -1.939  12.648  20.990  0.00  0.00    +0.000 N 
ATOM      9  C   UNL     1      -1.094  12.211  22.015  0.00  0.00    +0.000 C 
ATOM     10  O   UNL     1       0.123  12.320  22.024  0.00  0.00    +0.000 OA
ATOM     11  O   UNL     1      -1.679  11.492  23.007  0.00  0.00    +0.000 OA
ATOM     12  C   UNL     1      -2.844  12.032  23.594  0.00  0.00    +0.000 C 
ATOM     13  C   UNL     1      -3.752  12.682  22.609  0.00  0.00    +0.000 A 
ATOM     14  C   UNL     1      -5.049  13.033  23.021  0.00  0.00    +0.000 A 
ATOM     15  C   UNL     1      -5.903  13.684  22.144  0.00  0.00    +0.000 A 
ATOM     16 CL   UNL     1      -7.476  14.138  22.664  0.00  0.00    +0.000 Cl
ATOM     17  C   UNL     1      -5.473  13.988  20.861  0.00  0.00    +0.000 A 
ATOM     18  C   UNL     1      -4.180  13.637  20.448  0.00  0.00    +0.000 A 
ATOM     19  C   UNL     1      -3.297  12.973  21.315  0.00  0.00    +0.000 A 
ENDBRANCH   5   8
ENDBRANCH   1   2
BRANCH   1  21
ATOM     20  O   UNL     1       2.313   9.121  17.188  0.00  0.00    +0.000 OA
ATOM     21  C   UNL     1       2.051   8.584  18.266  0.00  0.00    +0.000 C 
ATOM     22  N   UNL     1       2.475   7.330  18.660  0.00  0.00    +0.000 N 
ATOM     23  H   UNL     1       2.029   6.970  19.498  0.00  0.00    +0.000 HD
BRANCH  22  24
ATOM     24  C   UNL     1       3.355   6.496  17.945  0.00  0.00    +0.000 A 
ATOM     25  C   UNL     1       3.115   5.135  17.736  0.00  0.00    +0.000 A 
ATOM     26  C   UNL     1       4.056   4.329  17.091  0.00  0.00    +0.000 A 
ATOM     27  C   UNL     1       5.249   4.881  16.636  0.00  0.00    +0.000 A 
ATOM     28  C   UNL     1       5.493   6.245  16.829  0.00  0.00    +0.000 A 
ATOM     29  C   UNL     1       4.533   7.056  17.445  0.00  0.00    +0.000 A 
BRANCH  27  30
ATOM     30  O   UNL     1       6.136   3.995  16.062  0.00  0.00    +0.000 OA
BRANCH  30  31
ATOM     31  C   UNL     1       6.415   4.113  14.721  0.00  0.00    +0.000 A 
ATOM     32  C   UNL     1       7.464   4.961  14.367  0.00  0.00    +0.000 A 
ATOM     33  C   UNL     1       7.762   5.167  13.019  0.00  0.00    +0.000 A 
ATOM     34  C   UNL     1       7.014   4.521  12.033  0.00  0.00    +0.000 A 
ATOM     35  C   UNL     1       6.004   3.630  12.393  0.00  0.00    +0.000 A 
ATOM     36  C   UNL     1       5.727   3.396  13.733  0.00  0.00    +0.000 A 
ENDBRANCH  30  31
ENDBRANCH  27  30
ENDBRANCH  22  24
ENDBRANCH   1  21
TORSDOF 6
ENDMDL
MODEL 3
REMARK VINA RESULT:      -8.7      2.819     10.732
REMARK  Name = 
REMARK  6 active torsions:
REMARK  status: ('A' for Active; 'I' for Inactive)
REMARK    1  A    between atoms: C_2  and  C_3
REMARK    2  A    between atoms: C_3  and  N_4
REMARK    3  A    between atoms: C_7  and  N_8
REMARK    4  A    between atoms: N_22  and  C_23
REMARK    5  A    between atoms: C_26  and  O_27
REMARK    6  A    between atoms: O_27  and  C_28
REMARK                            x       y       z     vdW  Elec       q    Type
REMARK                         _______ _______ _______ _____ _____    ______ ____
ROOT
ATOM      1  C   UNL     1       2.032   6.939  20.817  0.00  0.00    +0.000 C 
ENDROOT
BRANCH   1   2
ATOM      2  N   UNL     1       1.760   5.830  19.842  0.00  0.00    +0.000 NA
ATOM      3  C   UNL     1       2.344   6.174  18.530  0.00  0.00    +0.000 C 
ATOM      4  C   UNL     1       2.459   4.987  17.581  0.00  0.00    +0.000 C 
ATOM      5  C   UNL     1       3.225   3.796  18.168  0.00  0.00    +0.000 C 
ATOM      6  C   UNL     1       2.633   3.435  19.530  0.00  0.00    +0.000 C 
ATOM      7  C   UNL     1       2.371   4.622  20.454  0.00  0.00    +0.000 C 
BRANCH   5   8
ATOM      8  N   UNL     1       4.709   3.940  18.076  0.00  0.00    +0.000 N 
ATOM      9  C   UNL     1       5.503   3.820  19.222  0.00  0.00    +0.000 C 
ATOM     10  O   UNL     1       5.235   3.142  20.202  0.00  0.00    +0.000 OA
ATOM     11  O   UNL     1       6.588   4.634  19.285  0.00  0.00    +0.000 OA
ATOM     12  C   UNL     1       7.438   4.665  18.158  0.00  0.00    +0.000 C 
ATOM     13  C   UNL     1       6.702   4.625  16.865  0.00  0.00    +0.000 A 
ATOM     14  C   UNL     1       7.408   4.900  15.681  0.00  0.00    +0.000 A 
ATOM     15  C   UNL     1       6.765   4.824  14.455  0.00  0.00    +0.000 A 
ATOM     16 CL   UNL     1       7.642   5.131  13.011  0.00  0.00    +0.000 Cl
ATOM     17  C   UNL     1       5.424   4.473  14.401  0.00  0.00    +0.000 A 
ATOM     18  C   UNL     1       4.717   4.201  15.581  0.00  0.00    +0.000 A 
ATOM     19  C   UNL     1       5.344   4.275  16.835  0.00  0.00    +0.000 A 
ENDBRANCH   5   8
ENDBRANCH   1   2
BRANCH   1  21
ATOM     20  O   UNL     1      -0.057   7.709  21.667  0.00  0.00    +0.000 OA
ATOM     21  C   UNL     1       0.924   7.975  20.972  0.00  0.00    +0.000 C 
ATOM     22  N   UNL     1       1.081   9.117  20.212  0.00  0.00    +0.000 N 
ATOM     23  H   UNL     1       1.866   9.100  19.567  0.00  0.00    +0.000 HD
BRANCH  22  24
ATOM     24  C   UNL     1       0.196  10.212  20.178  0.00  0.00    +0.000 A 
ATOM     25  C   UNL     1       0.024  11.086  21.256  0.00  0.00    +0.000 A 
ATOM     26  C   UNL     1      -0.926  12.109  21.206  0.00  0.00    +0.000 A 
ATOM     27  C   UNL     1      -1.709  12.277  20.069  0.00  0.00    +0.000 A 
ATOM     28  C   UNL     1      -1.535  11.415  18.981  0.00  0.00    +0.000 A 
ATOM     29  C   UNL     1      -0.559  10.413  19.021  0.00  0.00    +0.000 A 
BRANCH  27  30
ATOM     30  O   UNL     1      -2.654  13.279  20.138  0.00  0.00    +0.000 OA
BRANCH  30  31
ATOM     31  C   UNL     1      -3.868  13.005  20.721  0.00  0.00    +0.000 A 
ATOM     32  C   UNL     1      -4.828  12.390  19.917  0.00  0.00    +0.000 A 
ATOM     33  C   UNL     1      -6.101  12.135  20.433  0.00  0.00    +0.000 A 
ATOM     34  C   UNL     1      -6.405  12.491  21.748  0.00  0.00    +0.000 A 
ATOM     35  C   UNL     1      -5.424  13.052  22.565  0.00  0.00    +0.000 A 
ATOM     36  C   UNL     1      -4.148  13.276  22.066  0.00  0.00    +0.000 A 
ENDBRANCH  30  31
ENDBRANCH  27  30
ENDBRANCH  22  24
ENDBRANCH   1  21
TORSDOF 6
ENDMDL
MODEL 4
REMARK VINA RESULT:      -8.7      0.989      1.540
REMARK  Name = 
REMARK  6 active torsions:
REMARK  status: ('A' for Active; 'I' for Inactive)
REMARK    1  A    between atoms: C_2  and  C_3
REMARK    2  A    between atoms: C_3  and  N_4
REMARK    3  A    between atoms: C_7  and  N_8
REMARK    4  A    between atoms: N_22  and  C_23
REMARK    5  A    between atoms: C_26  and  O_27
REMARK    6  A    between atoms: O_27  and  C_28
REMARK                            x       y       z     vdW  Elec       q    Type
REMARK                         _______ _______ _______ _____ _____    ______ ____
ROOT
ATOM      1  C   UNL     1      -0.346  10.101  22.914  0.00  0.00    +0.000 C 
ENDROOT
BRANCH   1   2
ATOM      2  N   UNL     1      -0.372  11.548  22.515  0.00  0.00    +0.000 NA
ATOM      3  C   UNL     1      -0.418  11.651  21.042  0.00  0.00    +0.000 C 
ATOM      4  C   UNL     1      -0.820  13.032  20.538  0.00  0.00    +0.000 C 
ATOM      5  C   UNL     1      -2.147  13.539  21.111  0.00  0.00    +0.000 C 
ATOM      6  C   UNL     1      -2.114  13.431  22.636  0.00  0.00    +0.000 C 
ATOM      7  C   UNL     1      -1.579  12.108  23.176  0.00  0.00    +0.000 C 
BRANCH   5   8
ATOM      8  N   UNL     1      -3.347  12.996  20.407  0.00  0.00    +0.000 N 
ATOM      9  C   UNL     1      -4.622  13.147  20.962  0.00  0.00    +0.000 C 
ATOM     10  O   UNL     1      -4.976  14.067  21.684  0.00  0.00    +0.000 OA
ATOM     11  O   UNL     1      -5.480  12.111  20.781  0.00  0.00    +0.000 OA
ATOM     12  C   UNL     1      -5.626  11.615  19.467  0.00  0.00    +0.000 C 
ATOM     13  C   UNL     1      -4.344  11.567  18.711  0.00  0.00    +0.000 A 
ATOM     14  C   UNL     1      -4.308  10.867  17.493  0.00  0.00    +0.000 A 
ATOM     15  C   UNL     1      -3.144  10.843  16.740  0.00  0.00    +0.000 A 
ATOM     16 CL   UNL     1      -3.117  10.012  15.237  0.00  0.00    +0.000 Cl
ATOM     17  C   UNL     1      -2.017  11.513  17.193  0.00  0.00    +0.000 A 
ATOM     18  C   UNL     1      -2.050  12.209  18.409  0.00  0.00    +0.000 A 
ATOM     19  C   UNL     1      -3.215  12.245  19.192  0.00  0.00    +0.000 A 
ENDBRANCH   5   8
ENDBRANCH   1   2
BRANCH   1  21
ATOM     20  O   UNL     1       1.941   9.473  22.671  0.00  0.00    +0.000 OA
ATOM     21  C   UNL     1       0.780   9.266  22.314  0.00  0.00    +0.000 C 
ATOM     22  N   UNL     1       0.393   8.393  21.317  0.00  0.00    +0.000 N 
ATOM     23  H   UNL     1      -0.579   8.470  21.032  0.00  0.00    +0.000 HD
BRANCH  22  24
ATOM     24  C   UNL     1       1.243   7.521  20.609  0.00  0.00    +0.000 A 
ATOM     25  C   UNL     1       1.930   7.900  19.452  0.00  0.00    +0.000 A 
ATOM     26  C   UNL     1       2.697   6.977  18.738  0.00  0.00    +0.000 A 
ATOM     27  C   UNL     1       2.796   5.663  19.181  0.00  0.00    +0.000 A 
ATOM     28  C   UNL     1       2.123   5.277  20.345  0.00  0.00    +0.000 A 
ATOM     29  C   UNL     1       1.382   6.213  21.078  0.00  0.00    +0.000 A 
BRANCH  27  30
ATOM     30  O   UNL     1       3.532   4.816  18.379  0.00  0.00    +0.000 OA
BRANCH  30  31
ATOM     31  C   UNL     1       4.869   5.075  18.194  0.00  0.00    +0.000 A 
ATOM     32  C   UNL     1       5.325   5.122  16.877  0.00  0.00    +0.000 A 
ATOM     33  C   UNL     1       6.682   5.327  16.622  0.00  0.00    +0.000 A 
ATOM     34  C   UNL     1       7.574   5.487  17.683  0.00  0.00    +0.000 A 
ATOM     35  C   UNL     1       7.105   5.497  18.996  0.00  0.00    +0.000 A 
ATOM     36  C   UNL     1       5.751   5.329  19.252  0.00  0.00    +0.000 A 
ENDBRANCH  30  31
ENDBRANCH  27  30
ENDBRANCH  22  24
ENDBRANCH   1  21
TORSDOF 6
ENDMDL
MODEL 5
REMARK VINA RESULT:      -8.7      2.958     10.940
REMARK  Name = 
REMARK  6 active torsions:
REMARK  status: ('A' for Active; 'I' for Inactive)
REMARK    1  A    between atoms: C_2  and  C_3
REMARK    2  A    between atoms: C_3  and  N_4
REMARK    3  A    between atoms: C_7  and  N_8
REMARK    4  A    between atoms: N_22  and  C_23
REMARK    5  A    between atoms: C_26  and  O_27
REMARK    6  A    between atoms: O_27  and  C_28
REMARK                            x       y       z     vdW  Elec       q    Type
REMARK                         _______ _______ _______ _____ _____    ______ ____
ROOT
ATOM      1  C   UNL     1       2.105   7.458  20.470  0.00  0.00    +0.000 C 
ENDROOT
BRANCH   1   2
ATOM      2  N   UNL     1       1.804   6.240  19.646  0.00  0.00    +0.000 NA
ATOM      3  C   UNL     1       2.383   6.404  18.297  0.00  0.00    +0.000 C 
ATOM      4  C   UNL     1       2.468   5.104  17.506  0.00  0.00    +0.000 C 
ATOM      5  C   UNL     1       3.218   3.983  18.234  0.00  0.00    +0.000 C 
ATOM      6  C   UNL     1       2.631   3.808  19.634  0.00  0.00    +0.000 C 
ATOM      7  C   UNL     1       2.398   5.107  20.402  0.00  0.00    +0.000 C 
BRANCH   5   8
ATOM      8  N   UNL     1       4.703   4.085  18.116  0.00  0.00    +0.000 N 
ATOM      9  C   UNL     1       5.511   3.987  19.253  0.00  0.00    +0.000 C 
ATOM     10  O   UNL     1       5.241   3.352  20.261  0.00  0.00    +0.000 OA
ATOM     11  O   UNL     1       6.617   4.775  19.271  0.00  0.00    +0.000 OA
ATOM     12  C   UNL     1       7.450   4.743  18.132  0.00  0.00    +0.000 C 
ATOM     13  C   UNL     1       6.694   4.675  16.852  0.00  0.00    +0.000 A 
ATOM     14  C   UNL     1       7.389   4.889  15.649  0.00  0.00    +0.000 A 
ATOM     15  C   UNL     1       6.726   4.784  14.436  0.00  0.00    +0.000 A 
ATOM     16 CL   UNL     1       7.588   5.016  12.969  0.00  0.00    +0.000 Cl
ATOM     17  C   UNL     1       5.375   4.466  14.414  0.00  0.00    +0.000 A 
ATOM     18  C   UNL     1       4.680   4.255  15.613  0.00  0.00    +0.000 A 
ATOM     19  C   UNL     1       5.328   4.359  16.855  0.00  0.00    +0.000 A 
ENDBRANCH   5   8
ENDBRANCH   1   2
BRANCH   1  21
ATOM     20  O   UNL     1      -0.074   7.634  21.421  0.00  0.00    +0.000 OA
ATOM     21  C   UNL     1       0.894   8.243  20.963  0.00  0.00    +0.000 C 
ATOM     22  N   UNL     1       0.956   9.606  20.751  0.00  0.00    +0.000 N 
ATOM     23  H   UNL     1       1.755   9.921  20.210  0.00  0.00    +0.000 HD
BRANCH  22  24
ATOM     24  C   UNL     1      -0.034  10.541  21.111  0.00  0.00    +0.000 A 
ATOM     25  C   UNL     1      -0.736  11.306  20.175  0.00  0.00    +0.000 A 
ATOM     26  C   UNL     1      -1.650  12.280  20.583  0.00  0.00    +0.000 A 
ATOM     27  C   UNL     1      -1.882  12.492  21.938  0.00  0.00    +0.000 A 
ATOM     28  C   UNL     1      -1.194  11.722  22.882  0.00  0.00    +0.000 A 
ATOM     29  C   UNL     1      -0.304  10.724  22.469  0.00  0.00    +0.000 A 
BRANCH  27  30
ATOM     30  O   UNL     1      -2.761  13.511  22.241  0.00  0.00    +0.000 OA
BRANCH  30  31
ATOM     31  C   UNL     1      -4.078  13.199  22.481  0.00  0.00    +0.000 A 
ATOM     32  C   UNL     1      -4.457  13.044  23.814  0.00  0.00    +0.000 A 
ATOM     33  C   UNL     1      -5.767  12.674  24.123  0.00  0.00    +0.000 A 
ATOM     34  C   UNL     1      -6.692  12.465  23.098  0.00  0.00    +0.000 A 
ATOM     35  C   UNL     1      -6.324  12.678  21.770  0.00  0.00    +0.000 A 
ATOM     36  C   UNL     1      -5.031  13.079  21.461  0.00  0.00    +0.000 A 
ENDBRANCH  30  31
ENDBRANCH  27  30
ENDBRANCH  22  24
ENDBRANCH   1  21
TORSDOF 6
ENDMDL
MODEL 6
REMARK VINA RESULT:      -8.6      7.944     10.565
REMARK  Name = 
REMARK  6 active torsions:
REMARK  status: ('A' for Active; 'I' for Inactive)
REMARK    1  A    between atoms: C_2  and  C_3
REMARK    2  A    between atoms: C_3  and  N_4
REMARK    3  A    between atoms: C_7  and  N_8
REMARK    4  A    between atoms: N_22  and  C_23
REMARK    5  A    between atoms: C_26  and  O_27
REMARK    6  A    between atoms: O_27  and  C_28
REMARK                            x       y       z     vdW  Elec       q    Type
REMARK                         _______ _______ _______ _____ _____    ______ ____
ROOT
ATOM      1  C   UNL     1       8.539  10.078  17.834  0.00  0.00    +0.000 C 
ENDROOT
BRANCH   1   2
ATOM      2  N   UNL     1       9.717  10.512  18.657  0.00  0.00    +0.000 NA
ATOM      3  C   UNL     1      10.750  11.087  17.772  0.00  0.00    +0.000 C 
ATOM      4  C   UNL     1      11.813  11.891  18.512  0.00  0.00    +0.000 C 
ATOM      5  C   UNL     1      11.242  13.005  19.397  0.00  0.00    +0.000 C 
ATOM      6  C   UNL     1      10.166  12.423  20.313  0.00  0.00    +0.000 C 
ATOM      7  C   UNL     1       9.168  11.496  19.626  0.00  0.00    +0.000 C 
BRANCH   5   8
ATOM      8  N   UNL     1      10.907  14.251  18.643  0.00  0.00    +0.000 N 
ATOM      9  C   UNL     1      11.694  14.656  17.561  0.00  0.00    +0.000 C 
ATOM     10  O   UNL     1      12.326  13.912  16.826  0.00  0.00    +0.000 OA
ATOM     11  O   UNL     1      11.865  15.995  17.414  0.00  0.00    +0.000 OA
ATOM     12  C   UNL     1      10.705  16.801  17.444  0.00  0.00    +0.000 C 
ATOM     13  C   UNL     1       9.707  16.357  18.455  0.00  0.00    +0.000 A 
ATOM     14  C   UNL     1       8.632  17.210  18.758  0.00  0.00    +0.000 A 
ATOM     15  C   UNL     1       7.658  16.807  19.658  0.00  0.00    +0.000 A 
ATOM     16 CL   UNL     1       6.331  17.842  20.000  0.00  0.00    +0.000 Cl
ATOM     17  C   UNL     1       7.747  15.559  20.258  0.00  0.00    +0.000 A 
ATOM     18  C   UNL     1       8.820  14.708  19.959  0.00  0.00    +0.000 A 
ATOM     19  C   UNL     1       9.822  15.094  19.054  0.00  0.00    +0.000 A 
ENDBRANCH   5   8
ENDBRANCH   1   2
BRANCH   1  21
ATOM     20  O   UNL     1       8.648   7.938  18.879  0.00  0.00    +0.000 OA
ATOM     21  C   UNL     1       8.060   8.648  18.061  0.00  0.00    +0.000 C 
ATOM     22  N   UNL     1       7.039   8.235  17.229  0.00  0.00    +0.000 N 
ATOM     23  H   UNL     1       6.786   8.894  16.499  0.00  0.00    +0.000 HD
BRANCH  22  24
ATOM     24  C   UNL     1       6.431   6.964  17.240  0.00  0.00    +0.000 A 
ATOM     25  C   UNL     1       5.114   6.746  16.824  0.00  0.00    +0.000 A 
ATOM     26  C   UNL     1       4.527   5.484  16.931  0.00  0.00    +0.000 A 
ATOM     27  C   UNL     1       5.257   4.418  17.446  0.00  0.00    +0.000 A 
ATOM     28  C   UNL     1       6.579   4.623  17.853  0.00  0.00    +0.000 A 
ATOM     29  C   UNL     1       7.176   5.882  17.713  0.00  0.00    +0.000 A 
BRANCH  27  30
ATOM     30  O   UNL     1       4.573   3.226  17.561  0.00  0.00    +0.000 OA
BRANCH  30  31
ATOM     31  C   UNL     1       3.480   3.168  18.392  0.00  0.00    +0.000 A 
ATOM     32  C   UNL     1       2.273   2.769  17.819  0.00  0.00    +0.000 A 
ATOM     33  C   UNL     1       1.113   2.742  18.596  0.00  0.00    +0.000 A 
ATOM     34  C   UNL     1       1.168   3.109  19.942  0.00  0.00    +0.000 A 
ATOM     35  C   UNL     1       2.387   3.451  20.525  0.00  0.00    +0.000 A 
ATOM     36  C   UNL     1       3.548   3.446  19.764  0.00  0.00    +0.000 A 
ENDBRANCH  30  31
ENDBRANCH  27  30
ENDBRANCH  22  24
ENDBRANCH   1  21
TORSDOF 6
ENDMDL
MODEL 7
REMARK VINA RESULT:      -8.5      2.900     10.910
REMARK  Name = 
REMARK  6 active torsions:
REMARK  status: ('A' for Active; 'I' for Inactive)
REMARK    1  A    between atoms: C_2  and  C_3
REMARK    2  A    between atoms: C_3  and  N_4
REMARK    3  A    between atoms: C_7  and  N_8
REMARK    4  A    between atoms: N_22  and  C_23
REMARK    5  A    between atoms: C_26  and  O_27
REMARK    6  A    between atoms: O_27  and  C_28
REMARK                            x       y       z     vdW  Elec       q    Type
REMARK                         _______ _______ _______ _____ _____    ______ ____
ROOT
ATOM      1  C   UNL     1       2.169   7.277  20.555  0.00  0.00    +0.000 C 
ENDROOT
BRANCH   1   2
ATOM      2  N   UNL     1       1.865   6.106  19.666  0.00  0.00    +0.000 NA
ATOM      3  C   UNL     1       2.440   6.342  18.327  0.00  0.00    +0.000 C 
ATOM      4  C   UNL     1       2.522   5.087  17.466  0.00  0.00    +0.000 C 
ATOM      5  C   UNL     1       3.273   3.928  18.130  0.00  0.00    +0.000 C 
ATOM      6  C   UNL     1       2.691   3.678  19.521  0.00  0.00    +0.000 C 
ATOM      7  C   UNL     1       2.462   4.933  20.358  0.00  0.00    +0.000 C 
BRANCH   5   8
ATOM      8  N   UNL     1       4.758   4.036  18.013  0.00  0.00    +0.000 N 
ATOM      9  C   UNL     1       5.568   3.918  19.147  0.00  0.00    +0.000 C 
ATOM     10  O   UNL     1       5.300   3.264  20.143  0.00  0.00    +0.000 OA
ATOM     11  O   UNL     1       6.671   4.709  19.179  0.00  0.00    +0.000 OA
ATOM     12  C   UNL     1       7.504   4.701  18.039  0.00  0.00    +0.000 C 
ATOM     13  C   UNL     1       6.747   4.655  16.758  0.00  0.00    +0.000 A 
ATOM     14  C   UNL     1       7.440   4.893  15.559  0.00  0.00    +0.000 A 
ATOM     15  C   UNL     1       6.776   4.810  14.345  0.00  0.00    +0.000 A 
ATOM     16 CL   UNL     1       7.636   5.072  12.881  0.00  0.00    +0.000 Cl
ATOM     17  C   UNL     1       5.426   4.489  14.318  0.00  0.00    +0.000 A 
ATOM     18  C   UNL     1       4.733   4.253  15.513  0.00  0.00    +0.000 A 
ATOM     19  C   UNL     1       5.381   4.335  16.756  0.00  0.00    +0.000 A 
ENDBRANCH   5   8
ENDBRANCH   1   2
BRANCH   1  21
ATOM     20  O   UNL     1       0.114   7.824  21.632  0.00  0.00    +0.000 OA
ATOM     21  C   UNL     1       0.996   8.203  20.859  0.00  0.00    +0.000 C 
ATOM     22  N   UNL     1       0.978   9.380  20.139  0.00  0.00    +0.000 N 
ATOM     23  H   UNL     1       1.694   9.456  19.422  0.00  0.00    +0.000 HD
BRANCH  22  24
ATOM     24  C   UNL     1       0.002  10.391  20.237  0.00  0.00    +0.000 A 
ATOM     25  C   UNL     1      -0.965  10.614  19.253  0.00  0.00    +0.000 A 
ATOM     26  C   UNL     1      -1.861  11.681  19.355  0.00  0.00    +0.000 A 
ATOM     27  C   UNL     1      -1.806  12.533  20.453  0.00  0.00    +0.000 A 
ATOM     28  C   UNL     1      -0.850  12.310  21.449  0.00  0.00    +0.000 A 
ATOM     29  C   UNL     1       0.024  11.220  21.361  0.00  0.00    +0.000 A 
BRANCH  27  30
ATOM     30  O   UNL     1      -2.695  13.587  20.436  0.00  0.00    +0.000 OA
BRANCH  30  31
ATOM     31  C   UNL     1      -3.529  13.767  21.514  0.00  0.00    +0.000 A 
ATOM     32  C   UNL     1      -4.549  12.831  21.685  0.00  0.00    +0.000 A 
ATOM     33  C   UNL     1      -5.463  12.987  22.728  0.00  0.00    +0.000 A 
ATOM     34  C   UNL     1      -5.351  14.075  23.596  0.00  0.00    +0.000 A 
ATOM     35  C   UNL     1      -4.296  14.976  23.456  0.00  0.00    +0.000 A 
ATOM     36  C   UNL     1      -3.365  14.804  22.441  0.00  0.00    +0.000 A 
ENDBRANCH  30  31
ENDBRANCH  27  30
ENDBRANCH  22  24
ENDBRANCH   1  21
TORSDOF 6
ENDMDL
MODEL 8
REMARK VINA RESULT:      -8.5      4.015      9.951
REMARK  Name = 
REMARK  6 active torsions:
REMARK  status: ('A' for Active; 'I' for Inactive)
REMARK    1  A    between atoms: C_2  and  C_3
REMARK    2  A    between atoms: C_3  and  N_4
REMARK    3  A    between atoms: C_7  and  N_8
REMARK    4  A    between atoms: N_22  and  C_23
REMARK    5  A    between atoms: C_26  and  O_27
REMARK    6  A    between atoms: O_27  and  C_28
REMARK                            x       y       z     vdW  Elec       q    Type
REMARK                         _______ _______ _______ _____ _____    ______ ____
ROOT
ATOM      1  C   UNL     1       1.635   4.764  20.745  0.00  0.00    +0.000 C 
ENDROOT
BRANCH   1   2
ATOM      2  N   UNL     1       1.815   3.823  19.589  0.00  0.00    +0.000 NA
ATOM      3  C   UNL     1       2.040   4.599  18.353  0.00  0.00    +0.000 C 
ATOM      4  C   UNL     1       2.599   3.770  17.203  0.00  0.00    +0.000 C 
ATOM      5  C   UNL     1       3.885   3.013  17.553  0.00  0.00    +0.000 C 
ATOM      6  C   UNL     1       3.667   2.211  18.836  0.00  0.00    +0.000 C 
ATOM      7  C   UNL     1       2.976   2.973  19.963  0.00  0.00    +0.000 C 
BRANCH   5   8
ATOM      8  N   UNL     1       5.115   3.857  17.468  0.00  0.00    +0.000 N 
ATOM      9  C   UNL     1       5.683   4.399  18.626  0.00  0.00    +0.000 C 
ATOM     10  O   UNL     1       5.623   3.905  19.742  0.00  0.00    +0.000 OA
ATOM     11  O   UNL     1       6.223   5.638  18.504  0.00  0.00    +0.000 OA
ATOM     12  C   UNL     1       7.118   5.849  17.431  0.00  0.00    +0.000 C 
ATOM     13  C   UNL     1       6.699   5.171  16.174  0.00  0.00    +0.000 A 
ATOM     14  C   UNL     1       7.361   5.503  14.980  0.00  0.00    +0.000 A 
ATOM     15  C   UNL     1       7.031   4.854  13.799  0.00  0.00    +0.000 A 
ATOM     16 CL   UNL     1       7.865   5.243  12.350  0.00  0.00    +0.000 Cl
ATOM     17  C   UNL     1       6.045   3.877  13.803  0.00  0.00    +0.000 A 
ATOM     18  C   UNL     1       5.382   3.547  14.993  0.00  0.00    +0.000 A 
ATOM     19  C   UNL     1       5.696   4.191  16.201  0.00  0.00    +0.000 A 
ENDBRANCH   5   8
ENDBRANCH   1   2
BRANCH   1  21
ATOM     20  O   UNL     1       3.056   6.553  20.063  0.00  0.00    +0.000 OA
ATOM     21  C   UNL     1       1.934   6.232  20.460  0.00  0.00    +0.000 C 
ATOM     22  N   UNL     1       0.916   7.109  20.780  0.00  0.00    +0.000 N 
ATOM     23  H   UNL     1       0.121   6.690  21.253  0.00  0.00    +0.000 HD
BRANCH  22  24
ATOM     24  C   UNL     1       0.952   8.507  20.614  0.00  0.00    +0.000 A 
ATOM     25  C   UNL     1       0.732   9.404  21.663  0.00  0.00    +0.000 A 
ATOM     26  C   UNL     1       0.695  10.782  21.435  0.00  0.00    +0.000 A 
ATOM     27  C   UNL     1       0.891  11.279  20.151  0.00  0.00    +0.000 A 
ATOM     28  C   UNL     1       1.124  10.390  19.097  0.00  0.00    +0.000 A 
ATOM     29  C   UNL     1       1.194   9.012  19.335  0.00  0.00    +0.000 A 
BRANCH  27  30
ATOM     30  O   UNL     1       0.782  12.648  20.019  0.00  0.00    +0.000 OA
BRANCH  30  31
ATOM     31  C   UNL     1       1.916  13.379  19.757  0.00  0.00    +0.000 A 
ATOM     32  C   UNL     1       2.178  13.679  18.420  0.00  0.00    +0.000 A 
ATOM     33  C   UNL     1       3.342  14.372  18.082  0.00  0.00    +0.000 A 
ATOM     34  C   UNL     1       4.235  14.765  19.081  0.00  0.00    +0.000 A 
ATOM     35  C   UNL     1       3.940  14.514  20.421  0.00  0.00    +0.000 A 
ATOM     36  C   UNL     1       2.766  13.855  20.763  0.00  0.00    +0.000 A 
ENDBRANCH  30  31
ENDBRANCH  27  30
ENDBRANCH  22  24
ENDBRANCH   1  21
TORSDOF 6
ENDMDL
MODEL 9
REMARK VINA RESULT:      -8.5      6.377     10.235
REMARK  Name = 
REMARK  6 active torsions:
REMARK  status: ('A' for Active; 'I' for Inactive)
REMARK    1  A    between atoms: C_2  and  C_3
REMARK    2  A    between atoms: C_3  and  N_4
REMARK    3  A    between atoms: C_7  and  N_8
REMARK    4  A    between atoms: N_22  and  C_23
REMARK    5  A    between atoms: C_26  and  O_27
REMARK    6  A    between atoms: O_27  and  C_28
REMARK                            x       y       z     vdW  Elec       q    Type
REMARK                         _______ _______ _______ _____ _____    ______ ____
ROOT
ATOM      1  C   UNL     1       7.908   6.790  18.310  0.00  0.00    +0.000 C 
ENDROOT
BRANCH   1   2
ATOM      2  N   UNL     1       6.912   6.186  17.363  0.00  0.00    +0.000 NA
ATOM      3  C   UNL     1       6.626   4.795  17.771  0.00  0.00    +0.000 C 
ATOM      4  C   UNL     1       5.375   4.213  17.125  0.00  0.00    +0.000 C 
ATOM      5  C   UNL     1       4.115   5.060  17.339  0.00  0.00    +0.000 C 
ATOM      6  C   UNL     1       4.401   6.504  16.927  0.00  0.00    +0.000 C 
ATOM      7  C   UNL     1       5.721   7.072  17.441  0.00  0.00    +0.000 C 
BRANCH   5   8
ATOM      8  N   UNL     1       3.466   4.837  18.666  0.00  0.00    +0.000 N 
ATOM      9  C   UNL     1       3.550   3.590  19.293  0.00  0.00    +0.000 C 
ATOM     10  O   UNL     1       4.469   2.795  19.169  0.00  0.00    +0.000 OA
ATOM     11  O   UNL     1       2.452   3.194  19.986  0.00  0.00    +0.000 OA
ATOM     12  C   UNL     1       1.900   4.115  20.904  0.00  0.00    +0.000 C 
ATOM     13  C   UNL     1       1.912   5.518  20.407  0.00  0.00    +0.000 A 
ATOM     14  C   UNL     1       1.173   6.485  21.109  0.00  0.00    +0.000 A 
ATOM     15  C   UNL     1       1.201   7.811  20.703  0.00  0.00    +0.000 A 
ATOM     16 CL   UNL     1       0.320   8.993  21.584  0.00  0.00    +0.000 Cl
ATOM     17  C   UNL     1       1.963   8.178  19.602  0.00  0.00    +0.000 A 
ATOM     18  C   UNL     1       2.698   7.214  18.899  0.00  0.00    +0.000 A 
ATOM     19  C   UNL     1       2.683   5.865  19.288  0.00  0.00    +0.000 A 
ENDBRANCH   5   8
ENDBRANCH   1   2
BRANCH   1  21
ATOM     20  O   UNL     1       7.788   8.845  17.110  0.00  0.00    +0.000 OA
ATOM     21  C   UNL     1       8.172   8.281  18.136  0.00  0.00    +0.000 C 
ATOM     22  N   UNL     1       8.933   8.860  19.132  0.00  0.00    +0.000 N 
ATOM     23  H   UNL     1       9.307   8.212  19.819  0.00  0.00    +0.000 HD
BRANCH  22  24
ATOM     24  C   UNL     1       9.314  10.215  19.195  0.00  0.00    +0.000 A 
ATOM     25  C   UNL     1       9.680  10.956  18.068  0.00  0.00    +0.000 A 
ATOM     26  C   UNL     1      10.130  12.273  18.189  0.00  0.00    +0.000 A 
ATOM     27  C   UNL     1      10.208  12.869  19.443  0.00  0.00    +0.000 A 
ATOM     28  C   UNL     1       9.831  12.139  20.576  0.00  0.00    +0.000 A 
ATOM     29  C   UNL     1       9.348  10.831  20.447  0.00  0.00    +0.000 A 
BRANCH  27  30
ATOM     30  O   UNL     1      10.714  14.151  19.464  0.00  0.00    +0.000 OA
BRANCH  30  31
ATOM     31  C   UNL     1       9.887  15.196  19.127  0.00  0.00    +0.000 A 
ATOM     32  C   UNL     1      10.346  16.072  18.145  0.00  0.00    +0.000 A 
ATOM     33  C   UNL     1       9.577  17.184  17.796  0.00  0.00    +0.000 A 
ATOM     34  C   UNL     1       8.353  17.412  18.427  0.00  0.00    +0.000 A 
ATOM     35  C   UNL     1       7.871  16.501  19.367  0.00  0.00    +0.000 A 
ATOM     36  C   UNL     1       8.617  15.376  19.692  0.00  0.00    +0.000 A 
ENDBRANCH  30  31
ENDBRANCH  27  30
ENDBRANCH  22  24
ENDBRANCH   1  21
TORSDOF 6
ENDMDL
