MODEL 1
REMARK VINA RESULT:      -7.8      0.000      0.000
REMARK  Name = 
REMARK  11 active torsions:
REMARK  status: ('A' for Active; 'I' for Inactive)
REMARK    1  A    between atoms: C_1  and  O_2
REMARK    2  A    between atoms: O_2  and  C_3
REMARK    3  A    between atoms: C_6  and  C_7
REMARK    4  A    between atoms: C_7  and  N_8
REMARK    5  A    between atoms: C_15  and  C_16
REMARK    6  A    between atoms: C_16  and  O_17
REMARK    7  A    between atoms: C_16  and  C_18
REMARK    8  A    between atoms: C_27  and  O_28
REMARK    9  A    between atoms: O_28  and  C_29
REMARK   10  A    between atoms: C_30  and  O_31
REMARK   11  A    between atoms: O_31  and  C_32
REMARK                            x       y       z     vdW  Elec       q    Type
REMARK                         _______ _______ _______ _____ _____    ______ ____
ROOT
ATOM      1  N   UNL     1      -0.135  11.493  22.099  0.00  0.00    +0.000 NA
ATOM      2  C   UNL     1      -0.573  12.325  20.889  0.00  0.00    +0.000 C 
ATOM      3  C   UNL     1       0.294  11.834  19.808  0.00  0.00    +0.000 C 
ATOM      4  O   UNL     1       0.406  11.147  18.621  0.00  0.00    +0.000 OA
ATOM      5  C   UNL     1       0.976   9.922  19.014  0.00  0.00    +0.000 A 
ATOM      6  C   UNL     1       1.579   9.355  17.892  0.00  0.00    +0.000 A 
ATOM      7  C   UNL     1       2.207   8.140  17.989  0.00  0.00    +0.000 A 
ATOM      8  C   UNL     1       2.247   7.437  19.208  0.00  0.00    +0.000 A 
ATOM      9  C   UNL     1       1.620   8.026  20.385  0.00  0.00    +0.000 A 
ATOM     10  C   UNL     1       0.967   9.333  20.351  0.00  0.00    +0.000 A 
ATOM     11  C   UNL     1       0.114   9.937  21.746  0.00  0.00    +0.000 C 
ENDROOT
BRANCH   1  12
ATOM     12  C   UNL     1      -1.217  11.914  23.059  0.00  0.00    +0.000 C 
BRANCH  12  16
ATOM     13  C   UNL     1      -4.436  14.754  23.591  0.00  0.00    +0.000 A 
ATOM     14  C   UNL     1      -4.697  13.479  23.056  0.00  0.00    +0.000 A 
ATOM     15  C   UNL     1      -3.649  12.602  22.734  0.00  0.00    +0.000 A 
ATOM     16  C   UNL     1      -2.305  12.974  22.916  0.00  0.00    +0.000 A 
ATOM     17  C   UNL     1      -2.037  14.280  23.395  0.00  0.00    +0.000 A 
ATOM     18  C   UNL     1      -3.095  15.182  23.718  0.00  0.00    +0.000 A 
BRANCH  13  20
ATOM     19  C   UNL     1      -6.058  16.388  22.964  0.00  0.00    +0.000 C 
ATOM     20  O   UNL     1      -5.453  15.593  23.976  0.00  0.00    +0.000 OA
ENDBRANCH  13  20
BRANCH  17  21
ATOM     21  O   UNL     1      -0.688  14.475  23.585  0.00  0.00    +0.000 OA
ATOM     22  C   UNL     1       0.050  15.345  22.753  0.00  0.00    +0.000 C 
ENDBRANCH  17  21
BRANCH  18  23
ATOM     23  O   UNL     1      -2.688  16.400  24.197  0.00  0.00    +0.000 OA
ATOM     24  C   UNL     1      -2.454  16.628  25.573  0.00  0.00    +0.000 C 
ENDBRANCH  18  23
ENDBRANCH  12  16
ENDBRANCH   1  12
BRANCH   8  25
ATOM     25  C   UNL     1       3.020   6.103  19.055  0.00  0.00    +0.000 C 
BRANCH  25  26
ATOM     26  C   UNL     1       2.216   4.798  18.986  0.00  0.00    +0.000 A 
ATOM     27  C   UNL     1       1.621   4.256  20.140  0.00  0.00    +0.000 A 
ATOM     28  C   UNL     1       0.928   3.046  20.095  0.00  0.00    +0.000 A 
ATOM     29  C   UNL     1       0.833   2.394  18.879  0.00  0.00    +0.000 A 
ATOM     30  N   UNL     1       1.377   2.878  17.741  0.00  0.00    +0.000 NA
ATOM     31  C   UNL     1       2.049   4.059  17.817  0.00  0.00    +0.000 A 
ENDBRANCH  25  26
BRANCH  25  32
ATOM     32  O   UNL     1       4.135   5.901  19.895  0.00  0.00    +0.000 OA
ATOM     33  H   UNL     1       3.884   6.200  20.783  0.00  0.00    +0.000 HD
ENDBRANCH  25  32
ENDBRANCH   8  25
TORSDOF 8
ENDMDL
MODEL 2
REMARK VINA RESULT:      -7.5      1.132      2.084
REMARK  Name = 
REMARK  11 active torsions:
REMARK  status: ('A' for Active; 'I' for Inactive)
REMARK    1  A    between atoms: C_1  and  O_2
REMARK    2  A    between atoms: O_2  and  C_3
REMARK    3  A    between atoms: C_6  and  C_7
REMARK    4  A    between atoms: C_7  and  N_8
REMARK    5  A    between atoms: C_15  and  C_16
REMARK    6  A    between atoms: C_16  and  O_17
REMARK    7  A    between atoms: C_16  and  C_18
REMARK    8  A    between atoms: C_27  and  O_28
REMARK    9  A    between atoms: O_28  and  C_29
REMARK   10  A    between atoms: C_30  and  O_31
REMARK   11  A    between atoms: O_31  and  C_32
REMARK                            x       y       z     vdW  Elec       q    Type
REMARK                         _______ _______ _______ _____ _____    ______ ____
ROOT
ATOM      1  N   UNL     1      -0.171  11.568  22.071  0.00  0.00    +0.000 NA
ATOM      2  C   UNL     1      -0.601  12.390  20.851  0.00  0.00    +0.000 C 
ATOM      3  C   UNL     1       0.272  11.886  19.779  0.00  0.00    +0.000 C 
ATOM      4  O   UNL     1       0.388  11.188  18.599  0.00  0.00    +0.000 OA
ATOM      5  C   UNL     1       0.952   9.965  19.006  0.00  0.00    +0.000 A 
ATOM      6  C   UNL     1       1.561   9.386  17.893  0.00  0.00    +0.000 A 
ATOM      7  C   UNL     1       2.184   8.170  18.005  0.00  0.00    +0.000 A 
ATOM      8  C   UNL     1       2.215   7.478  19.231  0.00  0.00    +0.000 A 
ATOM      9  C   UNL     1       1.583   8.080  20.398  0.00  0.00    +0.000 A 
ATOM     10  C   UNL     1       0.934   9.388  20.348  0.00  0.00    +0.000 A 
ATOM     11  C   UNL     1       0.075  10.008  21.734  0.00  0.00    +0.000 C 
ENDROOT
BRANCH   1  12
ATOM     12  C   UNL     1      -1.258  12.001  23.020  0.00  0.00    +0.000 C 
BRANCH  12  16
ATOM     13  C   UNL     1      -2.716  16.066  23.256  0.00  0.00    +0.000 A 
ATOM     14  C   UNL     1      -1.333  15.810  23.227  0.00  0.00    +0.000 A 
ATOM     15  C   UNL     1      -0.839  14.498  23.304  0.00  0.00    +0.000 A 
ATOM     16  C   UNL     1      -1.707  13.398  23.434  0.00  0.00    +0.000 A 
ATOM     17  C   UNL     1      -3.096  13.657  23.526  0.00  0.00    +0.000 A 
ATOM     18  C   UNL     1      -3.609  14.988  23.456  0.00  0.00    +0.000 A 
BRANCH  13  20
ATOM     19  C   UNL     1      -2.867  18.039  21.921  0.00  0.00    +0.000 C 
ATOM     20  O   UNL     1      -3.215  17.337  23.109  0.00  0.00    +0.000 OA
ENDBRANCH  13  20
BRANCH  17  21
ATOM     21  O   UNL     1      -3.820  12.488  23.580  0.00  0.00    +0.000 OA
ATOM     22  C   UNL     1      -4.581  12.151  24.721  0.00  0.00    +0.000 C 
ENDBRANCH  17  21
BRANCH  18  23
ATOM     23  O   UNL     1      -4.973  15.085  23.531  0.00  0.00    +0.000 OA
ATOM     24  C   UNL     1      -5.784  15.210  22.378  0.00  0.00    +0.000 C 
ENDBRANCH  18  23
ENDBRANCH  12  16
ENDBRANCH   1  12
BRANCH   8  25
ATOM     25  C   UNL     1       2.986   6.141  19.094  0.00  0.00    +0.000 C 
BRANCH  25  26
ATOM     26  C   UNL     1       2.177   4.840  19.005  0.00  0.00    +0.000 A 
ATOM     27  C   UNL     1       1.502   4.332  20.129  0.00  0.00    +0.000 A 
ATOM     28  C   UNL     1       0.803   3.125  20.069  0.00  0.00    +0.000 A 
ATOM     29  C   UNL     1       0.784   2.443  18.866  0.00  0.00    +0.000 A 
ATOM     30  N   UNL     1       1.407   2.894  17.756  0.00  0.00    +0.000 NA
ATOM     31  C   UNL     1       2.081   4.072  17.846  0.00  0.00    +0.000 A 
ENDBRANCH  25  26
BRANCH  25  32
ATOM     32  O   UNL     1       4.079   5.932  19.961  0.00  0.00    +0.000 OA
ATOM     33  H   UNL     1       4.808   6.487  19.642  0.00  0.00    +0.000 HD
ENDBRANCH  25  32
ENDBRANCH   8  25
TORSDOF 8
ENDMDL
MODEL 3
REMARK VINA RESULT:      -7.5      2.057      2.918
REMARK  Name = 
REMARK  11 active torsions:
REMARK  status: ('A' for Active; 'I' for Inactive)
REMARK    1  A    between atoms: C_1  and  O_2
REMARK    2  A    between atoms: O_2  and  C_3
REMARK    3  A    between atoms: C_6  and  C_7
REMARK    4  A    between atoms: C_7  and  N_8
REMARK    5  A    between atoms: C_15  and  C_16
REMARK    6  A    between atoms: C_16  and  O_17
REMARK    7  A    between atoms: C_16  and  C_18
REMARK    8  A    between atoms: C_27  and  O_28
REMARK    9  A    between atoms: O_28  and  C_29
REMARK   10  A    between atoms: C_30  and  O_31
REMARK   11  A    between atoms: O_31  and  C_32
REMARK                            x       y       z     vdW  Elec       q    Type
REMARK                         _______ _______ _______ _____ _____    ______ ____
ROOT
ATOM      1  N   UNL     1       0.467  11.853  20.628  0.00  0.00    +0.000 NA
ATOM      2  C   UNL     1       0.532  12.275  19.156  0.00  0.00    +0.000 C 
ATOM      3  C   UNL     1       1.470  11.307  18.567  0.00  0.00    +0.000 C 
ATOM      4  O   UNL     1       1.670  10.243  17.717  0.00  0.00    +0.000 OA
ATOM      5  C   UNL     1       1.815   9.154  18.597  0.00  0.00    +0.000 A 
ATOM      6  C   UNL     1       2.494   8.145  17.916  0.00  0.00    +0.000 A 
ATOM      7  C   UNL     1       2.761   6.954  18.540  0.00  0.00    +0.000 A 
ATOM      8  C   UNL     1       2.351   6.719  19.866  0.00  0.00    +0.000 A 
ATOM      9  C   UNL     1       1.643   7.772  20.584  0.00  0.00    +0.000 A 
ATOM     10  C   UNL     1       1.360   9.074  19.983  0.00  0.00    +0.000 A 
ATOM     11  C   UNL     1       0.394  10.252  20.830  0.00  0.00    +0.000 C 
ENDROOT
BRANCH   1  12
ATOM     12  C   UNL     1      -0.663  12.749  21.063  0.00  0.00    +0.000 C 
BRANCH  12  16
ATOM     13  C   UNL     1      -4.552  12.723  22.958  0.00  0.00    +0.000 A 
ATOM     14  C   UNL     1      -3.393  12.466  23.714  0.00  0.00    +0.000 A 
ATOM     15  C   UNL     1      -2.142  12.320  23.094  0.00  0.00    +0.000 A 
ATOM     16  C   UNL     1      -2.008  12.404  21.695  0.00  0.00    +0.000 A 
ATOM     17  C   UNL     1      -3.181  12.599  20.927  0.00  0.00    +0.000 A 
ATOM     18  C   UNL     1      -4.458  12.742  21.547  0.00  0.00    +0.000 A 
BRANCH  13  20
ATOM     19  C   UNL     1      -6.163  14.292  23.757  0.00  0.00    +0.000 C 
ATOM     20  O   UNL     1      -5.768  12.940  23.558  0.00  0.00    +0.000 OA
ENDBRANCH  13  20
BRANCH  17  21
ATOM     21  O   UNL     1      -2.886  12.728  19.589  0.00  0.00    +0.000 OA
ATOM     22  C   UNL     1      -3.103  11.664  18.686  0.00  0.00    +0.000 C 
ENDBRANCH  17  21
BRANCH  18  23
ATOM     23  O   UNL     1      -5.500  12.954  20.682  0.00  0.00    +0.000 OA
ATOM     24  C   UNL     1      -6.433  11.939  20.363  0.00  0.00    +0.000 C 
ENDBRANCH  18  23
ENDBRANCH  12  16
ENDBRANCH   1  12
BRANCH   8  25
ATOM     25  C   UNL     1       2.783   5.309  20.339  0.00  0.00    +0.000 C 
BRANCH  25  26
ATOM     26  C   UNL     1       2.673   4.142  19.348  0.00  0.00    +0.000 A 
ATOM     27  C   UNL     1       3.817   3.619  18.721  0.00  0.00    +0.000 A 
ATOM     28  C   UNL     1       3.721   2.589  17.784  0.00  0.00    +0.000 A 
ATOM     29  C   UNL     1       2.465   2.088  17.493  0.00  0.00    +0.000 A 
ATOM     30  N   UNL     1       1.337   2.549  18.076  0.00  0.00    +0.000 NA
ATOM     31  C   UNL     1       1.463   3.554  18.984  0.00  0.00    +0.000 A 
ENDBRANCH  25  26
BRANCH  25  32
ATOM     32  O   UNL     1       2.314   4.875  21.597  0.00  0.00    +0.000 OA
ATOM     33  H   UNL     1       2.901   5.257  22.269  0.00  0.00    +0.000 HD
ENDBRANCH  25  32
ENDBRANCH   8  25
TORSDOF 8
ENDMDL
MODEL 4
REMARK VINA RESULT:      -7.5      1.011      1.208
REMARK  Name = 
REMARK  11 active torsions:
REMARK  status: ('A' for Active; 'I' for Inactive)
REMARK    1  A    between atoms: C_1  and  O_2
REMARK    2  A    between atoms: O_2  and  C_3
REMARK    3  A    between atoms: C_6  and  C_7
REMARK    4  A    between atoms: C_7  and  N_8
REMARK    5  A    between atoms: C_15  and  C_16
REMARK    6  A    between atoms: C_16  and  O_17
REMARK    7  A    between atoms: C_16  and  C_18
REMARK    8  A    between atoms: C_27  and  O_28
REMARK    9  A    between atoms: O_28  and  C_29
REMARK   10  A    between atoms: C_30  and  O_31
REMARK   11  A    between atoms: O_31  and  C_32
REMARK                            x       y       z     vdW  Elec       q    Type
REMARK                         _______ _______ _______ _____ _____    ______ ____
ROOT
ATOM      1  N   UNL     1       0.024  11.523  22.047  0.00  0.00    +0.000 NA
ATOM      2  C   UNL     1      -0.345  12.370  20.824  0.00  0.00    +0.000 C 
ATOM      3  C   UNL     1       0.519  11.827  19.764  0.00  0.00    +0.000 C 
ATOM      4  O   UNL     1       0.619  11.128  18.583  0.00  0.00    +0.000 OA
ATOM      5  C   UNL     1       1.115   9.877  18.994  0.00  0.00    +0.000 A 
ATOM      6  C   UNL     1       1.712   9.272  17.888  0.00  0.00    +0.000 A 
ATOM      7  C   UNL     1       2.272   8.026  18.005  0.00  0.00    +0.000 A 
ATOM      8  C   UNL     1       2.248   7.329  19.228  0.00  0.00    +0.000 A 
ATOM      9  C   UNL     1       1.629   7.958  20.387  0.00  0.00    +0.000 A 
ATOM     10  C   UNL     1       1.047   9.297  20.333  0.00  0.00    +0.000 A 
ATOM     11  C   UNL     1       0.197   9.954  21.707  0.00  0.00    +0.000 C 
ENDROOT
BRANCH   1  12
ATOM     12  C   UNL     1      -1.055  12.006  22.981  0.00  0.00    +0.000 C 
BRANCH  12  16
ATOM     13  C   UNL     1      -4.503  14.607  23.229  0.00  0.00    +0.000 A 
ATOM     14  C   UNL     1      -4.612  13.341  22.622  0.00  0.00    +0.000 A 
ATOM     15  C   UNL     1      -3.476  12.548  22.396  0.00  0.00    +0.000 A 
ATOM     16  C   UNL     1      -2.190  12.999  22.748  0.00  0.00    +0.000 A 
ATOM     17  C   UNL     1      -2.070  14.297  23.300  0.00  0.00    +0.000 A 
ATOM     18  C   UNL     1      -3.218  15.114  23.528  0.00  0.00    +0.000 A 
BRANCH  13  20
ATOM     19  C   UNL     1      -6.561  15.553  22.478  0.00  0.00    +0.000 C 
ATOM     20  O   UNL     1      -5.613  15.361  23.521  0.00  0.00    +0.000 OA
ENDBRANCH  13  20
BRANCH  17  21
ATOM     21  O   UNL     1      -0.769  14.571  23.655  0.00  0.00    +0.000 OA
ATOM     22  C   UNL     1       0.036  15.430  22.876  0.00  0.00    +0.000 C 
ENDBRANCH  17  21
BRANCH  18  23
ATOM     23  O   UNL     1      -2.955  16.334  24.094  0.00  0.00    +0.000 OA
ATOM     24  C   UNL     1      -3.033  17.540  23.357  0.00  0.00    +0.000 C 
ENDBRANCH  18  23
ENDBRANCH  12  16
ENDBRANCH   1  12
BRANCH   8  25
ATOM     25  C   UNL     1       2.954   5.956  19.098  0.00  0.00    +0.000 C 
BRANCH  25  26
ATOM     26  C   UNL     1       2.364   4.759  19.856  0.00  0.00    +0.000 A 
ATOM     27  C   UNL     1       1.425   3.909  19.245  0.00  0.00    +0.000 A 
ATOM     28  C   UNL     1       0.849   2.847  19.943  0.00  0.00    +0.000 A 
ATOM     29  C   UNL     1       1.235   2.644  21.256  0.00  0.00    +0.000 A 
ATOM     30  N   UNL     1       2.140   3.425  21.884  0.00  0.00    +0.000 NA
ATOM     31  C   UNL     1       2.682   4.454  21.178  0.00  0.00    +0.000 A 
ENDBRANCH  25  26
BRANCH  25  32
ATOM     32  O   UNL     1       4.357   5.932  19.242  0.00  0.00    +0.000 OA
ATOM     33  H   UNL     1       4.689   6.799  18.962  0.00  0.00    +0.000 HD
ENDBRANCH  25  32
ENDBRANCH   8  25
TORSDOF 8
ENDMDL
MODEL 5
REMARK VINA RESULT:      -7.4      3.507      5.420
REMARK  Name = 
REMARK  11 active torsions:
REMARK  status: ('A' for Active; 'I' for Inactive)
REMARK    1  A    between atoms: C_1  and  O_2
REMARK    2  A    between atoms: O_2  and  C_3
REMARK    3  A    between atoms: C_6  and  C_7
REMARK    4  A    between atoms: C_7  and  N_8
REMARK    5  A    between atoms: C_15  and  C_16
REMARK    6  A    between atoms: C_16  and  O_17
REMARK    7  A    between atoms: C_16  and  C_18
REMARK    8  A    between atoms: C_27  and  O_28
REMARK    9  A    between atoms: O_28  and  C_29
REMARK   10  A    between atoms: C_30  and  O_31
REMARK   11  A    between atoms: O_31  and  C_32
REMARK                            x       y       z     vdW  Elec       q    Type
REMARK                         _______ _______ _______ _____ _____    ______ ____
ROOT
ATOM      1  N   UNL     1       0.183  11.526  18.663  0.00  0.00    +0.000 NA
ATOM      2  C   UNL     1      -0.169  11.403  20.150  0.00  0.00    +0.000 C 
ATOM      3  C   UNL     1       0.014   9.970  20.424  0.00  0.00    +0.000 C 
ATOM      4  O   UNL     1       0.734   8.985  21.061  0.00  0.00    +0.000 OA
ATOM      5  C   UNL     1       1.486   8.413  20.018  0.00  0.00    +0.000 A 
ATOM      6  C   UNL     1       1.863   7.132  20.419  0.00  0.00    +0.000 A 
ATOM      7  C   UNL     1       2.622   6.348  19.589  0.00  0.00    +0.000 A 
ATOM      8  C   UNL     1       3.044   6.815  18.330  0.00  0.00    +0.000 A 
ATOM      9  C   UNL     1       2.650   8.152  17.905  0.00  0.00    +0.000 A 
ATOM     10  C   UNL     1       1.813   9.021  18.731  0.00  0.00    +0.000 A 
ATOM     11  C   UNL     1       1.480  10.661  18.241  0.00  0.00    +0.000 C 
ENDROOT
BRANCH   1  12
ATOM     12  C   UNL     1       0.178  13.029  18.560  0.00  0.00    +0.000 C 
BRANCH  12  16
ATOM     13  C   UNL     1       3.312  16.010  18.530  0.00  0.00    +0.000 A 
ATOM     14  C   UNL     1       3.633  14.646  18.661  0.00  0.00    +0.000 A 
ATOM     15  C   UNL     1       2.627  13.680  18.826  0.00  0.00    +0.000 A 
ATOM     16  C   UNL     1       1.269  14.043  18.886  0.00  0.00    +0.000 A 
ATOM     17  C   UNL     1       0.948  15.421  18.817  0.00  0.00    +0.000 A 
ATOM     18  C   UNL     1       1.963  16.412  18.657  0.00  0.00    +0.000 A 
BRANCH  13  20
ATOM     19  C   UNL     1       5.274  17.130  19.298  0.00  0.00    +0.000 C 
ATOM     20  O   UNL     1       4.280  16.956  18.296  0.00  0.00    +0.000 OA
ENDBRANCH  13  20
BRANCH  17  21
ATOM     21  O   UNL     1      -0.414  15.616  18.820  0.00  0.00    +0.000 OA
ATOM     22  C   UNL     1      -1.086  16.062  19.980  0.00  0.00    +0.000 C 
ENDBRANCH  17  21
BRANCH  18  23
ATOM     23  O   UNL     1       1.504  17.700  18.577  0.00  0.00    +0.000 OA
ATOM     24  C   UNL     1       1.065  18.270  17.359  0.00  0.00    +0.000 C 
ENDBRANCH  18  23
ENDBRANCH  12  16
ENDBRANCH   1  12
BRANCH   8  25
ATOM     25  C   UNL     1       3.874   5.739  17.588  0.00  0.00    +0.000 C 
BRANCH  25  26
ATOM     26  C   UNL     1       3.652   4.265  17.955  0.00  0.00    +0.000 A 
ATOM     27  C   UNL     1       2.590   3.534  17.392  0.00  0.00    +0.000 A 
ATOM     28  C   UNL     1       2.353   2.208  17.756  0.00  0.00    +0.000 A 
ATOM     29  C   UNL     1       3.198   1.625  18.682  0.00  0.00    +0.000 A 
ATOM     30  N   UNL     1       4.238   2.281  19.243  0.00  0.00    +0.000 NA
ATOM     31  C   UNL     1       4.442   3.573  18.870  0.00  0.00    +0.000 A 
ENDBRANCH  25  26
BRANCH  25  32
ATOM     32  O   UNL     1       5.261   5.965  17.458  0.00  0.00    +0.000 OA
ATOM     33  H   UNL     1       5.712   5.296  17.996  0.00  0.00    +0.000 HD
ENDBRANCH  25  32
ENDBRANCH   8  25
TORSDOF 8
ENDMDL
MODEL 6
REMARK VINA RESULT:      -7.3      1.358      2.368
REMARK  Name = 
REMARK  11 active torsions:
REMARK  status: ('A' for Active; 'I' for Inactive)
REMARK    1  A    between atoms: C_1  and  O_2
REMARK    2  A    between atoms: O_2  and  C_3
REMARK    3  A    between atoms: C_6  and  C_7
REMARK    4  A    between atoms: C_7  and  N_8
REMARK    5  A    between atoms: C_15  and  C_16
REMARK    6  A    between atoms: C_16  and  O_17
REMARK    7  A    between atoms: C_16  and  C_18
REMARK    8  A    between atoms: C_27  and  O_28
REMARK    9  A    between atoms: O_28  and  C_29
REMARK   10  A    between atoms: C_30  and  O_31
REMARK   11  A    between atoms: O_31  and  C_32
REMARK                            x       y       z     vdW  Elec       q    Type
REMARK                         _______ _______ _______ _____ _____    ______ ____
ROOT
ATOM      1  N   UNL     1      -0.101  11.504  22.025  0.00  0.00    +0.000 NA
ATOM      2  C   UNL     1      -0.500  12.278  20.763  0.00  0.00    +0.000 C 
ATOM      3  C   UNL     1       0.382  11.716  19.729  0.00  0.00    +0.000 C 
ATOM      4  O   UNL     1       0.507  10.966  18.582  0.00  0.00    +0.000 OA
ATOM      5  C   UNL     1       1.049   9.754  19.052  0.00  0.00    +0.000 A 
ATOM      6  C   UNL     1       1.667   9.119  17.975  0.00  0.00    +0.000 A 
ATOM      7  C   UNL     1       2.272   7.902  18.150  0.00  0.00    +0.000 A 
ATOM      8  C   UNL     1       2.274   7.264  19.405  0.00  0.00    +0.000 A 
ATOM      9  C   UNL     1       1.633   7.924  20.535  0.00  0.00    +0.000 A 
ATOM     10  C   UNL     1       1.002   9.237  20.417  0.00  0.00    +0.000 A 
ATOM     11  C   UNL     1       0.130   9.928  21.760  0.00  0.00    +0.000 C 
ENDROOT
BRANCH   1  12
ATOM     12  C   UNL     1      -1.196  11.992  22.937  0.00  0.00    +0.000 C 
BRANCH  12  16
ATOM     13  C   UNL     1      -2.495  16.112  23.153  0.00  0.00    +0.000 A 
ATOM     14  C   UNL     1      -1.124  15.804  23.097  0.00  0.00    +0.000 A 
ATOM     15  C   UNL     1      -0.677  14.475  23.180  0.00  0.00    +0.000 A 
ATOM     16  C   UNL     1      -1.583  13.410  23.343  0.00  0.00    +0.000 A 
ATOM     17  C   UNL     1      -2.959  13.723  23.463  0.00  0.00    +0.000 A 
ATOM     18  C   UNL     1      -3.423  15.071  23.387  0.00  0.00    +0.000 A 
BRANCH  13  20
ATOM     19  C   UNL     1      -2.932  18.235  24.152  0.00  0.00    +0.000 C 
ATOM     20  O   UNL     1      -2.949  17.399  23.001  0.00  0.00    +0.000 OA
ENDBRANCH  13  20
BRANCH  17  21
ATOM     21  O   UNL     1      -3.725  12.582  23.548  0.00  0.00    +0.000 OA
ATOM     22  C   UNL     1      -4.493  12.301  24.699  0.00  0.00    +0.000 C 
ENDBRANCH  17  21
BRANCH  18  23
ATOM     23  O   UNL     1      -4.781  15.221  23.491  0.00  0.00    +0.000 OA
ATOM     24  C   UNL     1      -5.625  15.247  22.356  0.00  0.00    +0.000 C 
ENDBRANCH  18  23
ENDBRANCH  12  16
ENDBRANCH   1  12
BRANCH   8  25
ATOM     25  C   UNL     1       3.029   5.913  19.340  0.00  0.00    +0.000 C 
BRANCH  25  26
ATOM     26  C   UNL     1       2.405   4.695  20.034  0.00  0.00    +0.000 A 
ATOM     27  C   UNL     1       1.460   3.892  19.371  0.00  0.00    +0.000 A 
ATOM     28  C   UNL     1       0.853   2.811  20.011  0.00  0.00    +0.000 A 
ATOM     29  C   UNL     1       1.214   2.541  21.319  0.00  0.00    +0.000 A 
ATOM     30  N   UNL     1       2.124   3.275  21.996  0.00  0.00    +0.000 NA
ATOM     31  C   UNL     1       2.697   4.324  21.346  0.00  0.00    +0.000 A 
ENDBRANCH  25  26
BRANCH  25  32
ATOM     32  O   UNL     1       4.412   5.929  19.618  0.00  0.00    +0.000 OA
ATOM     33  H   UNL     1       4.863   5.532  18.856  0.00  0.00    +0.000 HD
ENDBRANCH  25  32
ENDBRANCH   8  25
TORSDOF 8
ENDMDL
MODEL 7
REMARK VINA RESULT:      -7.3      3.488      5.671
REMARK  Name = 
REMARK  11 active torsions:
REMARK  status: ('A' for Active; 'I' for Inactive)
REMARK    1  A    between atoms: C_1  and  O_2
REMARK    2  A    between atoms: O_2  and  C_3
REMARK    3  A    between atoms: C_6  and  C_7
REMARK    4  A    between atoms: C_7  and  N_8
REMARK    5  A    between atoms: C_15  and  C_16
REMARK    6  A    between atoms: C_16  and  O_17
REMARK    7  A    between atoms: C_16  and  C_18
REMARK    8  A    between atoms: C_27  and  O_28
REMARK    9  A    between atoms: O_28  and  C_29
REMARK   10  A    between atoms: C_30  and  O_31
REMARK   11  A    between atoms: O_31  and  C_32
REMARK                            x       y       z     vdW  Elec       q    Type
REMARK                         _______ _______ _______ _____ _____    ______ ____
ROOT
ATOM      1  N   UNL     1       0.195  10.085  18.694  0.00  0.00    +0.000 NA
ATOM      2  C   UNL     1       0.238  10.240  20.218  0.00  0.00    +0.000 C 
ATOM      3  C   UNL     1       0.555   8.882  20.687  0.00  0.00    +0.000 C 
ATOM      4  O   UNL     1       1.460   8.033  21.282  0.00  0.00    +0.000 OA
ATOM      5  C   UNL     1       1.949   7.279  20.200  0.00  0.00    +0.000 A 
ATOM      6  C   UNL     1       2.478   6.094  20.713  0.00  0.00    +0.000 A 
ATOM      7  C   UNL     1       3.038   5.171  19.869  0.00  0.00    +0.000 A 
ATOM      8  C   UNL     1       3.104   5.397  18.481  0.00  0.00    +0.000 A 
ATOM      9  C   UNL     1       2.550   6.632  17.940  0.00  0.00    +0.000 A 
ATOM     10  C   UNL     1       1.909   7.638  18.785  0.00  0.00    +0.000 A 
ATOM     11  C   UNL     1       1.383   9.158  18.113  0.00  0.00    +0.000 C 
ENDROOT
BRANCH   1  12
ATOM     12  C   UNL     1       0.091  11.543  18.329  0.00  0.00    +0.000 C 
BRANCH  12  16
ATOM     13  C   UNL     1       2.372  15.210  18.570  0.00  0.00    +0.000 A 
ATOM     14  C   UNL     1       3.014  13.995  18.267  0.00  0.00    +0.000 A 
ATOM     15  C   UNL     1       2.321  12.776  18.333  0.00  0.00    +0.000 A 
ATOM     16  C   UNL     1       0.971  12.724  18.725  0.00  0.00    +0.000 A 
ATOM     17  C   UNL     1       0.340  13.938  19.091  0.00  0.00    +0.000 A 
ATOM     18  C   UNL     1       1.037  15.183  19.034  0.00  0.00    +0.000 A 
BRANCH  13  20
ATOM     19  C   UNL     1       3.037  17.005  17.145  0.00  0.00    +0.000 C 
ATOM     20  O   UNL     1       3.017  16.415  18.439  0.00  0.00    +0.000 OA
ENDBRANCH  13  20
BRANCH  17  21
ATOM     21  O   UNL     1      -0.990  13.741  19.383  0.00  0.00    +0.000 OA
ATOM     22  C   UNL     1      -1.444  13.676  20.719  0.00  0.00    +0.000 C 
ENDBRANCH  17  21
BRANCH  18  23
ATOM     23  O   UNL     1       0.293  16.277  19.390  0.00  0.00    +0.000 OA
ATOM     24  C   UNL     1      -0.476  17.003  18.451  0.00  0.00    +0.000 C 
ENDBRANCH  18  23
ENDBRANCH  12  16
ENDBRANCH   1  12
BRANCH   8  25
ATOM     25  C   UNL     1       3.770   4.202  17.754  0.00  0.00    +0.000 C 
BRANCH  25  26
ATOM     26  C   UNL     1       5.023   4.470  16.909  0.00  0.00    +0.000 A 
ATOM     27  C   UNL     1       4.936   4.606  15.512  0.00  0.00    +0.000 A 
ATOM     28  C   UNL     1       6.076   4.803  14.732  0.00  0.00    +0.000 A 
ATOM     29  C   UNL     1       7.300   4.871  15.372  0.00  0.00    +0.000 A 
ATOM     30  N   UNL     1       7.435   4.758  16.711  0.00  0.00    +0.000 NA
ATOM     31  C   UNL     1       6.306   4.564  17.445  0.00  0.00    +0.000 A 
ENDBRANCH  25  26
BRANCH  25  32
ATOM     32  O   UNL     1       2.926   3.326  17.040  0.00  0.00    +0.000 OA
ATOM     33  H   UNL     1       2.185   3.102  17.624  0.00  0.00    +0.000 HD
ENDBRANCH  25  32
ENDBRANCH   8  25
TORSDOF 8
ENDMDL
MODEL 8
REMARK VINA RESULT:      -7.3      2.352     10.922
REMARK  Name = 
REMARK  11 active torsions:
REMARK  status: ('A' for Active; 'I' for Inactive)
REMARK    1  A    between atoms: C_1  and  O_2
REMARK    2  A    between atoms: O_2  and  C_3
REMARK    3  A    between atoms: C_6  and  C_7
REMARK    4  A    between atoms: C_7  and  N_8
REMARK    5  A    between atoms: C_15  and  C_16
REMARK    6  A    between atoms: C_16  and  O_17
REMARK    7  A    between atoms: C_16  and  C_18
REMARK    8  A    between atoms: C_27  and  O_28
REMARK    9  A    between atoms: O_28  and  C_29
REMARK   10  A    between atoms: C_30  and  O_31
REMARK   11  A    between atoms: O_31  and  C_32
REMARK                            x       y       z     vdW  Elec       q    Type
REMARK                         _______ _______ _______ _____ _____    ______ ____
ROOT
ATOM      1  N   UNL     1       1.448   8.106  19.454  0.00  0.00    +0.000 NA
ATOM      2  C   UNL     1       1.930   8.973  18.286  0.00  0.00    +0.000 C 
ATOM      3  C   UNL     1       1.062  10.157  18.363  0.00  0.00    +0.000 C 
ATOM      4  O   UNL     1       0.944  11.505  18.617  0.00  0.00    +0.000 OA
ATOM      5  C   UNL     1       0.329  11.539  19.882  0.00  0.00    +0.000 A 
ATOM      6  C   UNL     1      -0.277  12.786  20.026  0.00  0.00    +0.000 A 
ATOM      7  C   UNL     1      -0.945  13.096  21.183  0.00  0.00    +0.000 A 
ATOM      8  C   UNL     1      -1.024  12.177  22.247  0.00  0.00    +0.000 A 
ATOM      9  C   UNL     1      -0.395  10.871  22.100  0.00  0.00    +0.000 A 
ATOM     10  C   UNL     1       0.300  10.471  20.878  0.00  0.00    +0.000 A 
ATOM     11  C   UNL     1       1.153   8.952  20.798  0.00  0.00    +0.000 C 
ENDROOT
BRANCH   1  12
ATOM     12  C   UNL     1       2.530   7.058  19.411  0.00  0.00    +0.000 C 
BRANCH  12  16
ATOM     13  C   UNL     1       4.685   4.422  16.743  0.00  0.00    +0.000 A 
ATOM     14  C   UNL     1       5.034   5.782  16.830  0.00  0.00    +0.000 A 
ATOM     15  C   UNL     1       4.253   6.683  17.572  0.00  0.00    +0.000 A 
ATOM     16  C   UNL     1       3.086   6.262  18.235  0.00  0.00    +0.000 A 
ATOM     17  C   UNL     1       2.697   4.908  18.097  0.00  0.00    +0.000 A 
ATOM     18  C   UNL     1       3.480   3.985  17.339  0.00  0.00    +0.000 A 
BRANCH  13  20
ATOM     19  C   UNL     1       6.032   3.927  14.837  0.00  0.00    +0.000 C 
ATOM     20  O   UNL     1       5.478   3.518  16.081  0.00  0.00    +0.000 OA
ENDBRANCH  13  20
BRANCH  17  21
ATOM     21  O   UNL     1       1.580   4.629  18.851  0.00  0.00    +0.000 OA
ATOM     22  C   UNL     1       1.690   4.039  20.130  0.00  0.00    +0.000 C 
ENDBRANCH  17  21
BRANCH  18  23
ATOM     23  O   UNL     1       2.998   2.703  17.316  0.00  0.00    +0.000 OA
ATOM     24  C   UNL     1       3.516   1.687  18.154  0.00  0.00    +0.000 C 
ENDBRANCH  18  23
ENDBRANCH  12  16
ENDBRANCH   1  12
BRANCH   8  25
ATOM     25  C   UNL     1      -1.839  12.763  23.427  0.00  0.00    +0.000 C 
BRANCH  25  26
ATOM     26  C   UNL     1      -3.371  12.716  23.349  0.00  0.00    +0.000 A 
ATOM     27  C   UNL     1      -4.150  12.626  24.517  0.00  0.00    +0.000 A 
ATOM     28  C   UNL     1      -5.541  12.536  24.453  0.00  0.00    +0.000 A 
ATOM     29  C   UNL     1      -6.138  12.547  23.205  0.00  0.00    +0.000 A 
ATOM     30  N   UNL     1      -5.435  12.644  22.055  0.00  0.00    +0.000 NA
ATOM     31  C   UNL     1      -4.081  12.727  22.150  0.00  0.00    +0.000 A 
ENDBRANCH  25  26
BRANCH  25  32
ATOM     32  O   UNL     1      -1.452  14.028  23.917  0.00  0.00    +0.000 OA
ATOM     33  H   UNL     1      -1.566  14.663  23.192  0.00  0.00    +0.000 HD
ENDBRANCH  25  32
ENDBRANCH   8  25
TORSDOF 8
ENDMDL
MODEL 9
REMARK VINA RESULT:      -7.3      3.844      5.921
REMARK  Name = 
REMARK  11 active torsions:
REMARK  status: ('A' for Active; 'I' for Inactive)
REMARK    1  A    between atoms: C_1  and  O_2
REMARK    2  A    between atoms: O_2  and  C_3
REMARK    3  A    between atoms: C_6  and  C_7
REMARK    4  A    between atoms: C_7  and  N_8
REMARK    5  A    between atoms: C_15  and  C_16
REMARK    6  A    between atoms: C_16  and  O_17
REMARK    7  A    between atoms: C_16  and  C_18
REMARK    8  A    between atoms: C_27  and  O_28
REMARK    9  A    between atoms: O_28  and  C_29
REMARK   10  A    between atoms: C_30  and  O_31
REMARK   11  A    between atoms: O_31  and  C_32
REMARK                            x       y       z     vdW  Elec       q    Type
REMARK                         _______ _______ _______ _____ _____    ______ ____
ROOT
ATOM      1  N   UNL     1       0.001  11.900  18.729  0.00  0.00    +0.000 NA
ATOM      2  C   UNL     1      -0.395  12.037  20.203  0.00  0.00    +0.000 C 
ATOM      3  C   UNL     1      -0.354  10.652  20.695  0.00  0.00    +0.000 C 
ATOM      4  O   UNL     1       0.255   9.715  21.498  0.00  0.00    +0.000 OA
ATOM      5  C   UNL     1       0.973   8.926  20.581  0.00  0.00    +0.000 A 
ATOM      6  C   UNL     1       1.219   7.692  21.182  0.00  0.00    +0.000 A 
ATOM      7  C   UNL     1       1.918   6.726  20.507  0.00  0.00    +0.000 A 
ATOM      8  C   UNL     1       2.411   6.956  19.209  0.00  0.00    +0.000 A 
ATOM      9  C   UNL     1       2.155   8.243  18.574  0.00  0.00    +0.000 A 
ATOM     10  C   UNL     1       1.386   9.299  19.230  0.00  0.00    +0.000 A 
ATOM     11  C   UNL     1       1.219  10.868  18.489  0.00  0.00    +0.000 C 
ENDROOT
BRANCH   1  12
ATOM     12  C   UNL     1       0.140  13.364  18.402  0.00  0.00    +0.000 C 
BRANCH  12  16
ATOM     13  C   UNL     1       3.346  16.264  18.561  0.00  0.00    +0.000 A 
ATOM     14  C   UNL     1       3.614  14.899  18.770  0.00  0.00    +0.000 A 
ATOM     15  C   UNL     1       2.571  13.964  18.874  0.00  0.00    +0.000 A 
ATOM     16  C   UNL     1       1.224  14.363  18.793  0.00  0.00    +0.000 A 
ATOM     17  C   UNL     1       0.950  15.745  18.645  0.00  0.00    +0.000 A 
ATOM     18  C   UNL     1       2.003  16.704  18.546  0.00  0.00    +0.000 A 
BRANCH  13  20
ATOM     19  C   UNL     1       5.659  16.794  18.814  0.00  0.00    +0.000 C 
ATOM     20  O   UNL     1       4.358  17.176  18.386  0.00  0.00    +0.000 OA
ENDBRANCH  13  20
BRANCH  17  21
ATOM     21  O   UNL     1      -0.401  15.974  18.513  0.00  0.00    +0.000 OA
ATOM     22  C   UNL     1      -1.158  16.517  19.575  0.00  0.00    +0.000 C 
ENDBRANCH  17  21
BRANCH  18  23
ATOM     23  O   UNL     1       1.589  17.999  18.378  0.00  0.00    +0.000 OA
ATOM     24  C   UNL     1       1.243  18.521  17.109  0.00  0.00    +0.000 C 
ENDBRANCH  18  23
ENDBRANCH  12  16
ENDBRANCH   1  12
BRANCH   8  25
ATOM     25  C   UNL     1       3.153   5.709  18.666  0.00  0.00    +0.000 C 
BRANCH  25  26
ATOM     26  C   UNL     1       4.671   5.797  18.458  0.00  0.00    +0.000 A 
ATOM     27  C   UNL     1       5.210   6.520  17.380  0.00  0.00    +0.000 A 
ATOM     28  C   UNL     1       6.587   6.567  17.157  0.00  0.00    +0.000 A 
ATOM     29  C   UNL     1       7.413   5.887  18.034  0.00  0.00    +0.000 A 
ATOM     30  N   UNL     1       6.945   5.188  19.091  0.00  0.00    +0.000 NA
ATOM     31  C   UNL     1       5.598   5.159  19.281  0.00  0.00    +0.000 A 
ENDBRANCH  25  26
BRANCH  25  32
ATOM     32  O   UNL     1       2.585   5.049  17.557  0.00  0.00    +0.000 OA
ATOM     33  H   UNL     1       3.314   4.652  17.055  0.00  0.00    +0.000 HD
ENDBRANCH  25  32
ENDBRANCH   8  25
TORSDOF 8
ENDMDL
