MODEL 1
REMARK VINA RESULT:      -7.6      0.000      0.000
REMARK  Name = 
REMARK  3 active torsions:
REMARK  status: ('A' for Active; 'I' for Inactive)
REMARK    1  A    between atoms: C_8  and  O_9
REMARK    2  A    between atoms: O_9  and  C_10
REMARK    3  A    between atoms: C_13  and  N_14
REMARK                            x       y       z     vdW  Elec       q    Type
REMARK                         _______ _______ _______ _____ _____    ______ ____
ROOT
ATOM      1  O   UNL     1       0.369   9.634  23.770  0.00  0.00    +0.000 OA
ATOM      2  C   UNL     1       0.645   9.689  22.582  0.00  0.00    +0.000 A 
ATOM      3  C   UNL     1       0.443  10.930  21.811  0.00  0.00    +0.000 A 
ATOM      4  C   UNL     1       0.670  11.005  20.494  0.00  0.00    +0.000 A 
ATOM      5  C   UNL     1       1.112   9.820  19.775  0.00  0.00    +0.000 A 
ATOM      6  C   UNL     1       1.282   9.799  18.389  0.00  0.00    +0.000 A 
ATOM      7  C   UNL     1       1.693   8.621  17.748  0.00  0.00    +0.000 A 
ATOM      8  C   UNL     1       1.951   7.465  18.489  0.00  0.00    +0.000 A 
ATOM      9  C   UNL     1       1.756   7.477  19.874  0.00  0.00    +0.000 A 
ATOM     10  C   UNL     1       1.353   8.655  20.496  0.00  0.00    +0.000 A 
ATOM     11  O   UNL     1       1.174   8.606  21.891  0.00  0.00    +0.000 OA
ENDROOT
BRANCH   8  12
ATOM     12  O   UNL     1       2.362   6.351  17.778  0.00  0.00    +0.000 OA
BRANCH  12  13
ATOM     13  C   UNL     1       3.683   5.958  17.868  0.00  0.00    +0.000 A 
ATOM     14  C   UNL     1       4.718   6.774  17.392  0.00  0.00    +0.000 A 
ATOM     15  C   UNL     1       6.048   6.427  17.598  0.00  0.00    +0.000 A 
ATOM     16  C   UNL     1       6.353   5.212  18.223  0.00  0.00    +0.000 A 
ATOM     17  C   UNL     1       5.333   4.335  18.613  0.00  0.00    +0.000 A 
ATOM     18  C   UNL     1       3.997   4.708  18.423  0.00  0.00    +0.000 A 
ATOM     19 CL   UNL     1       2.765   3.590  18.888  0.00  0.00    +0.000 Cl
BRANCH  16  20
ATOM     20  N   UNL     1       7.760   4.875  18.456  0.00  0.00    +0.000 N 
ATOM     21  O   UNL     1       8.276   5.259  19.511  0.00  0.00    +0.000 OA
ATOM     22  O   UNL     1       8.344   4.222  17.576  0.00  0.00    +0.000 OA
ENDBRANCH  16  20
ENDBRANCH  12  13
ENDBRANCH   8  12
TORSDOF 3
ENDMDL
MODEL 2
REMARK VINA RESULT:      -7.5      1.743      1.933
REMARK  Name = 
REMARK  3 active torsions:
REMARK  status: ('A' for Active; 'I' for Inactive)
REMARK    1  A    between atoms: C_8  and  O_9
REMARK    2  A    between atoms: O_9  and  C_10
REMARK    3  A    between atoms: C_13  and  N_14
REMARK                            x       y       z     vdW  Elec       q    Type
REMARK                         _______ _______ _______ _____ _____    ______ ____
ROOT
ATOM      1  O   UNL     1      -0.126  10.263  23.318  0.00  0.00    +0.000 OA
ATOM      2  C   UNL     1       0.330   9.989  22.218  0.00  0.00    +0.000 A 
ATOM      3  C   UNL     1       0.194  10.922  21.085  0.00  0.00    +0.000 A 
ATOM      4  C   UNL     1       0.620  10.625  19.851  0.00  0.00    +0.000 A 
ATOM      5  C   UNL     1       1.223   9.326  19.596  0.00  0.00    +0.000 A 
ATOM      6  C   UNL     1       1.609   8.912  18.319  0.00  0.00    +0.000 A 
ATOM      7  C   UNL     1       2.169   7.639  18.131  0.00  0.00    +0.000 A 
ATOM      8  C   UNL     1       2.361   6.783  19.219  0.00  0.00    +0.000 A 
ATOM      9  C   UNL     1       1.951   7.187  20.493  0.00  0.00    +0.000 A 
ATOM     10  C   UNL     1       1.402   8.454  20.665  0.00  0.00    +0.000 A 
ATOM     11  O   UNL     1       1.010   8.803  21.970  0.00  0.00    +0.000 OA
ENDROOT
BRANCH   8  12
ATOM     12  O   UNL     1       2.929   5.552  18.945  0.00  0.00    +0.000 OA
BRANCH  12  13
ATOM     13  C   UNL     1       3.793   5.444  17.872  0.00  0.00    +0.000 A 
ATOM     14  C   UNL     1       4.625   6.508  17.501  0.00  0.00    +0.000 A 
ATOM     15  C   UNL     1       5.578   6.348  16.500  0.00  0.00    +0.000 A 
ATOM     16  C   UNL     1       5.652   5.133  15.809  0.00  0.00    +0.000 A 
ATOM     17  C   UNL     1       4.759   4.093  16.096  0.00  0.00    +0.000 A 
ATOM     18  C   UNL     1       3.822   4.258  17.124  0.00  0.00    +0.000 A 
ATOM     19 CL   UNL     1       2.716   2.966  17.432  0.00  0.00    +0.000 Cl
BRANCH  16  20
ATOM     20  N   UNL     1       6.680   4.973  14.776  0.00  0.00    +0.000 N 
ATOM     21  O   UNL     1       7.774   5.517  14.964  0.00  0.00    +0.000 OA
ATOM     22  O   UNL     1       6.384   4.298  13.777  0.00  0.00    +0.000 OA
ENDBRANCH  16  20
ENDBRANCH  12  13
ENDBRANCH   8  12
TORSDOF 3
ENDMDL
MODEL 3
REMARK VINA RESULT:      -7.4      3.002      4.296
REMARK  Name = 
REMARK  3 active torsions:
REMARK  status: ('A' for Active; 'I' for Inactive)
REMARK    1  A    between atoms: C_8  and  O_9
REMARK    2  A    between atoms: O_9  and  C_10
REMARK    3  A    between atoms: C_13  and  N_14
REMARK                            x       y       z     vdW  Elec       q    Type
REMARK                         _______ _______ _______ _____ _____    ______ ____
ROOT
ATOM      1  O   UNL     1       1.666  10.228  17.680  0.00  0.00    +0.000 OA
ATOM      2  C   UNL     1       1.860   9.158  18.236  0.00  0.00    +0.000 A 
ATOM      3  C   UNL     1       1.415   8.933  19.624  0.00  0.00    +0.000 A 
ATOM      4  C   UNL     1       1.671   7.798  20.287  0.00  0.00    +0.000 A 
ATOM      5  C   UNL     1       2.436   6.746  19.636  0.00  0.00    +0.000 A 
ATOM      6  C   UNL     1       2.817   5.574  20.294  0.00  0.00    +0.000 A 
ATOM      7  C   UNL     1       3.571   4.601  19.620  0.00  0.00    +0.000 A 
ATOM      8  C   UNL     1       3.932   4.787  18.283  0.00  0.00    +0.000 A 
ATOM      9  C   UNL     1       3.572   5.971  17.631  0.00  0.00    +0.000 A 
ATOM     10  C   UNL     1       2.820   6.924  18.311  0.00  0.00    +0.000 A 
ATOM     11  O   UNL     1       2.489   8.094  17.603  0.00  0.00    +0.000 OA
ENDROOT
BRANCH   8  12
ATOM     12  O   UNL     1       4.665   3.774  17.692  0.00  0.00    +0.000 OA
BRANCH  12  13
ATOM     13  C   UNL     1       5.459   4.079  16.603  0.00  0.00    +0.000 A 
ATOM     14  C   UNL     1       5.045   3.783  15.298  0.00  0.00    +0.000 A 
ATOM     15  C   UNL     1       5.793   4.204  14.204  0.00  0.00    +0.000 A 
ATOM     16  C   UNL     1       7.008   4.866  14.415  0.00  0.00    +0.000 A 
ATOM     17  C   UNL     1       7.489   5.079  15.713  0.00  0.00    +0.000 A 
ATOM     18  C   UNL     1       6.714   4.672  16.807  0.00  0.00    +0.000 A 
ATOM     19 CL   UNL     1       7.350   4.923  18.393  0.00  0.00    +0.000 Cl
BRANCH  16  20
ATOM     20  N   UNL     1       7.770   5.327  13.250  0.00  0.00    +0.000 N 
ATOM     21  O   UNL     1       7.349   5.019  12.130  0.00  0.00    +0.000 OA
ATOM     22  O   UNL     1       8.790   6.000  13.466  0.00  0.00    +0.000 OA
ENDBRANCH  16  20
ENDBRANCH  12  13
ENDBRANCH   8  12
TORSDOF 3
ENDMDL
MODEL 4
REMARK VINA RESULT:      -7.3      2.798      3.797
REMARK  Name = 
REMARK  3 active torsions:
REMARK  status: ('A' for Active; 'I' for Inactive)
REMARK    1  A    between atoms: C_8  and  O_9
REMARK    2  A    between atoms: O_9  and  C_10
REMARK    3  A    between atoms: C_13  and  N_14
REMARK                            x       y       z     vdW  Elec       q    Type
REMARK                         _______ _______ _______ _____ _____    ______ ____
ROOT
ATOM      1  O   UNL     1       1.961  10.979  17.574  0.00  0.00    +0.000 OA
ATOM      2  C   UNL     1       1.915   9.928  18.195  0.00  0.00    +0.000 A 
ATOM      3  C   UNL     1       1.092   9.800  19.411  0.00  0.00    +0.000 A 
ATOM      4  C   UNL     1       1.072   8.686  20.154  0.00  0.00    +0.000 A 
ATOM      5  C   UNL     1       1.906   7.557  19.772  0.00  0.00    +0.000 A 
ATOM      6  C   UNL     1       2.005   6.398  20.545  0.00  0.00    +0.000 A 
ATOM      7  C   UNL     1       2.841   5.348  20.136  0.00  0.00    +0.000 A 
ATOM      8  C   UNL     1       3.567   5.444  18.946  0.00  0.00    +0.000 A 
ATOM      9  C   UNL     1       3.489   6.614  18.185  0.00  0.00    +0.000 A 
ATOM     10  C   UNL     1       2.651   7.645  18.601  0.00  0.00    +0.000 A 
ATOM     11  O   UNL     1       2.614   8.796  17.793  0.00  0.00    +0.000 OA
ENDROOT
BRANCH   8  12
ATOM     12  O   UNL     1       4.358   4.359  18.613  0.00  0.00    +0.000 OA
BRANCH  12  13
ATOM     13  C   UNL     1       5.109   4.417  17.455  0.00  0.00    +0.000 A 
ATOM     14  C   UNL     1       4.603   3.947  16.236  0.00  0.00    +0.000 A 
ATOM     15  C   UNL     1       5.316   4.123  15.056  0.00  0.00    +0.000 A 
ATOM     16  C   UNL     1       6.586   4.711  15.100  0.00  0.00    +0.000 A 
ATOM     17  C   UNL     1       7.153   5.093  16.323  0.00  0.00    +0.000 A 
ATOM     18  C   UNL     1       6.413   4.934  17.501  0.00  0.00    +0.000 A 
ATOM     19 CL   UNL     1       7.153   5.389  18.995  0.00  0.00    +0.000 Cl
BRANCH  16  20
ATOM     20  N   UNL     1       7.312   4.913  13.843  0.00  0.00    +0.000 N 
ATOM     21  O   UNL     1       8.253   5.714  13.845  0.00  0.00    +0.000 OA
ATOM     22  O   UNL     1       6.934   4.263  12.855  0.00  0.00    +0.000 OA
ENDBRANCH  16  20
ENDBRANCH  12  13
ENDBRANCH   8  12
TORSDOF 3
ENDMDL
MODEL 5
REMARK VINA RESULT:      -7.3      2.187      2.485
REMARK  Name = 
REMARK  3 active torsions:
REMARK  status: ('A' for Active; 'I' for Inactive)
REMARK    1  A    between atoms: C_8  and  O_9
REMARK    2  A    between atoms: O_9  and  C_10
REMARK    3  A    between atoms: C_13  and  N_14
REMARK                            x       y       z     vdW  Elec       q    Type
REMARK                         _______ _______ _______ _____ _____    ______ ____
ROOT
ATOM      1  O   UNL     1       0.294   9.533  23.714  0.00  0.00    +0.000 OA
ATOM      2  C   UNL     1       0.481   9.621  22.510  0.00  0.00    +0.000 A 
ATOM      3  C   UNL     1      -0.167  10.680  21.715  0.00  0.00    +0.000 A 
ATOM      4  C   UNL     1      -0.039  10.765  20.385  0.00  0.00    +0.000 A 
ATOM      5  C   UNL     1       0.750   9.767  19.678  0.00  0.00    +0.000 A 
ATOM      6  C   UNL     1       0.855   9.739  18.286  0.00  0.00    +0.000 A 
ATOM      7  C   UNL     1       1.615   8.740  17.657  0.00  0.00    +0.000 A 
ATOM      8  C   UNL     1       2.286   7.778  18.417  0.00  0.00    +0.000 A 
ATOM      9  C   UNL     1       2.160   7.791  19.810  0.00  0.00    +0.000 A 
ATOM     10  C   UNL     1       1.407   8.790  20.419  0.00  0.00    +0.000 A 
ATOM     11  O   UNL     1       1.318   8.751  21.822  0.00  0.00    +0.000 OA
ENDROOT
BRANCH   8  12
ATOM     12  O   UNL     1       3.021   6.838  17.718  0.00  0.00    +0.000 OA
BRANCH  12  13
ATOM     13  C   UNL     1       3.380   5.668  18.359  0.00  0.00    +0.000 A 
ATOM     14  C   UNL     1       4.618   5.543  19.003  0.00  0.00    +0.000 A 
ATOM     15  C   UNL     1       4.920   4.409  19.749  0.00  0.00    +0.000 A 
ATOM     16  C   UNL     1       4.004   3.352  19.793  0.00  0.00    +0.000 A 
ATOM     17  C   UNL     1       2.805   3.415  19.070  0.00  0.00    +0.000 A 
ATOM     18  C   UNL     1       2.502   4.573  18.344  0.00  0.00    +0.000 A 
ATOM     19 CL   UNL     1       1.030   4.606  17.441  0.00  0.00    +0.000 Cl
BRANCH  16  20
ATOM     20  N   UNL     1       4.326   2.175  20.606  0.00  0.00    +0.000 N 
ATOM     21  O   UNL     1       5.237   1.439  20.215  0.00  0.00    +0.000 OA
ATOM     22  O   UNL     1       3.660   1.996  21.639  0.00  0.00    +0.000 OA
ENDBRANCH  16  20
ENDBRANCH  12  13
ENDBRANCH   8  12
TORSDOF 3
ENDMDL
MODEL 6
REMARK VINA RESULT:      -7.0      4.311      8.177
REMARK  Name = 
REMARK  3 active torsions:
REMARK  status: ('A' for Active; 'I' for Inactive)
REMARK    1  A    between atoms: C_8  and  O_9
REMARK    2  A    between atoms: O_9  and  C_10
REMARK    3  A    between atoms: C_13  and  N_14
REMARK                            x       y       z     vdW  Elec       q    Type
REMARK                         _______ _______ _______ _____ _____    ______ ____
ROOT
ATOM      1  O   UNL     1       4.605   2.756  11.375  0.00  0.00    +0.000 OA
ATOM      2  C   UNL     1       5.281   3.378  12.180  0.00  0.00    +0.000 A 
ATOM      3  C   UNL     1       6.685   3.722  11.888  0.00  0.00    +0.000 A 
ATOM      4  C   UNL     1       7.475   4.341  12.774  0.00  0.00    +0.000 A 
ATOM      5  C   UNL     1       6.950   4.675  14.089  0.00  0.00    +0.000 A 
ATOM      6  C   UNL     1       7.739   5.239  15.094  0.00  0.00    +0.000 A 
ATOM      7  C   UNL     1       7.182   5.522  16.350  0.00  0.00    +0.000 A 
ATOM      8  C   UNL     1       5.833   5.259  16.602  0.00  0.00    +0.000 A 
ATOM      9  C   UNL     1       5.049   4.670  15.605  0.00  0.00    +0.000 A 
ATOM     10  C   UNL     1       5.614   4.400  14.362  0.00  0.00    +0.000 A 
ATOM     11  O   UNL     1       4.776   3.808  13.400  0.00  0.00    +0.000 OA
ENDROOT
BRANCH   8  12
ATOM     12  O   UNL     1       5.364   5.579  17.864  0.00  0.00    +0.000 OA
BRANCH  12  13
ATOM     13  C   UNL     1       4.287   4.875  18.368  0.00  0.00    +0.000 A 
ATOM     14  C   UNL     1       4.402   3.524  18.720  0.00  0.00    +0.000 A 
ATOM     15  C   UNL     1       3.350   2.860  19.340  0.00  0.00    +0.000 A 
ATOM     16  C   UNL     1       2.140   3.531  19.548  0.00  0.00    +0.000 A 
ATOM     17  C   UNL     1       1.971   4.851  19.109  0.00  0.00    +0.000 A 
ATOM     18  C   UNL     1       3.047   5.517  18.508  0.00  0.00    +0.000 A 
ATOM     19 CL   UNL     1       2.796   7.133  17.952  0.00  0.00    +0.000 Cl
BRANCH  16  20
ATOM     20  N   UNL     1       1.051   2.824  20.228  0.00  0.00    +0.000 N 
ATOM     21  O   UNL     1       0.115   2.409  19.536  0.00  0.00    +0.000 OA
ATOM     22  O   UNL     1       1.140   2.687  21.459  0.00  0.00    +0.000 OA
ENDBRANCH  16  20
ENDBRANCH  12  13
ENDBRANCH   8  12
TORSDOF 3
ENDMDL
MODEL 7
REMARK VINA RESULT:      -7.0      1.501      2.117
REMARK  Name = 
REMARK  3 active torsions:
REMARK  status: ('A' for Active; 'I' for Inactive)
REMARK    1  A    between atoms: C_8  and  O_9
REMARK    2  A    between atoms: O_9  and  C_10
REMARK    3  A    between atoms: C_13  and  N_14
REMARK                            x       y       z     vdW  Elec       q    Type
REMARK                         _______ _______ _______ _____ _____    ______ ____
ROOT
ATOM      1  O   UNL     1      -0.112  13.028  19.270  0.00  0.00    +0.000 OA
ATOM      2  C   UNL     1       0.205  11.899  19.613  0.00  0.00    +0.000 A 
ATOM      3  C   UNL     1       0.245  11.521  21.037  0.00  0.00    +0.000 A 
ATOM      4  C   UNL     1       0.653  10.315  21.452  0.00  0.00    +0.000 A 
ATOM      5  C   UNL     1       1.099   9.335  20.473  0.00  0.00    +0.000 A 
ATOM      6  C   UNL     1       1.621   8.091  20.835  0.00  0.00    +0.000 A 
ATOM      7  C   UNL     1       2.053   7.194  19.847  0.00  0.00    +0.000 A 
ATOM      8  C   UNL     1       1.949   7.528  18.494  0.00  0.00    +0.000 A 
ATOM      9  C   UNL     1       1.451   8.783  18.131  0.00  0.00    +0.000 A 
ATOM     10  C   UNL     1       1.021   9.660  19.123  0.00  0.00    +0.000 A 
ATOM     11  O   UNL     1       0.529  10.907  18.696  0.00  0.00    +0.000 OA
ENDROOT
BRANCH   8  12
ATOM     12  O   UNL     1       2.389   6.580  17.587  0.00  0.00    +0.000 OA
BRANCH  12  13
ATOM     13  C   UNL     1       3.691   6.126  17.681  0.00  0.00    +0.000 A 
ATOM     14  C   UNL     1       4.765   6.903  17.228  0.00  0.00    +0.000 A 
ATOM     15  C   UNL     1       6.076   6.492  17.440  0.00  0.00    +0.000 A 
ATOM     16  C   UNL     1       6.320   5.254  18.047  0.00  0.00    +0.000 A 
ATOM     17  C   UNL     1       5.258   4.417  18.412  0.00  0.00    +0.000 A 
ATOM     18  C   UNL     1       3.942   4.854  18.217  0.00  0.00    +0.000 A 
ATOM     19 CL   UNL     1       2.656   3.785  18.652  0.00  0.00    +0.000 Cl
BRANCH  16  20
ATOM     20  N   UNL     1       7.708   4.849  18.286  0.00  0.00    +0.000 N 
ATOM     21  O   UNL     1       8.281   4.206  17.400  0.00  0.00    +0.000 OA
ATOM     22  O   UNL     1       8.221   5.180  19.368  0.00  0.00    +0.000 OA
ENDBRANCH  16  20
ENDBRANCH  12  13
ENDBRANCH   8  12
TORSDOF 3
ENDMDL
MODEL 8
REMARK VINA RESULT:      -7.0      2.516      3.576
REMARK  Name = 
REMARK  3 active torsions:
REMARK  status: ('A' for Active; 'I' for Inactive)
REMARK    1  A    between atoms: C_8  and  O_9
REMARK    2  A    between atoms: O_9  and  C_10
REMARK    3  A    between atoms: C_13  and  N_14
REMARK                            x       y       z     vdW  Elec       q    Type
REMARK                         _______ _______ _______ _____ _____    ______ ____
ROOT
ATOM      1  O   UNL     1       1.280  10.228  19.431  0.00  0.00    +0.000 OA
ATOM      2  C   UNL     1       1.354   9.053  19.756  0.00  0.00    +0.000 A 
ATOM      3  C   UNL     1       0.443   8.487  20.769  0.00  0.00    +0.000 A 
ATOM      4  C   UNL     1       0.540   7.224  21.199  0.00  0.00    +0.000 A 
ATOM      5  C   UNL     1       1.592   6.367  20.674  0.00  0.00    +0.000 A 
ATOM      6  C   UNL     1       1.811   5.069  21.139  0.00  0.00    +0.000 A 
ATOM      7  C   UNL     1       2.854   4.296  20.607  0.00  0.00    +0.000 A 
ATOM      8  C   UNL     1       3.672   4.811  19.597  0.00  0.00    +0.000 A 
ATOM      9  C   UNL     1       3.471   6.120  19.149  0.00  0.00    +0.000 A 
ATOM     10  C   UNL     1       2.428   6.872  19.683  0.00  0.00    +0.000 A 
ATOM     11  O   UNL     1       2.276   8.182  19.191  0.00  0.00    +0.000 OA
ENDROOT
BRANCH   8  12
ATOM     12  O   UNL     1       4.669   3.978  19.123  0.00  0.00    +0.000 OA
BRANCH  12  13
ATOM     13  C   UNL     1       5.225   4.247  17.887  0.00  0.00    +0.000 A 
ATOM     14  C   UNL     1       6.481   4.855  17.772  0.00  0.00    +0.000 A 
ATOM     15  C   UNL     1       7.085   5.009  16.529  0.00  0.00    +0.000 A 
ATOM     16  C   UNL     1       6.395   4.616  15.376  0.00  0.00    +0.000 A 
ATOM     17  C   UNL     1       5.095   4.101  15.463  0.00  0.00    +0.000 A 
ATOM     18  C   UNL     1       4.508   3.928  16.723  0.00  0.00    +0.000 A 
ATOM     19 CL   UNL     1       2.893   3.318  16.793  0.00  0.00    +0.000 Cl
BRANCH  16  20
ATOM     20  N   UNL     1       7.057   4.760  14.076  0.00  0.00    +0.000 N 
ATOM     21  O   UNL     1       7.941   5.616  13.973  0.00  0.00    +0.000 OA
ATOM     22  O   UNL     1       6.685   4.008  13.160  0.00  0.00    +0.000 OA
ENDBRANCH  16  20
ENDBRANCH  12  13
ENDBRANCH   8  12
TORSDOF 3
ENDMDL
MODEL 9
REMARK VINA RESULT:      -7.0      3.947      5.394
REMARK  Name = 
REMARK  3 active torsions:
REMARK  status: ('A' for Active; 'I' for Inactive)
REMARK    1  A    between atoms: C_8  and  O_9
REMARK    2  A    between atoms: O_9  and  C_10
REMARK    3  A    between atoms: C_13  and  N_14
REMARK                            x       y       z     vdW  Elec       q    Type
REMARK                         _______ _______ _______ _____ _____    ______ ____
ROOT
ATOM      1  O   UNL     1      -4.056  10.151  14.556  0.00  0.00    +0.000 OA
ATOM      2  C   UNL     1      -3.677  10.453  15.677  0.00  0.00    +0.000 A 
ATOM      3  C   UNL     1      -4.535  11.241  16.581  0.00  0.00    +0.000 A 
ATOM      4  C   UNL     1      -4.127  11.649  17.789  0.00  0.00    +0.000 A 
ATOM      5  C   UNL     1      -2.779  11.329  18.234  0.00  0.00    +0.000 A 
ATOM      6  C   UNL     1      -2.253  11.796  19.441  0.00  0.00    +0.000 A 
ATOM      7  C   UNL     1      -0.938  11.470  19.808  0.00  0.00    +0.000 A 
ATOM      8  C   UNL     1      -0.151  10.665  18.981  0.00  0.00    +0.000 A 
ATOM      9  C   UNL     1      -0.668  10.219  17.760  0.00  0.00    +0.000 A 
ATOM     10  C   UNL     1      -1.975  10.546  17.412  0.00  0.00    +0.000 A 
ATOM     11  O   UNL     1      -2.438  10.068  16.173  0.00  0.00    +0.000 OA
ENDROOT
BRANCH   8  12
ATOM     12  O   UNL     1       1.129  10.385  19.425  0.00  0.00    +0.000 OA
BRANCH  12  13
ATOM     13  C   UNL     1       1.618   9.102  19.272  0.00  0.00    +0.000 A 
ATOM     14  C   UNL     1       2.246   8.700  18.086  0.00  0.00    +0.000 A 
ATOM     15  C   UNL     1       2.843   7.449  17.987  0.00  0.00    +0.000 A 
ATOM     16  C   UNL     1       2.749   6.555  19.061  0.00  0.00    +0.000 A 
ATOM     17  C   UNL     1       2.035   6.900  20.216  0.00  0.00    +0.000 A 
ATOM     18  C   UNL     1       1.461   8.173  20.313  0.00  0.00    +0.000 A 
ATOM     19 CL   UNL     1       0.563   8.555  21.738  0.00  0.00    +0.000 Cl
BRANCH  16  20
ATOM     20  N   UNL     1       3.407   5.250  18.950  0.00  0.00    +0.000 N 
ATOM     21  O   UNL     1       2.824   4.364  18.316  0.00  0.00    +0.000 OA
ATOM     22  O   UNL     1       4.512   5.120  19.501  0.00  0.00    +0.000 OA
ENDBRANCH  16  20
ENDBRANCH  12  13
ENDBRANCH   8  12
TORSDOF 3
ENDMDL
