MODEL 1
REMARK VINA RESULT:      -8.6      0.000      0.000
REMARK  Name = 
REMARK  10 active torsions:
REMARK  status: ('A' for Active; 'I' for Inactive)
REMARK    1  A    between atoms: C_1  and  C_2
REMARK    2  A    between atoms: C_2  and  O_3
REMARK    3  A    between atoms: C_2  and  C_21
REMARK    4  A    between atoms: O_3  and  N_4
REMARK    5  A    between atoms: C_5  and  C_7
REMARK    6  A    between atoms: C_9  and  C_10
REMARK    7  A    between atoms: C_15  and  C_16
REMARK    8  A    between atoms: C_21  and  O_22
REMARK    9  A    between atoms: C_21  and  N_23
REMARK   10  A    between atoms: N_23  and  C_24
REMARK                            x       y       z     vdW  Elec       q    Type
REMARK                         _______ _______ _______ _____ _____    ______ ____
ROOT
ATOM      1  N   UNL     1       3.537   2.882  18.446  0.00  0.00    +0.000 N 
ATOM      2  C   UNL     1       4.764   3.393  18.829  0.00  0.00    +0.000 C 
ATOM      3  O   UNL     1       5.284   3.216  19.922  0.00  0.00    +0.000 OA
ATOM      4  H   UNL     1       3.016   3.281  17.676  0.00  0.00    +0.000 HD
ENDROOT
BRANCH   2   5
ATOM      5  C   UNL     1       5.441   4.273  17.823  0.00  0.00    +0.000 A 
ATOM      6  C   UNL     1       5.394   3.895  16.473  0.00  0.00    +0.000 A 
ATOM      7  C   UNL     1       6.054   4.647  15.488  0.00  0.00    +0.000 A 
ATOM      8  C   UNL     1       6.742   5.811  15.870  0.00  0.00    +0.000 A 
ATOM      9  C   UNL     1       6.795   6.212  17.214  0.00  0.00    +0.000 A 
ATOM     10  C   UNL     1       6.131   5.438  18.185  0.00  0.00    +0.000 A 
BRANCH   7  11
ATOM     11  C   UNL     1       6.072   4.204  14.042  0.00  0.00    +0.000 C 
ATOM     12  F   UNL     1       4.884   4.364  13.404  0.00  0.00    +0.000 F 
ATOM     13  F   UNL     1       6.996   4.876  13.303  0.00  0.00    +0.000 F 
ATOM     14  F   UNL     1       6.387   2.884  13.923  0.00  0.00    +0.000 F 
ENDBRANCH   7  11
BRANCH   9  15
ATOM     15  C   UNL     1       7.580   7.435  17.635  0.00  0.00    +0.000 C 
ATOM     16  F   UNL     1       8.474   7.857  16.703  0.00  0.00    +0.000 F 
ATOM     17  F   UNL     1       6.778   8.500  17.905  0.00  0.00    +0.000 F 
ATOM     18  F   UNL     1       8.296   7.208  18.770  0.00  0.00    +0.000 F 
ENDBRANCH   9  15
ENDBRANCH   2   5
BRANCH   1  19
ATOM     19  O   UNL     1       2.792   2.281  19.494  0.00  0.00    +0.000 OA
BRANCH  19  21
ATOM     20  C   UNL     1       1.113   3.629  18.355  0.00  0.00    +0.000 C 
ATOM     21  C   UNL     1       1.537   2.964  19.671  0.00  0.00    +0.000 C 
BRANCH  21  22
ATOM     22  C   UNL     1       1.686   4.043  20.773  0.00  0.00    +0.000 C 
BRANCH  22  23
ATOM     23  O   UNL     1       2.049   3.398  21.981  0.00  0.00    +0.000 OA
ATOM     24  H   UNL     1       1.184   3.181  22.369  0.00  0.00    +0.000 HD
ENDBRANCH  22  23
BRANCH  22  25
ATOM     25  N   UNL     1       2.760   4.991  20.470  0.00  0.00    +0.000 N 
ATOM     26  H   UNL     1       3.397   4.560  19.793  0.00  0.00    +0.000 HD
BRANCH  25  27
ATOM     27  C   UNL     1       2.393   6.264  19.985  0.00  0.00    +0.000 A 
ATOM     28  C   UNL     1       2.743   6.594  18.671  0.00  0.00    +0.000 A 
ATOM     29  C   UNL     1       2.449   7.858  18.141  0.00  0.00    +0.000 A 
ATOM     30  C   UNL     1       1.764   8.789  18.915  0.00  0.00    +0.000 A 
ATOM     31 CL   UNL     1       1.437  10.358  18.290  0.00  0.00    +0.000 Cl
ATOM     32  C   UNL     1       1.344   8.456  20.197  0.00  0.00    +0.000 A 
ATOM     33  C   UNL     1       1.646   7.194  20.720  0.00  0.00    +0.000 A 
ENDBRANCH  25  27
ENDBRANCH  22  25
ENDBRANCH  21  22
ENDBRANCH  19  21
ENDBRANCH   1  19
TORSDOF 9
ENDMDL
MODEL 2
REMARK VINA RESULT:      -8.5      0.505      3.232
REMARK  Name = 
REMARK  10 active torsions:
REMARK  status: ('A' for Active; 'I' for Inactive)
REMARK    1  A    between atoms: C_1  and  C_2
REMARK    2  A    between atoms: C_2  and  O_3
REMARK    3  A    between atoms: C_2  and  C_21
REMARK    4  A    between atoms: O_3  and  N_4
REMARK    5  A    between atoms: C_5  and  C_7
REMARK    6  A    between atoms: C_9  and  C_10
REMARK    7  A    between atoms: C_15  and  C_16
REMARK    8  A    between atoms: C_21  and  O_22
REMARK    9  A    between atoms: C_21  and  N_23
REMARK   10  A    between atoms: N_23  and  C_24
REMARK                            x       y       z     vdW  Elec       q    Type
REMARK                         _______ _______ _______ _____ _____    ______ ____
ROOT
ATOM      1  N   UNL     1       3.980   2.689  18.497  0.00  0.00    +0.000 N 
ATOM      2  C   UNL     1       4.994   3.519  18.938  0.00  0.00    +0.000 C 
ATOM      3  O   UNL     1       5.305   3.681  20.110  0.00  0.00    +0.000 OA
ATOM      4  H   UNL     1       3.564   2.802  17.582  0.00  0.00    +0.000 HD
ENDROOT
BRANCH   2   5
ATOM      5  C   UNL     1       5.696   4.305  17.872  0.00  0.00    +0.000 A 
ATOM      6  C   UNL     1       6.384   5.466  18.251  0.00  0.00    +0.000 A 
ATOM      7  C   UNL     1       7.017   6.277  17.295  0.00  0.00    +0.000 A 
ATOM      8  C   UNL     1       6.978   5.889  15.944  0.00  0.00    +0.000 A 
ATOM      9  C   UNL     1       6.302   4.726  15.544  0.00  0.00    +0.000 A 
ATOM     10  C   UNL     1       5.670   3.933  16.521  0.00  0.00    +0.000 A 
BRANCH   7  11
ATOM     11  C   UNL     1       7.695   7.571  17.685  0.00  0.00    +0.000 C 
ATOM     12  F   UNL     1       6.831   8.591  17.929  0.00  0.00    +0.000 F 
ATOM     13  F   UNL     1       8.459   7.442  18.803  0.00  0.00    +0.000 F 
ATOM     14  F   UNL     1       8.534   8.016  16.708  0.00  0.00    +0.000 F 
ENDBRANCH   7  11
BRANCH   9  15
ATOM     15  C   UNL     1       6.214   4.335  14.086  0.00  0.00    +0.000 C 
ATOM     16  F   UNL     1       4.998   4.577  13.528  0.00  0.00    +0.000 F 
ATOM     17  F   UNL     1       7.125   4.990  13.316  0.00  0.00    +0.000 F 
ATOM     18  F   UNL     1       6.455   3.007  13.904  0.00  0.00    +0.000 F 
ENDBRANCH   9  15
ENDBRANCH   2   5
BRANCH   1  19
ATOM     19  O   UNL     1       3.156   2.163  19.527  0.00  0.00    +0.000 OA
BRANCH  19  21
ATOM     20  C   UNL     1       1.614   2.964  17.818  0.00  0.00    +0.000 C 
ATOM     21  C   UNL     1       1.772   2.453  19.257  0.00  0.00    +0.000 C 
BRANCH  21  22
ATOM     22  C   UNL     1       1.267   3.533  20.248  0.00  0.00    +0.000 C 
BRANCH  22  23
ATOM     23  O   UNL     1       0.933   2.894  21.468  0.00  0.00    +0.000 OA
ATOM     24  H   UNL     1       1.542   2.136  21.479  0.00  0.00    +0.000 HD
ENDBRANCH  22  23
BRANCH  22  25
ATOM     25  N   UNL     1       2.307   4.514  20.565  0.00  0.00    +0.000 N 
ATOM     26  H   UNL     1       3.213   4.140  20.270  0.00  0.00    +0.000 HD
BRANCH  25  27
ATOM     27  C   UNL     1       2.167   5.811  20.030  0.00  0.00    +0.000 A 
ATOM     28  C   UNL     1       2.579   6.026  18.710  0.00  0.00    +0.000 A 
ATOM     29  C   UNL     1       2.511   7.301  18.129  0.00  0.00    +0.000 A 
ATOM     30  C   UNL     1       1.990   8.365  18.859  0.00  0.00    +0.000 A 
ATOM     31 CL   UNL     1       1.943   9.941  18.173  0.00  0.00    +0.000 Cl
ATOM     32  C   UNL     1       1.510   8.158  20.147  0.00  0.00    +0.000 A 
ATOM     33  C   UNL     1       1.587   6.884  20.720  0.00  0.00    +0.000 A 
ENDBRANCH  25  27
ENDBRANCH  22  25
ENDBRANCH  21  22
ENDBRANCH  19  21
ENDBRANCH   1  19
TORSDOF 9
ENDMDL
MODEL 3
REMARK VINA RESULT:      -8.3      1.010      3.434
REMARK  Name = 
REMARK  10 active torsions:
REMARK  status: ('A' for Active; 'I' for Inactive)
REMARK    1  A    between atoms: C_1  and  C_2
REMARK    2  A    between atoms: C_2  and  O_3
REMARK    3  A    between atoms: C_2  and  C_21
REMARK    4  A    between atoms: O_3  and  N_4
REMARK    5  A    between atoms: C_5  and  C_7
REMARK    6  A    between atoms: C_9  and  C_10
REMARK    7  A    between atoms: C_15  and  C_16
REMARK    8  A    between atoms: C_21  and  O_22
REMARK    9  A    between atoms: C_21  and  N_23
REMARK   10  A    between atoms: N_23  and  C_24
REMARK                            x       y       z     vdW  Elec       q    Type
REMARK                         _______ _______ _______ _____ _____    ______ ____
ROOT
ATOM      1  N   UNL     1       4.168   3.324  19.393  0.00  0.00    +0.000 N 
ATOM      2  C   UNL     1       3.862   3.352  18.045  0.00  0.00    +0.000 C 
ATOM      3  O   UNL     1       2.879   2.826  17.540  0.00  0.00    +0.000 OA
ATOM      4  H   UNL     1       5.107   3.501  19.725  0.00  0.00    +0.000 HD
ENDROOT
BRANCH   2   5
ATOM      5  C   UNL     1       4.867   4.033  17.167  0.00  0.00    +0.000 A 
ATOM      6  C   UNL     1       5.627   5.076  17.715  0.00  0.00    +0.000 A 
ATOM      7  C   UNL     1       6.548   5.790  16.931  0.00  0.00    +0.000 A 
ATOM      8  C   UNL     1       6.722   5.422  15.586  0.00  0.00    +0.000 A 
ATOM      9  C   UNL     1       5.978   4.376  15.019  0.00  0.00    +0.000 A 
ATOM     10  C   UNL     1       5.057   3.679  15.823  0.00  0.00    +0.000 A 
BRANCH   7  11
ATOM     11  C   UNL     1       7.315   6.966  17.494  0.00  0.00    +0.000 C 
ATOM     12  F   UNL     1       8.033   6.669  18.608  0.00  0.00    +0.000 F 
ATOM     13  F   UNL     1       8.196   7.489  16.599  0.00  0.00    +0.000 F 
ATOM     14  F   UNL     1       6.485   7.988  17.844  0.00  0.00    +0.000 F 
ENDBRANCH   7  11
BRANCH   9  15
ATOM     15  C   UNL     1       6.125   4.013  13.558  0.00  0.00    +0.000 C 
ATOM     16  F   UNL     1       6.500   2.723  13.350  0.00  0.00    +0.000 F 
ATOM     17  F   UNL     1       4.973   4.194  12.858  0.00  0.00    +0.000 F 
ATOM     18  F   UNL     1       7.063   4.783  12.940  0.00  0.00    +0.000 F 
ENDBRANCH   9  15
ENDBRANCH   2   5
BRANCH   1  19
ATOM     19  O   UNL     1       3.356   2.453  20.167  0.00  0.00    +0.000 OA
BRANCH  19  21
ATOM     20  C   UNL     1       1.592   2.285  21.839  0.00  0.00    +0.000 C 
ATOM     21  C   UNL     1       2.597   3.204  21.132  0.00  0.00    +0.000 C 
BRANCH  21  22
ATOM     22  C   UNL     1       1.836   4.349  20.414  0.00  0.00    +0.000 C 
BRANCH  22  23
ATOM     23  O   UNL     1       0.454   4.034  20.418  0.00  0.00    +0.000 OA
ATOM     24  H   UNL     1       0.050   4.882  20.667  0.00  0.00    +0.000 HD
ENDBRANCH  22  23
BRANCH  22  25
ATOM     25  N   UNL     1       1.973   5.624  21.121  0.00  0.00    +0.000 N 
ATOM     26  H   UNL     1       2.859   5.622  21.634  0.00  0.00    +0.000 HD
BRANCH  25  27
ATOM     27  C   UNL     1       1.905   6.807  20.356  0.00  0.00    +0.000 A 
ATOM     28  C   UNL     1       2.458   6.792  19.070  0.00  0.00    +0.000 A 
ATOM     29  C   UNL     1       2.467   7.945  18.272  0.00  0.00    +0.000 A 
ATOM     30  C   UNL     1       1.882   9.115  18.746  0.00  0.00    +0.000 A 
ATOM     31 CL   UNL     1       1.925  10.547  17.794  0.00  0.00    +0.000 Cl
ATOM     32  C   UNL     1       1.264   9.132  19.990  0.00  0.00    +0.000 A 
ATOM     33  C   UNL     1       1.265   7.979  20.782  0.00  0.00    +0.000 A 
ENDBRANCH  25  27
ENDBRANCH  22  25
ENDBRANCH  21  22
ENDBRANCH  19  21
ENDBRANCH   1  19
TORSDOF 9
ENDMDL
MODEL 4
REMARK VINA RESULT:      -8.3      0.999      3.559
REMARK  Name = 
REMARK  10 active torsions:
REMARK  status: ('A' for Active; 'I' for Inactive)
REMARK    1  A    between atoms: C_1  and  C_2
REMARK    2  A    between atoms: C_2  and  O_3
REMARK    3  A    between atoms: C_2  and  C_21
REMARK    4  A    between atoms: O_3  and  N_4
REMARK    5  A    between atoms: C_5  and  C_7
REMARK    6  A    between atoms: C_9  and  C_10
REMARK    7  A    between atoms: C_15  and  C_16
REMARK    8  A    between atoms: C_21  and  O_22
REMARK    9  A    between atoms: C_21  and  N_23
REMARK   10  A    between atoms: N_23  and  C_24
REMARK                            x       y       z     vdW  Elec       q    Type
REMARK                         _______ _______ _______ _____ _____    ______ ____
ROOT
ATOM      1  N   UNL     1       4.172   3.480  19.494  0.00  0.00    +0.000 N 
ATOM      2  C   UNL     1       3.966   3.333  18.135  0.00  0.00    +0.000 C 
ATOM      3  O   UNL     1       3.099   2.631  17.631  0.00  0.00    +0.000 OA
ATOM      4  H   UNL     1       5.052   3.815  19.862  0.00  0.00    +0.000 HD
ENDROOT
BRANCH   2   5
ATOM      5  C   UNL     1       4.938   4.053  17.251  0.00  0.00    +0.000 A 
ATOM      6  C   UNL     1       5.673   5.114  17.801  0.00  0.00    +0.000 A 
ATOM      7  C   UNL     1       6.561   5.864  17.012  0.00  0.00    +0.000 A 
ATOM      8  C   UNL     1       6.730   5.514  15.661  0.00  0.00    +0.000 A 
ATOM      9  C   UNL     1       6.011   4.450  15.094  0.00  0.00    +0.000 A 
ATOM     10  C   UNL     1       5.122   3.718  15.902  0.00  0.00    +0.000 A 
BRANCH   7  11
ATOM     11  C   UNL     1       7.298   7.057  17.576  0.00  0.00    +0.000 C 
ATOM     12  F   UNL     1       7.980   6.790  18.720  0.00  0.00    +0.000 F 
ATOM     13  F   UNL     1       8.204   7.571  16.702  0.00  0.00    +0.000 F 
ATOM     14  F   UNL     1       6.447   8.079  17.878  0.00  0.00    +0.000 F 
ENDBRANCH   7  11
BRANCH   9  15
ATOM     15  C   UNL     1       6.152   4.106  13.627  0.00  0.00    +0.000 C 
ATOM     16  F   UNL     1       7.123   4.812  12.991  0.00  0.00    +0.000 F 
ATOM     17  F   UNL     1       6.441   2.792  13.427  0.00  0.00    +0.000 F 
ATOM     18  F   UNL     1       5.001   4.345  12.941  0.00  0.00    +0.000 F 
ENDBRANCH   9  15
ENDBRANCH   2   5
BRANCH   1  19
ATOM     19  O   UNL     1       3.422   2.589  20.307  0.00  0.00    +0.000 OA
BRANCH  19  21
ATOM     20  C   UNL     1       1.640   2.369  21.953  0.00  0.00    +0.000 C 
ATOM     21  C   UNL     1       2.589   3.326  21.220  0.00  0.00    +0.000 C 
BRANCH  21  22
ATOM     22  C   UNL     1       1.761   4.375  20.433  0.00  0.00    +0.000 C 
BRANCH  22  23
ATOM     23  O   UNL     1       0.410   3.950  20.412  0.00  0.00    +0.000 OA
ATOM     24  H   UNL     1       0.477   3.031  20.725  0.00  0.00    +0.000 HD
ENDBRANCH  22  23
BRANCH  22  25
ATOM     25  N   UNL     1       1.774   5.685  21.088  0.00  0.00    +0.000 N 
ATOM     26  H   UNL     1       2.546   5.709  21.760  0.00  0.00    +0.000 HD
BRANCH  25  27
ATOM     27  C   UNL     1       1.866   6.827  20.265  0.00  0.00    +0.000 A 
ATOM     28  C   UNL     1       1.280   8.014  20.720  0.00  0.00    +0.000 A 
ATOM     29  C   UNL     1       1.294   9.175  19.933  0.00  0.00    +0.000 A 
ATOM     30  C   UNL     1       1.933   9.163  18.697  0.00  0.00    +0.000 A 
ATOM     31 CL   UNL     1       1.919  10.568  17.705  0.00  0.00    +0.000 Cl
ATOM     32  C   UNL     1       2.583   8.015  18.259  0.00  0.00    +0.000 A 
ATOM     33  C   UNL     1       2.559   6.860  19.048  0.00  0.00    +0.000 A 
ENDBRANCH  25  27
ENDBRANCH  22  25
ENDBRANCH  21  22
ENDBRANCH  19  21
ENDBRANCH   1  19
TORSDOF 9
ENDMDL
MODEL 5
REMARK VINA RESULT:      -8.3      1.051      3.538
REMARK  Name = 
REMARK  10 active torsions:
REMARK  status: ('A' for Active; 'I' for Inactive)
REMARK    1  A    between atoms: C_1  and  C_2
REMARK    2  A    between atoms: C_2  and  O_3
REMARK    3  A    between atoms: C_2  and  C_21
REMARK    4  A    between atoms: O_3  and  N_4
REMARK    5  A    between atoms: C_5  and  C_7
REMARK    6  A    between atoms: C_9  and  C_10
REMARK    7  A    between atoms: C_15  and  C_16
REMARK    8  A    between atoms: C_21  and  O_22
REMARK    9  A    between atoms: C_21  and  N_23
REMARK   10  A    between atoms: N_23  and  C_24
REMARK                            x       y       z     vdW  Elec       q    Type
REMARK                         _______ _______ _______ _____ _____    ______ ____
ROOT
ATOM      1  N   UNL     1       4.188   3.448  19.451  0.00  0.00    +0.000 N 
ATOM      2  C   UNL     1       3.908   3.373  18.099  0.00  0.00    +0.000 C 
ATOM      3  O   UNL     1       2.970   2.756  17.613  0.00  0.00    +0.000 OA
ATOM      4  H   UNL     1       5.107   3.704  19.787  0.00  0.00    +0.000 HD
ENDROOT
BRANCH   2   5
ATOM      5  C   UNL     1       4.887   4.061  17.196  0.00  0.00    +0.000 A 
ATOM      6  C   UNL     1       5.636   5.124  17.719  0.00  0.00    +0.000 A 
ATOM      7  C   UNL     1       6.531   5.844  16.911  0.00  0.00    +0.000 A 
ATOM      8  C   UNL     1       6.690   5.463  15.568  0.00  0.00    +0.000 A 
ATOM      9  C   UNL     1       5.956   4.396  15.027  0.00  0.00    +0.000 A 
ATOM     10  C   UNL     1       5.061   3.694  15.855  0.00  0.00    +0.000 A 
BRANCH   7  11
ATOM     11  C   UNL     1       7.286   7.041  17.446  0.00  0.00    +0.000 C 
ATOM     12  F   UNL     1       8.173   7.570  16.563  0.00  0.00    +0.000 F 
ATOM     13  F   UNL     1       6.459   8.057  17.812  0.00  0.00    +0.000 F 
ATOM     14  F   UNL     1       8.007   6.726  18.559  0.00  0.00    +0.000 F 
ENDBRANCH   7  11
BRANCH   9  15
ATOM     15  C   UNL     1       6.086   4.018  13.568  0.00  0.00    +0.000 C 
ATOM     16  F   UNL     1       6.468   2.728  13.370  0.00  0.00    +0.000 F 
ATOM     17  F   UNL     1       4.923   4.181  12.882  0.00  0.00    +0.000 F 
ATOM     18  F   UNL     1       7.010   4.787  12.928  0.00  0.00    +0.000 F 
ENDBRANCH   9  15
ENDBRANCH   2   5
BRANCH   1  19
ATOM     19  O   UNL     1       3.417   2.578  20.265  0.00  0.00    +0.000 OA
BRANCH  19  21
ATOM     20  C   UNL     1       1.504   2.443  21.768  0.00  0.00    +0.000 C 
ATOM     21  C   UNL     1       2.602   3.337  21.177  0.00  0.00    +0.000 C 
BRANCH  21  22
ATOM     22  C   UNL     1       1.953   4.526  20.423  0.00  0.00    +0.000 C 
BRANCH  22  23
ATOM     23  O   UNL     1       0.549   4.337  20.420  0.00  0.00    +0.000 OA
ATOM     24  H   UNL     1       0.367   4.121  21.350  0.00  0.00    +0.000 HD
ENDBRANCH  22  23
BRANCH  22  25
ATOM     25  N   UNL     1       2.198   5.802  21.101  0.00  0.00    +0.000 N 
ATOM     26  H   UNL     1       3.168   5.819  21.430  0.00  0.00    +0.000 HD
BRANCH  25  27
ATOM     27  C   UNL     1       1.956   6.986  20.373  0.00  0.00    +0.000 A 
ATOM     28  C   UNL     1       1.257   8.018  21.009  0.00  0.00    +0.000 A 
ATOM     29  C   UNL     1       0.942   9.204  20.331  0.00  0.00    +0.000 A 
ATOM     30  C   UNL     1       1.362   9.379  19.016  0.00  0.00    +0.000 A 
ATOM     31 CL   UNL     1       0.943  10.811  18.160  0.00  0.00    +0.000 Cl
ATOM     32  C   UNL     1       2.119   8.396  18.389  0.00  0.00    +0.000 A 
ATOM     33  C   UNL     1       2.424   7.214  19.072  0.00  0.00    +0.000 A 
ENDBRANCH  25  27
ENDBRANCH  22  25
ENDBRANCH  21  22
ENDBRANCH  19  21
ENDBRANCH   1  19
TORSDOF 9
ENDMDL
MODEL 6
REMARK VINA RESULT:      -8.3      0.983      1.767
REMARK  Name = 
REMARK  10 active torsions:
REMARK  status: ('A' for Active; 'I' for Inactive)
REMARK    1  A    between atoms: C_1  and  C_2
REMARK    2  A    between atoms: C_2  and  O_3
REMARK    3  A    between atoms: C_2  and  C_21
REMARK    4  A    between atoms: O_3  and  N_4
REMARK    5  A    between atoms: C_5  and  C_7
REMARK    6  A    between atoms: C_9  and  C_10
REMARK    7  A    between atoms: C_15  and  C_16
REMARK    8  A    between atoms: C_21  and  O_22
REMARK    9  A    between atoms: C_21  and  N_23
REMARK   10  A    between atoms: N_23  and  C_24
REMARK                            x       y       z     vdW  Elec       q    Type
REMARK                         _______ _______ _______ _____ _____    ______ ____
ROOT
ATOM      1  N   UNL     1       4.102   3.691  19.600  0.00  0.00    +0.000 N 
ATOM      2  C   UNL     1       4.225   3.244  18.298  0.00  0.00    +0.000 C 
ATOM      3  O   UNL     1       3.754   2.199  17.870  0.00  0.00    +0.000 OA
ATOM      4  H   UNL     1       4.734   4.382  19.984  0.00  0.00    +0.000 HD
ENDROOT
BRANCH   2   5
ATOM      5  C   UNL     1       5.057   4.103  17.395  0.00  0.00    +0.000 A 
ATOM      6  C   UNL     1       5.135   3.757  16.038  0.00  0.00    +0.000 A 
ATOM      7  C   UNL     1       5.940   4.489  15.150  0.00  0.00    +0.000 A 
ATOM      8  C   UNL     1       6.649   5.601  15.635  0.00  0.00    +0.000 A 
ATOM      9  C   UNL     1       6.578   5.970  16.987  0.00  0.00    +0.000 A 
ATOM     10  C   UNL     1       5.770   5.218  17.860  0.00  0.00    +0.000 A 
BRANCH   7  11
ATOM     11  C   UNL     1       6.090   4.076  13.703  0.00  0.00    +0.000 C 
ATOM     12  F   UNL     1       7.010   4.804  13.017  0.00  0.00    +0.000 F 
ATOM     13  F   UNL     1       6.457   2.773  13.568  0.00  0.00    +0.000 F 
ATOM     14  F   UNL     1       4.921   4.207  13.016  0.00  0.00    +0.000 F 
ENDBRANCH   7  11
BRANCH   9  15
ATOM     15  C   UNL     1       7.381   7.135  17.523  0.00  0.00    +0.000 C 
ATOM     16  F   UNL     1       8.099   6.837  18.638  0.00  0.00    +0.000 F 
ATOM     17  F   UNL     1       8.271   7.616  16.613  0.00  0.00    +0.000 F 
ATOM     18  F   UNL     1       6.583   8.186  17.858  0.00  0.00    +0.000 F 
ENDBRANCH   9  15
ENDBRANCH   2   5
BRANCH   1  19
ATOM     19  O   UNL     1       3.547   2.745  20.501  0.00  0.00    +0.000 OA
BRANCH  19  21
ATOM     20  C   UNL     1       1.543   2.311  21.818  0.00  0.00    +0.000 C 
ATOM     21  C   UNL     1       2.541   3.366  21.321  0.00  0.00    +0.000 C 
BRANCH  21  22
ATOM     22  C   UNL     1       1.789   4.440  20.493  0.00  0.00    +0.000 C 
BRANCH  22  23
ATOM     23  O   UNL     1       0.422   4.075  20.428  0.00  0.00    +0.000 OA
ATOM     24  H   UNL     1       0.427   3.183  20.815  0.00  0.00    +0.000 HD
ENDBRANCH  22  23
BRANCH  22  25
ATOM     25  N   UNL     1       1.837   5.757  21.134  0.00  0.00    +0.000 N 
ATOM     26  H   UNL     1       2.647   5.789  21.759  0.00  0.00    +0.000 HD
BRANCH  25  27
ATOM     27  C   UNL     1       1.877   6.891  20.296  0.00  0.00    +0.000 A 
ATOM     28  C   UNL     1       1.296   8.075  20.762  0.00  0.00    +0.000 A 
ATOM     29  C   UNL     1       1.260   9.227  19.963  0.00  0.00    +0.000 A 
ATOM     30  C   UNL     1       1.846   9.210  18.702  0.00  0.00    +0.000 A 
ATOM     31 CL   UNL     1       1.769  10.603  17.696  0.00  0.00    +0.000 Cl
ATOM     32  C   UNL     1       2.491   8.066  18.248  0.00  0.00    +0.000 A 
ATOM     33  C   UNL     1       2.517   6.919  19.049  0.00  0.00    +0.000 A 
ENDBRANCH  25  27
ENDBRANCH  22  25
ENDBRANCH  21  22
ENDBRANCH  19  21
ENDBRANCH   1  19
TORSDOF 9
ENDMDL
MODEL 7
REMARK VINA RESULT:      -8.3      0.764      1.449
REMARK  Name = 
REMARK  10 active torsions:
REMARK  status: ('A' for Active; 'I' for Inactive)
REMARK    1  A    between atoms: C_1  and  C_2
REMARK    2  A    between atoms: C_2  and  O_3
REMARK    3  A    between atoms: C_2  and  C_21
REMARK    4  A    between atoms: O_3  and  N_4
REMARK    5  A    between atoms: C_5  and  C_7
REMARK    6  A    between atoms: C_9  and  C_10
REMARK    7  A    between atoms: C_15  and  C_16
REMARK    8  A    between atoms: C_21  and  O_22
REMARK    9  A    between atoms: C_21  and  N_23
REMARK   10  A    between atoms: N_23  and  C_24
REMARK                            x       y       z     vdW  Elec       q    Type
REMARK                         _______ _______ _______ _____ _____    ______ ____
ROOT
ATOM      1  N   UNL     1       3.394   2.885  18.431  0.00  0.00    +0.000 N 
ATOM      2  C   UNL     1       4.682   3.260  18.767  0.00  0.00    +0.000 C 
ATOM      3  O   UNL     1       5.254   2.945  19.802  0.00  0.00    +0.000 OA
ATOM      4  H   UNL     1       2.861   3.391  17.736  0.00  0.00    +0.000 HD
ENDROOT
BRANCH   2   5
ATOM      5  C   UNL     1       5.366   4.170  17.793  0.00  0.00    +0.000 A 
ATOM      6  C   UNL     1       5.344   3.823  16.434  0.00  0.00    +0.000 A 
ATOM      7  C   UNL     1       6.012   4.605  15.477  0.00  0.00    +0.000 A 
ATOM      8  C   UNL     1       6.682   5.767  15.898  0.00  0.00    +0.000 A 
ATOM      9  C   UNL     1       6.709   6.137  17.251  0.00  0.00    +0.000 A 
ATOM     10  C   UNL     1       6.038   5.334  18.192  0.00  0.00    +0.000 A 
BRANCH   7  11
ATOM     11  C   UNL     1       6.059   4.196  14.022  0.00  0.00    +0.000 C 
ATOM     12  F   UNL     1       4.873   4.340  13.374  0.00  0.00    +0.000 F 
ATOM     13  F   UNL     1       6.972   4.909  13.310  0.00  0.00    +0.000 F 
ATOM     14  F   UNL     1       6.409   2.888  13.877  0.00  0.00    +0.000 F 
ENDBRANCH   7  11
BRANCH   9  15
ATOM     15  C   UNL     1       7.474   7.358  17.713  0.00  0.00    +0.000 C 
ATOM     16  F   UNL     1       6.682   8.430  17.978  0.00  0.00    +0.000 F 
ATOM     17  F   UNL     1       8.193   7.124  18.844  0.00  0.00    +0.000 F 
ATOM     18  F   UNL     1       8.372   7.773  16.778  0.00  0.00    +0.000 F 
ENDBRANCH   9  15
ENDBRANCH   2   5
BRANCH   1  19
ATOM     19  O   UNL     1       2.669   2.254  19.476  0.00  0.00    +0.000 OA
BRANCH  19  21
ATOM     20  C   UNL     1       1.535   2.540  21.613  0.00  0.00    +0.000 C 
ATOM     21  C   UNL     1       2.463   3.170  20.566  0.00  0.00    +0.000 C 
BRANCH  21  22
ATOM     22  C   UNL     1       1.827   4.478  20.029  0.00  0.00    +0.000 C 
BRANCH  22  23
ATOM     23  O   UNL     1       0.484   4.535  20.478  0.00  0.00    +0.000 OA
ATOM     24  H   UNL     1      -0.001   4.726  19.656  0.00  0.00    +0.000 HD
ENDBRANCH  22  23
BRANCH  22  25
ATOM     25  N   UNL     1       2.493   5.669  20.562  0.00  0.00    +0.000 N 
ATOM     26  H   UNL     1       3.504   5.558  20.450  0.00  0.00    +0.000 HD
BRANCH  25  27
ATOM     27  C   UNL     1       2.122   6.920  20.027  0.00  0.00    +0.000 A 
ATOM     28  C   UNL     1       1.434   7.813  20.856  0.00  0.00    +0.000 A 
ATOM     29  C   UNL     1       0.995   9.055  20.376  0.00  0.00    +0.000 A 
ATOM     30  C   UNL     1       1.280   9.428  19.066  0.00  0.00    +0.000 A 
ATOM     31 CL   UNL     1       0.708  10.930  18.453  0.00  0.00    +0.000 Cl
ATOM     32  C   UNL     1       2.023   8.586  18.248  0.00  0.00    +0.000 A 
ATOM     33  C   UNL     1       2.452   7.347  18.733  0.00  0.00    +0.000 A 
ENDBRANCH  25  27
ENDBRANCH  22  25
ENDBRANCH  21  22
ENDBRANCH  19  21
ENDBRANCH   1  19
TORSDOF 9
ENDMDL
MODEL 8
REMARK VINA RESULT:      -8.2      1.039      1.657
REMARK  Name = 
REMARK  10 active torsions:
REMARK  status: ('A' for Active; 'I' for Inactive)
REMARK    1  A    between atoms: C_1  and  C_2
REMARK    2  A    between atoms: C_2  and  O_3
REMARK    3  A    between atoms: C_2  and  C_21
REMARK    4  A    between atoms: O_3  and  N_4
REMARK    5  A    between atoms: C_5  and  C_7
REMARK    6  A    between atoms: C_9  and  C_10
REMARK    7  A    between atoms: C_15  and  C_16
REMARK    8  A    between atoms: C_21  and  O_22
REMARK    9  A    between atoms: C_21  and  N_23
REMARK   10  A    between atoms: N_23  and  C_24
REMARK                            x       y       z     vdW  Elec       q    Type
REMARK                         _______ _______ _______ _____ _____    ______ ____
ROOT
ATOM      1  N   UNL     1       4.073   3.740  19.580  0.00  0.00    +0.000 N 
ATOM      2  C   UNL     1       4.201   3.283  18.282  0.00  0.00    +0.000 C 
ATOM      3  O   UNL     1       3.730   2.235  17.861  0.00  0.00    +0.000 OA
ATOM      4  H   UNL     1       4.705   4.433  19.961  0.00  0.00    +0.000 HD
ENDROOT
BRANCH   2   5
ATOM      5  C   UNL     1       5.040   4.132  17.376  0.00  0.00    +0.000 A 
ATOM      6  C   UNL     1       5.121   3.775  16.022  0.00  0.00    +0.000 A 
ATOM      7  C   UNL     1       5.932   4.498  15.132  0.00  0.00    +0.000 A 
ATOM      8  C   UNL     1       6.643   5.611  15.612  0.00  0.00    +0.000 A 
ATOM      9  C   UNL     1       6.569   5.991  16.961  0.00  0.00    +0.000 A 
ATOM     10  C   UNL     1       5.754   5.247  17.836  0.00  0.00    +0.000 A 
BRANCH   7  11
ATOM     11  C   UNL     1       6.087   4.074  13.688  0.00  0.00    +0.000 C 
ATOM     12  F   UNL     1       6.421   2.766  13.534  0.00  0.00    +0.000 F 
ATOM     13  F   UNL     1       4.951   4.265  12.965  0.00  0.00    +0.000 F 
ATOM     14  F   UNL     1       7.059   4.786  13.054  0.00  0.00    +0.000 F 
ENDBRANCH   7  11
BRANCH   9  15
ATOM     15  C   UNL     1       7.374   7.156  17.491  0.00  0.00    +0.000 C 
ATOM     16  F   UNL     1       8.293   7.631  16.610  0.00  0.00    +0.000 F 
ATOM     17  F   UNL     1       6.592   8.215  17.835  0.00  0.00    +0.000 F 
ATOM     18  F   UNL     1       8.066   6.821  18.615  0.00  0.00    +0.000 F 
ENDBRANCH   9  15
ENDBRANCH   2   5
BRANCH   1  19
ATOM     19  O   UNL     1       3.511   2.803  20.487  0.00  0.00    +0.000 OA
BRANCH  19  21
ATOM     20  C   UNL     1       1.403   2.419  21.646  0.00  0.00    +0.000 C 
ATOM     21  C   UNL     1       2.500   3.433  21.294  0.00  0.00    +0.000 C 
BRANCH  21  22
ATOM     22  C   UNL     1       1.878   4.618  20.512  0.00  0.00    +0.000 C 
BRANCH  22  23
ATOM     23  O   UNL     1       0.473   4.435  20.471  0.00  0.00    +0.000 OA
ATOM     24  H   UNL     1       0.337   3.733  21.130  0.00  0.00    +0.000 HD
ENDBRANCH  22  23
BRANCH  22  25
ATOM     25  N   UNL     1       2.110   5.899  21.185  0.00  0.00    +0.000 N 
ATOM     26  H   UNL     1       3.076   5.923  21.523  0.00  0.00    +0.000 HD
BRANCH  25  27
ATOM     27  C   UNL     1       1.867   7.078  20.450  0.00  0.00    +0.000 A 
ATOM     28  C   UNL     1       1.141   8.102  21.068  0.00  0.00    +0.000 A 
ATOM     29  C   UNL     1       0.824   9.282  20.380  0.00  0.00    +0.000 A 
ATOM     30  C   UNL     1       1.271   9.459  19.075  0.00  0.00    +0.000 A 
ATOM     31 CL   UNL     1       0.851  10.883  18.205  0.00  0.00    +0.000 Cl
ATOM     32  C   UNL     1       2.054   8.486  18.466  0.00  0.00    +0.000 A 
ATOM     33  C   UNL     1       2.360   7.309  19.158  0.00  0.00    +0.000 A 
ENDBRANCH  25  27
ENDBRANCH  22  25
ENDBRANCH  21  22
ENDBRANCH  19  21
ENDBRANCH   1  19
TORSDOF 9
ENDMDL
MODEL 9
REMARK VINA RESULT:      -8.2      0.994      1.411
REMARK  Name = 
REMARK  10 active torsions:
REMARK  status: ('A' for Active; 'I' for Inactive)
REMARK    1  A    between atoms: C_1  and  C_2
REMARK    2  A    between atoms: C_2  and  O_3
REMARK    3  A    between atoms: C_2  and  C_21
REMARK    4  A    between atoms: O_3  and  N_4
REMARK    5  A    between atoms: C_5  and  C_7
REMARK    6  A    between atoms: C_9  and  C_10
REMARK    7  A    between atoms: C_15  and  C_16
REMARK    8  A    between atoms: C_21  and  O_22
REMARK    9  A    between atoms: C_21  and  N_23
REMARK   10  A    between atoms: N_23  and  C_24
REMARK                            x       y       z     vdW  Elec       q    Type
REMARK                         _______ _______ _______ _____ _____    ______ ____
ROOT
ATOM      1  N   UNL     1       4.172   3.536  19.401  0.00  0.00    +0.000 N 
ATOM      2  C   UNL     1       3.919   3.519  18.042  0.00  0.00    +0.000 C 
ATOM      3  O   UNL     1       3.020   2.884  17.507  0.00  0.00    +0.000 OA
ATOM      4  H   UNL     1       5.072   3.817  19.768  0.00  0.00    +0.000 HD
ENDROOT
BRANCH   2   5
ATOM      5  C   UNL     1       4.879   4.297  17.195  0.00  0.00    +0.000 A 
ATOM      6  C   UNL     1       5.024   3.928  15.850  0.00  0.00    +0.000 A 
ATOM      7  C   UNL     1       5.946   4.582  15.016  0.00  0.00    +0.000 A 
ATOM      8  C   UNL     1       6.706   5.640  15.543  0.00  0.00    +0.000 A 
ATOM      9  C   UNL     1       6.570   6.031  16.884  0.00  0.00    +0.000 A 
ATOM     10  C   UNL     1       5.645   5.356  17.702  0.00  0.00    +0.000 A 
BRANCH   7  11
ATOM     11  C   UNL     1       6.164   4.140  13.586  0.00  0.00    +0.000 C 
ATOM     12  F   UNL     1       5.043   4.186  12.821  0.00  0.00    +0.000 F 
ATOM     13  F   UNL     1       7.096   4.894  12.944  0.00  0.00    +0.000 F 
ATOM     14  F   UNL     1       6.612   2.854  13.518  0.00  0.00    +0.000 F 
ENDBRANCH   7  11
BRANCH   9  15
ATOM     15  C   UNL     1       7.425   7.135  17.467  0.00  0.00    +0.000 C 
ATOM     16  F   UNL     1       8.146   6.751  18.554  0.00  0.00    +0.000 F 
ATOM     17  F   UNL     1       8.320   7.629  16.570  0.00  0.00    +0.000 F 
ATOM     18  F   UNL     1       6.673   8.196  17.870  0.00  0.00    +0.000 F 
ENDBRANCH   9  15
ENDBRANCH   2   5
BRANCH   1  19
ATOM     19  O   UNL     1       3.429   2.590  20.155  0.00  0.00    +0.000 OA
BRANCH  19  21
ATOM     20  C   UNL     1       1.607   2.268  21.740  0.00  0.00    +0.000 C 
ATOM     21  C   UNL     1       2.600   3.261  21.121  0.00  0.00    +0.000 C 
BRANCH  21  22
ATOM     22  C   UNL     1       1.820   4.407  20.427  0.00  0.00    +0.000 C 
BRANCH  22  23
ATOM     23  O   UNL     1       0.438   4.103  20.483  0.00  0.00    +0.000 OA
ATOM     24  H   UNL     1       0.052   4.945  20.777  0.00  0.00    +0.000 HD
ENDBRANCH  22  23
BRANCH  22  25
ATOM     25  N   UNL     1       1.992   5.685  21.122  0.00  0.00    +0.000 N 
ATOM     26  H   UNL     1       2.902   5.684  21.593  0.00  0.00    +0.000 HD
BRANCH  25  27
ATOM     27  C   UNL     1       1.891   6.865  20.357  0.00  0.00    +0.000 A 
ATOM     28  C   UNL     1       2.438   6.864  19.069  0.00  0.00    +0.000 A 
ATOM     29  C   UNL     1       2.413   8.016  18.270  0.00  0.00    +0.000 A 
ATOM     30  C   UNL     1       1.801   9.171  18.746  0.00  0.00    +0.000 A 
ATOM     31 CL   UNL     1       1.803  10.604  17.794  0.00  0.00    +0.000 Cl
ATOM     32  C   UNL     1       1.188   9.173  19.993  0.00  0.00    +0.000 A 
ATOM     33  C   UNL     1       1.223   8.021  20.785  0.00  0.00    +0.000 A 
ENDBRANCH  25  27
ENDBRANCH  22  25
ENDBRANCH  21  22
ENDBRANCH  19  21
ENDBRANCH   1  19
TORSDOF 9
ENDMDL
