MODEL 1
REMARK VINA RESULT:      -7.1      0.000      0.000
REMARK  Name = 
REMARK  8 active torsions:
REMARK  status: ('A' for Active; 'I' for Inactive)
REMARK    1  A    between atoms: C_1  and  C_2
REMARK    2  A    between atoms: C_2  and  C_3
REMARK    3  A    between atoms: C_2  and  C_4
REMARK    4  A    between atoms: C_7  and  C_8
REMARK    5  A    between atoms: C_8  and  N_9
REMARK    6  A    between atoms: N_9  and  C_10
REMARK    7  A    between atoms: N_9  and  C_11
REMARK    8  A    between atoms: C_11  and  C_12
REMARK                            x       y       z     vdW  Elec       q    Type
REMARK                         _______ _______ _______ _____ _____    ______ ____
ROOT
ATOM      1  C   UNL     1       5.200   6.072  17.275  0.00  0.00    +0.000 C 
ENDROOT
BRANCH   1   5
ATOM      2  C   UNL     1       6.456   4.600  14.284  0.00  0.00    +0.000 A 
ATOM      3  N   UNL     1       7.562   5.257  14.663  0.00  0.00    +0.000 NA
ATOM      4  O   UNL     1       7.166   5.888  15.845  0.00  0.00    +0.000 OA
ATOM      5  C   UNL     1       5.864   5.534  16.053  0.00  0.00    +0.000 A 
ATOM      6  N   UNL     1       5.382   4.738  15.125  0.00  0.00    +0.000 NA
BRANCH   2   8
ATOM      7  C   UNL     1       4.960   3.594  12.580  0.00  0.00    +0.000 C 
ATOM      8  C   UNL     1       6.402   3.751  13.062  0.00  0.00    +0.000 C 
ATOM      9  C   UNL     1       7.282   4.323  11.949  0.00  0.00    +0.000 C 
ENDBRANCH   2   8
ENDBRANCH   1   5
BRANCH   1  10
ATOM     10  N   UNL     1       5.332   5.199  18.464  0.00  0.00    +0.000 NA
ATOM     11  C   UNL     1       6.615   5.432  19.143  0.00  0.00    +0.000 C 
BRANCH  10  12
ATOM     12  C   UNL     1       4.229   5.417  19.424  0.00  0.00    +0.000 C 
BRANCH  12  13
ATOM     13  C   UNL     1       3.279   4.220  19.648  0.00  0.00    +0.000 C 
ATOM     14  C   UNL     1       1.804   4.634  19.636  0.00  0.00    +0.000 C 
ATOM     15  C   UNL     1       0.911   3.408  19.799  0.00  0.00    +0.000 C 
ATOM     16  C   UNL     1       1.278   2.340  18.774  0.00  0.00    +0.000 C 
ATOM     17  C   UNL     1       2.775   2.058  18.799  0.00  0.00    +0.000 C 
ATOM     18  O   UNL     1       3.522   3.260  18.607  0.00  0.00    +0.000 OA
ENDBRANCH  12  13
ENDBRANCH  10  12
ENDBRANCH   1  10
TORSDOF 5
ENDMDL
MODEL 2
REMARK VINA RESULT:      -7.0      1.000      1.594
REMARK  Name = 
REMARK  8 active torsions:
REMARK  status: ('A' for Active; 'I' for Inactive)
REMARK    1  A    between atoms: C_1  and  C_2
REMARK    2  A    between atoms: C_2  and  C_3
REMARK    3  A    between atoms: C_2  and  C_4
REMARK    4  A    between atoms: C_7  and  C_8
REMARK    5  A    between atoms: C_8  and  N_9
REMARK    6  A    between atoms: N_9  and  C_10
REMARK    7  A    between atoms: N_9  and  C_11
REMARK    8  A    between atoms: C_11  and  C_12
REMARK                            x       y       z     vdW  Elec       q    Type
REMARK                         _______ _______ _______ _____ _____    ______ ____
ROOT
ATOM      1  C   UNL     1       6.743   4.758  17.679  0.00  0.00    +0.000 C 
ENDROOT
BRANCH   1   5
ATOM      2  C   UNL     1       6.705   4.265  14.151  0.00  0.00    +0.000 A 
ATOM      3  N   UNL     1       7.455   5.375  14.189  0.00  0.00    +0.000 NA
ATOM      4  O   UNL     1       7.525   5.664  15.555  0.00  0.00    +0.000 OA
ATOM      5  C   UNL     1       6.814   4.688  16.191  0.00  0.00    +0.000 A 
ATOM      6  N   UNL     1       6.293   3.800  15.374  0.00  0.00    +0.000 NA
BRANCH   2   8
ATOM      7  C   UNL     1       4.872   3.665  12.590  0.00  0.00    +0.000 C 
ATOM      8  C   UNL     1       6.369   3.563  12.882  0.00  0.00    +0.000 C 
ATOM      9  C   UNL     1       7.184   4.113  11.710  0.00  0.00    +0.000 C 
ENDBRANCH   2   8
ENDBRANCH   1   5
BRANCH   1  10
ATOM     10  N   UNL     1       5.376   4.986  18.204  0.00  0.00    +0.000 NA
ATOM     11  C   UNL     1       4.623   5.890  17.325  0.00  0.00    +0.000 C 
BRANCH  10  12
ATOM     12  C   UNL     1       4.631   3.717  18.347  0.00  0.00    +0.000 C 
BRANCH  12  13
ATOM     13  C   UNL     1       3.143   3.847  18.743  0.00  0.00    +0.000 C 
ATOM     14  C   UNL     1       2.369   2.539  18.546  0.00  0.00    +0.000 C 
ATOM     15  C   UNL     1       0.925   2.707  19.009  0.00  0.00    +0.000 C 
ATOM     16  C   UNL     1       0.881   3.261  20.429  0.00  0.00    +0.000 C 
ATOM     17  C   UNL     1       1.747   4.508  20.550  0.00  0.00    +0.000 C 
ATOM     18  O   UNL     1       3.084   4.242  20.124  0.00  0.00    +0.000 OA
ENDBRANCH  12  13
ENDBRANCH  10  12
ENDBRANCH   1  10
TORSDOF 5
ENDMDL
MODEL 3
REMARK VINA RESULT:      -6.8      1.087      1.396
REMARK  Name = 
REMARK  8 active torsions:
REMARK  status: ('A' for Active; 'I' for Inactive)
REMARK    1  A    between atoms: C_1  and  C_2
REMARK    2  A    between atoms: C_2  and  C_3
REMARK    3  A    between atoms: C_2  and  C_4
REMARK    4  A    between atoms: C_7  and  C_8
REMARK    5  A    between atoms: C_8  and  N_9
REMARK    6  A    between atoms: N_9  and  C_10
REMARK    7  A    between atoms: N_9  and  C_11
REMARK    8  A    between atoms: C_11  and  C_12
REMARK                            x       y       z     vdW  Elec       q    Type
REMARK                         _______ _______ _______ _____ _____    ______ ____
ROOT
ATOM      1  C   UNL     1       5.763   6.093  17.212  0.00  0.00    +0.000 C 
ENDROOT
BRANCH   1   5
ATOM      2  C   UNL     1       6.526   4.506  14.116  0.00  0.00    +0.000 A 
ATOM      3  N   UNL     1       7.642   5.238  14.245  0.00  0.00    +0.000 NA
ATOM      4  O   UNL     1       7.437   5.919  15.448  0.00  0.00    +0.000 OA
ATOM      5  C   UNL     1       6.220   5.515  15.916  0.00  0.00    +0.000 A 
ATOM      6  N   UNL     1       5.621   4.642  15.137  0.00  0.00    +0.000 NA
BRANCH   2   8
ATOM      7  C   UNL     1       4.830   3.616  12.539  0.00  0.00    +0.000 C 
ATOM      8  C   UNL     1       6.297   3.583  12.970  0.00  0.00    +0.000 C 
ATOM      9  C   UNL     1       7.212   3.921  11.792  0.00  0.00    +0.000 C 
ENDBRANCH   2   8
ENDBRANCH   1   5
BRANCH   1  10
ATOM     10  N   UNL     1       4.769   5.257  17.925  0.00  0.00    +0.000 NA
ATOM     11  C   UNL     1       5.327   4.741  19.183  0.00  0.00    +0.000 C 
BRANCH  10  12
ATOM     12  C   UNL     1       3.533   6.014  18.218  0.00  0.00    +0.000 C 
BRANCH  12  13
ATOM     13  C   UNL     1       2.299   5.169  18.606  0.00  0.00    +0.000 C 
ATOM     14  C   UNL     1       2.330   3.768  17.984  0.00  0.00    +0.000 C 
ATOM     15  C   UNL     1       1.123   2.959  18.448  0.00  0.00    +0.000 C 
ATOM     16  C   UNL     1       1.023   2.975  19.969  0.00  0.00    +0.000 C 
ATOM     17  C   UNL     1       1.087   4.401  20.501  0.00  0.00    +0.000 C 
ATOM     18  O   UNL     1       2.265   5.063  20.038  0.00  0.00    +0.000 OA
ENDBRANCH  12  13
ENDBRANCH  10  12
ENDBRANCH   1  10
TORSDOF 5
ENDMDL
MODEL 4
REMARK VINA RESULT:      -6.8      1.111      1.211
REMARK  Name = 
REMARK  8 active torsions:
REMARK  status: ('A' for Active; 'I' for Inactive)
REMARK    1  A    between atoms: C_1  and  C_2
REMARK    2  A    between atoms: C_2  and  C_3
REMARK    3  A    between atoms: C_2  and  C_4
REMARK    4  A    between atoms: C_7  and  C_8
REMARK    5  A    between atoms: C_8  and  N_9
REMARK    6  A    between atoms: N_9  and  C_10
REMARK    7  A    between atoms: N_9  and  C_11
REMARK    8  A    between atoms: C_11  and  C_12
REMARK                            x       y       z     vdW  Elec       q    Type
REMARK                         _______ _______ _______ _____ _____    ______ ____
ROOT
ATOM      1  C   UNL     1       5.646   5.642  17.284  0.00  0.00    +0.000 C 
ENDROOT
BRANCH   1   5
ATOM      2  C   UNL     1       6.464   4.399  14.048  0.00  0.00    +0.000 A 
ATOM      3  N   UNL     1       7.478   5.264  14.191  0.00  0.00    +0.000 NA
ATOM      4  O   UNL     1       7.242   5.823  15.450  0.00  0.00    +0.000 OA
ATOM      5  C   UNL     1       6.113   5.226  15.930  0.00  0.00    +0.000 A 
ATOM      6  N   UNL     1       5.598   4.337  15.109  0.00  0.00    +0.000 NA
BRANCH   2   8
ATOM      7  C   UNL     1       4.886   3.651  12.285  0.00  0.00    +0.000 C 
ATOM      8  C   UNL     1       6.305   3.538  12.843  0.00  0.00    +0.000 C 
ATOM      9  C   UNL     1       7.335   3.888  11.769  0.00  0.00    +0.000 C 
ENDBRANCH   2   8
ENDBRANCH   1   5
BRANCH   1  10
ATOM     10  N   UNL     1       5.708   4.564  18.298  0.00  0.00    +0.000 NA
ATOM     11  C   UNL     1       5.947   5.120  19.637  0.00  0.00    +0.000 C 
BRANCH  10  12
ATOM     12  C   UNL     1       4.463   3.766  18.320  0.00  0.00    +0.000 C 
BRANCH  12  13
ATOM     13  C   UNL     1       3.605   3.887  19.599  0.00  0.00    +0.000 C 
ATOM     14  C   UNL     1       2.248   4.547  19.330  0.00  0.00    +0.000 C 
ATOM     15  C   UNL     1       1.419   4.586  20.610  0.00  0.00    +0.000 C 
ATOM     16  C   UNL     1       1.336   3.197  21.235  0.00  0.00    +0.000 C 
ATOM     17  C   UNL     1       2.723   2.586  21.382  0.00  0.00    +0.000 C 
ATOM     18  O   UNL     1       3.406   2.566  20.127  0.00  0.00    +0.000 OA
ENDBRANCH  12  13
ENDBRANCH  10  12
ENDBRANCH   1  10
TORSDOF 5
ENDMDL
MODEL 5
REMARK VINA RESULT:      -6.7      1.346      1.765
REMARK  Name = 
REMARK  8 active torsions:
REMARK  status: ('A' for Active; 'I' for Inactive)
REMARK    1  A    between atoms: C_1  and  C_2
REMARK    2  A    between atoms: C_2  and  C_3
REMARK    3  A    between atoms: C_2  and  C_4
REMARK    4  A    between atoms: C_7  and  C_8
REMARK    5  A    between atoms: C_8  and  N_9
REMARK    6  A    between atoms: N_9  and  C_10
REMARK    7  A    between atoms: N_9  and  C_11
REMARK    8  A    between atoms: C_11  and  C_12
REMARK                            x       y       z     vdW  Elec       q    Type
REMARK                         _______ _______ _______ _____ _____    ______ ____
ROOT
ATOM      1  C   UNL     1       6.974   4.508  16.842  0.00  0.00    +0.000 C 
ENDROOT
BRANCH   1   5
ATOM      2  C   UNL     1       6.663   4.261  13.303  0.00  0.00    +0.000 A 
ATOM      3  N   UNL     1       7.546   5.268  13.355  0.00  0.00    +0.000 NA
ATOM      4  O   UNL     1       7.734   5.453  14.728  0.00  0.00    +0.000 OA
ATOM      5  C   UNL     1       6.946   4.530  15.352  0.00  0.00    +0.000 A 
ATOM      6  N   UNL     1       6.271   3.767  14.521  0.00  0.00    +0.000 NA
BRANCH   2   8
ATOM      7  C   UNL     1       7.009   2.482  11.608  0.00  0.00    +0.000 C 
ATOM      8  C   UNL     1       6.167   3.690  12.020  0.00  0.00    +0.000 C 
ATOM      9  C   UNL     1       4.689   3.308  12.115  0.00  0.00    +0.000 C 
ENDBRANCH   2   8
ENDBRANCH   1   5
BRANCH   1  10
ATOM     10  N   UNL     1       6.105   5.528  17.474  0.00  0.00    +0.000 NA
ATOM     11  C   UNL     1       6.596   6.883  17.186  0.00  0.00    +0.000 C 
BRANCH  10  12
ATOM     12  C   UNL     1       4.705   5.412  17.011  0.00  0.00    +0.000 C 
BRANCH  12  13
ATOM     13  C   UNL     1       3.782   4.515  17.865  0.00  0.00    +0.000 C 
ATOM     14  C   UNL     1       2.495   5.233  18.285  0.00  0.00    +0.000 C 
ATOM     15  C   UNL     1       1.595   4.285  19.072  0.00  0.00    +0.000 C 
ATOM     16  C   UNL     1       1.374   2.991  18.295  0.00  0.00    +0.000 C 
ATOM     17  C   UNL     1       2.703   2.397  17.845  0.00  0.00    +0.000 C 
ATOM     18  O   UNL     1       3.456   3.348  17.092  0.00  0.00    +0.000 OA
ENDBRANCH  12  13
ENDBRANCH  10  12
ENDBRANCH   1  10
TORSDOF 5
ENDMDL
MODEL 6
REMARK VINA RESULT:      -6.7      1.649      1.997
REMARK  Name = 
REMARK  8 active torsions:
REMARK  status: ('A' for Active; 'I' for Inactive)
REMARK    1  A    between atoms: C_1  and  C_2
REMARK    2  A    between atoms: C_2  and  C_3
REMARK    3  A    between atoms: C_2  and  C_4
REMARK    4  A    between atoms: C_7  and  C_8
REMARK    5  A    between atoms: C_8  and  N_9
REMARK    6  A    between atoms: N_9  and  C_10
REMARK    7  A    between atoms: N_9  and  C_11
REMARK    8  A    between atoms: C_11  and  C_12
REMARK                            x       y       z     vdW  Elec       q    Type
REMARK                         _______ _______ _______ _____ _____    ______ ____
ROOT
ATOM      1  C   UNL     1       7.213   5.280  15.749  0.00  0.00    +0.000 C 
ENDROOT
BRANCH   1   5
ATOM      2  C   UNL     1       6.189   3.571  12.797  0.00  0.00    +0.000 A 
ATOM      3  N   UNL     1       7.066   4.420  12.241  0.00  0.00    +0.000 NA
ATOM      4  O   UNL     1       7.528   5.158  13.335  0.00  0.00    +0.000 OA
ATOM      5  C   UNL     1       6.883   4.664  14.432  0.00  0.00    +0.000 A 
ATOM      6  N   UNL     1       6.052   3.684  14.156  0.00  0.00    +0.000 NA
BRANCH   2   8
ATOM      7  C   UNL     1       4.343   3.218  11.176  0.00  0.00    +0.000 C 
ATOM      8  C   UNL     1       5.443   2.554  12.006  0.00  0.00    +0.000 C 
ATOM      9  C   UNL     1       6.383   1.749  11.107  0.00  0.00    +0.000 C 
ENDBRANCH   2   8
ENDBRANCH   1   5
BRANCH   1  10
ATOM     10  N   UNL     1       6.475   4.688  16.890  0.00  0.00    +0.000 NA
ATOM     11  C   UNL     1       7.211   4.887  18.147  0.00  0.00    +0.000 C 
BRANCH  10  12
ATOM     12  C   UNL     1       5.122   5.270  17.023  0.00  0.00    +0.000 C 
BRANCH  12  13
ATOM     13  C   UNL     1       4.111   4.447  17.852  0.00  0.00    +0.000 C 
ATOM     14  C   UNL     1       2.739   5.125  17.939  0.00  0.00    +0.000 C 
ATOM     15  C   UNL     1       1.764   4.243  18.714  0.00  0.00    +0.000 C 
ATOM     16  C   UNL     1       1.740   2.834  18.132  0.00  0.00    +0.000 C 
ATOM     17  C   UNL     1       3.152   2.277  18.002  0.00  0.00    +0.000 C 
ATOM     18  O   UNL     1       3.976   3.156  17.235  0.00  0.00    +0.000 OA
ENDBRANCH  12  13
ENDBRANCH  10  12
ENDBRANCH   1  10
TORSDOF 5
ENDMDL
MODEL 7
REMARK VINA RESULT:      -6.6      1.528      6.676
REMARK  Name = 
REMARK  8 active torsions:
REMARK  status: ('A' for Active; 'I' for Inactive)
REMARK    1  A    between atoms: C_1  and  C_2
REMARK    2  A    between atoms: C_2  and  C_3
REMARK    3  A    between atoms: C_2  and  C_4
REMARK    4  A    between atoms: C_7  and  C_8
REMARK    5  A    between atoms: C_8  and  N_9
REMARK    6  A    between atoms: N_9  and  C_10
REMARK    7  A    between atoms: N_9  and  C_11
REMARK    8  A    between atoms: C_11  and  C_12
REMARK                            x       y       z     vdW  Elec       q    Type
REMARK                         _______ _______ _______ _____ _____    ______ ____
ROOT
ATOM      1  C   UNL     1       5.914   5.163  18.539  0.00  0.00    +0.000 C 
ENDROOT
BRANCH   1   5
ATOM      2  C   UNL     1       3.130   3.417  19.911  0.00  0.00    +0.000 A 
ATOM      3  N   UNL     1       4.071   2.484  20.117  0.00  0.00    +0.000 NA
ATOM      4  O   UNL     1       5.224   3.078  19.596  0.00  0.00    +0.000 OA
ATOM      5  C   UNL     1       4.850   4.309  19.139  0.00  0.00    +0.000 A 
ATOM      6  N   UNL     1       3.574   4.569  19.315  0.00  0.00    +0.000 NA
BRANCH   2   8
ATOM      7  C   UNL     1       1.636   2.502  21.669  0.00  0.00    +0.000 C 
ATOM      8  C   UNL     1       1.712   3.237  20.330  0.00  0.00    +0.000 C 
ATOM      9  C   UNL     1       0.981   4.578  20.410  0.00  0.00    +0.000 C 
ENDBRANCH   2   8
ENDBRANCH   1   5
BRANCH   1  10
ATOM     10  N   UNL     1       5.725   5.430  17.094  0.00  0.00    +0.000 NA
ATOM     11  C   UNL     1       4.966   6.672  16.888  0.00  0.00    +0.000 C 
BRANCH  10  12
ATOM     12  C   UNL     1       7.020   5.531  16.386  0.00  0.00    +0.000 C 
BRANCH  12  13
ATOM     13  C   UNL     1       7.130   4.740  15.063  0.00  0.00    +0.000 C 
ATOM     14  C   UNL     1       5.766   4.258  14.555  0.00  0.00    +0.000 C 
ATOM     15  C   UNL     1       5.927   3.540  13.219  0.00  0.00    +0.000 C 
ATOM     16  C   UNL     1       6.699   4.410  12.233  0.00  0.00    +0.000 C 
ATOM     17  C   UNL     1       7.995   4.913  12.856  0.00  0.00    +0.000 C 
ATOM     18  O   UNL     1       7.738   5.597  14.083  0.00  0.00    +0.000 OA
ENDBRANCH  12  13
ENDBRANCH  10  12
ENDBRANCH   1  10
TORSDOF 5
ENDMDL
MODEL 8
REMARK VINA RESULT:      -6.4      1.840      6.276
REMARK  Name = 
REMARK  8 active torsions:
REMARK  status: ('A' for Active; 'I' for Inactive)
REMARK    1  A    between atoms: C_1  and  C_2
REMARK    2  A    between atoms: C_2  and  C_3
REMARK    3  A    between atoms: C_2  and  C_4
REMARK    4  A    between atoms: C_7  and  C_8
REMARK    5  A    between atoms: C_8  and  N_9
REMARK    6  A    between atoms: N_9  and  C_10
REMARK    7  A    between atoms: N_9  and  C_11
REMARK    8  A    between atoms: C_11  and  C_12
REMARK                            x       y       z     vdW  Elec       q    Type
REMARK                         _______ _______ _______ _____ _____    ______ ____
ROOT
ATOM      1  C   UNL     1       4.620   4.710  15.877  0.00  0.00    +0.000 C 
ENDROOT
BRANCH   1   5
ATOM      2  C   UNL     1       2.897   3.586  18.784  0.00  0.00    +0.000 A 
ATOM      3  N   UNL     1       3.565   2.458  18.500  0.00  0.00    +0.000 NA
ATOM      4  O   UNL     1       4.280   2.796  17.347  0.00  0.00    +0.000 OA
ATOM      5  C   UNL     1       3.968   4.096  17.068  0.00  0.00    +0.000 A 
ATOM      6  N   UNL     1       3.126   4.629  17.925  0.00  0.00    +0.000 NA
BRANCH   2   8
ATOM      7  C   UNL     1       2.486   2.826  21.110  0.00  0.00    +0.000 C 
ATOM      8  C   UNL     1       1.999   3.713  19.965  0.00  0.00    +0.000 C 
ATOM      9  C   UNL     1       1.885   5.168  20.422  0.00  0.00    +0.000 C 
ENDBRANCH   2   8
ENDBRANCH   1   5
BRANCH   1  10
ATOM     10  N   UNL     1       5.751   3.920  15.336  0.00  0.00    +0.000 NA
ATOM     11  C   UNL     1       5.670   3.827  13.872  0.00  0.00    +0.000 C 
BRANCH  10  12
ATOM     12  C   UNL     1       7.054   4.509  15.713  0.00  0.00    +0.000 C 
BRANCH  12  13
ATOM     13  C   UNL     1       7.034   5.489  16.907  0.00  0.00    +0.000 C 
ATOM     14  C   UNL     1       7.757   4.927  18.136  0.00  0.00    +0.000 C 
ATOM     15  C   UNL     1       7.760   5.957  19.261  0.00  0.00    +0.000 C 
ATOM     16  C   UNL     1       8.303   7.292  18.762  0.00  0.00    +0.000 C 
ATOM     17  C   UNL     1       7.586   7.727  17.491  0.00  0.00    +0.000 C 
ATOM     18  O   UNL     1       7.665   6.711  16.489  0.00  0.00    +0.000 OA
ENDBRANCH  12  13
ENDBRANCH  10  12
ENDBRANCH   1  10
TORSDOF 5
ENDMDL
MODEL 9
REMARK VINA RESULT:      -6.4      1.450      1.794
REMARK  Name = 
REMARK  8 active torsions:
REMARK  status: ('A' for Active; 'I' for Inactive)
REMARK    1  A    between atoms: C_1  and  C_2
REMARK    2  A    between atoms: C_2  and  C_3
REMARK    3  A    between atoms: C_2  and  C_4
REMARK    4  A    between atoms: C_7  and  C_8
REMARK    5  A    between atoms: C_8  and  N_9
REMARK    6  A    between atoms: N_9  and  C_10
REMARK    7  A    between atoms: N_9  and  C_11
REMARK    8  A    between atoms: C_11  and  C_12
REMARK                            x       y       z     vdW  Elec       q    Type
REMARK                         _______ _______ _______ _____ _____    ______ ____
ROOT
ATOM      1  C   UNL     1       7.426   6.048  17.689  0.00  0.00    +0.000 C 
ENDROOT
BRANCH   1   5
ATOM      2  C   UNL     1       6.434   4.806  14.501  0.00  0.00    +0.000 A 
ATOM      3  N   UNL     1       5.540   5.799  14.615  0.00  0.00    +0.000 NA
ATOM      4  O   UNL     1       5.843   6.357  15.860  0.00  0.00    +0.000 OA
ATOM      5  C   UNL     1       6.894   5.640  16.357  0.00  0.00    +0.000 A 
ATOM      6  N   UNL     1       7.299   4.679  15.557  0.00  0.00    +0.000 NA
BRANCH   2   8
ATOM      7  C   UNL     1       5.111   3.617  12.771  0.00  0.00    +0.000 C 
ATOM      8  C   UNL     1       6.511   3.926  13.303  0.00  0.00    +0.000 C 
ATOM      9  C   UNL     1       7.376   4.552  12.207  0.00  0.00    +0.000 C 
ENDBRANCH   2   8
ENDBRANCH   1   5
BRANCH   1  10
ATOM     10  N   UNL     1       7.126   5.086  18.774  0.00  0.00    +0.000 NA
ATOM     11  C   UNL     1       7.896   5.408  19.984  0.00  0.00    +0.000 C 
BRANCH  10  12
ATOM     12  C   UNL     1       5.686   5.072  19.107  0.00  0.00    +0.000 C 
BRANCH  12  13
ATOM     13  C   UNL     1       4.862   3.914  18.500  0.00  0.00    +0.000 C 
ATOM     14  C   UNL     1       4.453   2.875  19.549  0.00  0.00    +0.000 C 
ATOM     15  C   UNL     1       3.593   1.790  18.909  0.00  0.00    +0.000 C 
ATOM     16  C   UNL     1       2.428   2.413  18.146  0.00  0.00    +0.000 C 
ATOM     17  C   UNL     1       2.922   3.493  17.192  0.00  0.00    +0.000 C 
ATOM     18  O   UNL     1       3.689   4.476  17.890  0.00  0.00    +0.000 OA
ENDBRANCH  12  13
ENDBRANCH  10  12
ENDBRANCH   1  10
TORSDOF 5
ENDMDL
