MODEL 1
REMARK VINA RESULT:      -5.4      0.000      0.000
REMARK  Name = 
REMARK  8 active torsions:
REMARK  status: ('A' for Active; 'I' for Inactive)
REMARK    1  A    between atoms: N_1  and  C_2
REMARK    2  A    between atoms: C_2  and  C_3
REMARK    3  A    between atoms: C_3  and  C_4
REMARK    4  A    between atoms: C_4  and  C_5
REMARK    5  A    between atoms: C_5  and  C_6
REMARK    6  A    between atoms: C_6  and  C_7
REMARK    7  A    between atoms: C_6  and  C_10
REMARK    8  A    between atoms: C_7  and  O_9
REMARK                            x       y       z     vdW  Elec       q    Type
REMARK                         _______ _______ _______ _____ _____    ______ ____
ROOT
ATOM      1  C   UNL     1       4.563   4.108  19.319  0.00  0.00    +0.000 C 
ENDROOT
BRANCH   1   2
ATOM      2  C   UNL     1       5.499   4.445  18.178  0.00  0.00    +0.000 A 
ATOM      3  C   UNL     1       5.247   4.784  16.866  0.00  0.00    +0.000 A 
ATOM      4  N   UNL     1       6.476   4.922  16.279  0.00  0.00    +0.000 N 
ATOM      5  C   UNL     1       7.418   4.680  17.235  0.00  0.00    +0.000 A 
ATOM      6  N   UNL     1       6.866   4.394  18.391  0.00  0.00    +0.000 NA
ATOM      7  H   UNL     1       6.657   5.146  15.308  0.00  0.00    +0.000 HD
ENDBRANCH   1   2
BRANCH   1   8
ATOM      8  C   UNL     1       4.477   2.582  19.510  0.00  0.00    +0.000 C 
ATOM      9  O   UNL     1       4.826   1.991  20.526  0.00  0.00    +0.000 OA
BRANCH   8  10
ATOM     10  O   UNL     1       4.052   1.882  18.433  0.00  0.00    +0.000 OA
ATOM     11  H   UNL     1       4.807   1.519  17.907  0.00  0.00    +0.000 HD
ENDBRANCH   8  10
ENDBRANCH   1   8
BRANCH   1  12
ATOM     12  C   UNL     1       3.175   4.764  19.123  0.00  0.00    +0.000 C 
BRANCH  12  13
ATOM     13  C   UNL     1       2.264   4.866  20.352  0.00  0.00    +0.000 C 
BRANCH  13  14
ATOM     14  C   UNL     1       1.062   3.926  20.309  0.00  0.00    +0.000 C 
BRANCH  14  15
ATOM     15  C   UNL     1       1.252   2.756  21.271  0.00  0.00    +0.000 C 
BRANCH  15  16
ATOM     16  N   UNL     1       2.322   3.056  22.214  0.00  0.00    +0.000 NA
ATOM     17  H   UNL     1       1.957   3.005  23.165  0.00  0.00    +0.000 HD
ATOM     18  H   UNL     1       2.643   4.013  22.079  0.00  0.00    +0.000 HD
ENDBRANCH  15  16
ENDBRANCH  14  15
ENDBRANCH  13  14
ENDBRANCH  12  13
ENDBRANCH   1  12
TORSDOF 8
ENDMDL
MODEL 2
REMARK VINA RESULT:      -5.4      1.956      5.454
REMARK  Name = 
REMARK  8 active torsions:
REMARK  status: ('A' for Active; 'I' for Inactive)
REMARK    1  A    between atoms: N_1  and  C_2
REMARK    2  A    between atoms: C_2  and  C_3
REMARK    3  A    between atoms: C_3  and  C_4
REMARK    4  A    between atoms: C_4  and  C_5
REMARK    5  A    between atoms: C_5  and  C_6
REMARK    6  A    between atoms: C_6  and  C_7
REMARK    7  A    between atoms: C_6  and  C_10
REMARK    8  A    between atoms: C_7  and  O_9
REMARK                            x       y       z     vdW  Elec       q    Type
REMARK                         _______ _______ _______ _____ _____    ______ ____
ROOT
ATOM      1  C   UNL     1       3.931   3.400  18.714  0.00  0.00    +0.000 C 
ENDROOT
BRANCH   1   2
ATOM      2  C   UNL     1       2.645   3.234  19.496  0.00  0.00    +0.000 A 
ATOM      3  C   UNL     1       1.326   3.320  19.106  0.00  0.00    +0.000 A 
ATOM      4  N   UNL     1       0.593   3.138  20.247  0.00  0.00    +0.000 N 
ATOM      5  C   UNL     1       1.468   2.938  21.272  0.00  0.00    +0.000 A 
ATOM      6  N   UNL     1       2.712   2.985  20.857  0.00  0.00    +0.000 NA
ATOM      7  H   UNL     1      -0.417   3.162  20.323  0.00  0.00    +0.000 HD
ENDBRANCH   1   2
BRANCH   1   8
ATOM      8  C   UNL     1       4.789   4.524  19.325  0.00  0.00    +0.000 C 
ATOM      9  O   UNL     1       6.010   4.483  19.431  0.00  0.00    +0.000 OA
BRANCH   8  10
ATOM     10  O   UNL     1       4.101   5.575  19.830  0.00  0.00    +0.000 OA
ATOM     11  H   UNL     1       4.667   6.141  20.412  0.00  0.00    +0.000 HD
ENDBRANCH   8  10
ENDBRANCH   1   8
BRANCH   1  12
ATOM     12  C   UNL     1       3.650   3.615  17.207  0.00  0.00    +0.000 C 
BRANCH  12  13
ATOM     13  C   UNL     1       4.566   4.586  16.453  0.00  0.00    +0.000 C 
BRANCH  13  14
ATOM     14  C   UNL     1       5.732   3.907  15.738  0.00  0.00    +0.000 C 
BRANCH  14  15
ATOM     15  C   UNL     1       7.046   4.622  16.042  0.00  0.00    +0.000 C 
BRANCH  15  16
ATOM     16  N   UNL     1       7.533   5.298  14.845  0.00  0.00    +0.000 NA
ATOM     17  H   UNL     1       6.742   5.695  14.339  0.00  0.00    +0.000 HD
ATOM     18  H   UNL     1       7.967   4.622  14.220  0.00  0.00    +0.000 HD
ENDBRANCH  15  16
ENDBRANCH  14  15
ENDBRANCH  13  14
ENDBRANCH  12  13
ENDBRANCH   1  12
TORSDOF 8
ENDMDL
MODEL 3
REMARK VINA RESULT:      -5.4      3.233      4.142
REMARK  Name = 
REMARK  8 active torsions:
REMARK  status: ('A' for Active; 'I' for Inactive)
REMARK    1  A    between atoms: N_1  and  C_2
REMARK    2  A    between atoms: C_2  and  C_3
REMARK    3  A    between atoms: C_3  and  C_4
REMARK    4  A    between atoms: C_4  and  C_5
REMARK    5  A    between atoms: C_5  and  C_6
REMARK    6  A    between atoms: C_6  and  C_7
REMARK    7  A    between atoms: C_6  and  C_10
REMARK    8  A    between atoms: C_7  and  O_9
REMARK                            x       y       z     vdW  Elec       q    Type
REMARK                         _______ _______ _______ _____ _____    ______ ____
ROOT
ATOM      1  C   UNL     1       6.220   4.358  16.036  0.00  0.00    +0.000 C 
ENDROOT
BRANCH   1   2
ATOM      2  C   UNL     1       6.877   5.374  16.947  0.00  0.00    +0.000 A 
ATOM      3  C   UNL     1       7.590   5.220  18.116  0.00  0.00    +0.000 A 
ATOM      4  N   UNL     1       7.891   6.488  18.533  0.00  0.00    +0.000 N 
ATOM      5  C   UNL     1       7.375   7.357  17.618  0.00  0.00    +0.000 A 
ATOM      6  N   UNL     1       6.761   6.721  16.647  0.00  0.00    +0.000 NA
ATOM      7  H   UNL     1       8.393   6.741  19.376  0.00  0.00    +0.000 HD
ENDBRANCH   1   2
BRANCH   1   8
ATOM      8  C   UNL     1       6.779   4.480  14.606  0.00  0.00    +0.000 C 
ATOM      9  O   UNL     1       6.390   3.815  13.652  0.00  0.00    +0.000 OA
BRANCH   8  10
ATOM     10  O   UNL     1       7.816   5.336  14.455  0.00  0.00    +0.000 OA
ATOM     11  H   UNL     1       8.684   4.863  14.422  0.00  0.00    +0.000 HD
ENDBRANCH   8  10
ENDBRANCH   1   8
BRANCH   1  12
ATOM     12  C   UNL     1       4.678   4.470  16.086  0.00  0.00    +0.000 C 
BRANCH  12  13
ATOM     13  C   UNL     1       4.009   4.366  17.462  0.00  0.00    +0.000 C 
BRANCH  13  14
ATOM     14  C   UNL     1       3.916   2.938  17.997  0.00  0.00    +0.000 C 
BRANCH  14  15
ATOM     15  C   UNL     1       4.002   2.923  19.521  0.00  0.00    +0.000 C 
BRANCH  15  16
ATOM     16  N   UNL     1       5.009   1.960  19.952  0.00  0.00    +0.000 NA
ATOM     17  H   UNL     1       4.545   1.136  20.331  0.00  0.00    +0.000 HD
ATOM     18  H   UNL     1       5.562   2.356  20.710  0.00  0.00    +0.000 HD
ENDBRANCH  15  16
ENDBRANCH  14  15
ENDBRANCH  13  14
ENDBRANCH  12  13
ENDBRANCH   1  12
TORSDOF 8
ENDMDL
MODEL 4
REMARK VINA RESULT:      -5.4      0.996      1.061
REMARK  Name = 
REMARK  8 active torsions:
REMARK  status: ('A' for Active; 'I' for Inactive)
REMARK    1  A    between atoms: N_1  and  C_2
REMARK    2  A    between atoms: C_2  and  C_3
REMARK    3  A    between atoms: C_3  and  C_4
REMARK    4  A    between atoms: C_4  and  C_5
REMARK    5  A    between atoms: C_5  and  C_6
REMARK    6  A    between atoms: C_6  and  C_7
REMARK    7  A    between atoms: C_6  and  C_10
REMARK    8  A    between atoms: C_7  and  O_9
REMARK                            x       y       z     vdW  Elec       q    Type
REMARK                         _______ _______ _______ _____ _____    ______ ____
ROOT
ATOM      1  C   UNL     1       3.996   3.377  18.717  0.00  0.00    +0.000 C 
ENDROOT
BRANCH   1   2
ATOM      2  C   UNL     1       5.138   3.916  17.881  0.00  0.00    +0.000 A 
ATOM      3  C   UNL     1       5.282   4.046  16.517  0.00  0.00    +0.000 A 
ATOM      4  N   UNL     1       6.544   4.541  16.326  0.00  0.00    +0.000 N 
ATOM      5  C   UNL     1       7.112   4.706  17.555  0.00  0.00    +0.000 A 
ATOM      6  N   UNL     1       6.293   4.343  18.515  0.00  0.00    +0.000 NA
ATOM      7  H   UNL     1       6.986   4.736  15.436  0.00  0.00    +0.000 HD
ENDBRANCH   1   2
BRANCH   1   8
ATOM      8  C   UNL     1       4.388   2.030  19.354  0.00  0.00    +0.000 C 
ATOM      9  O   UNL     1       4.860   1.908  20.479  0.00  0.00    +0.000 OA
BRANCH   8  10
ATOM     10  O   UNL     1       4.253   0.946  18.555  0.00  0.00    +0.000 OA
ATOM     11  H   UNL     1       4.066   1.199  17.617  0.00  0.00    +0.000 HD
ENDBRANCH   8  10
ENDBRANCH   1   8
BRANCH   1  12
ATOM     12  C   UNL     1       2.687   3.291  17.897  0.00  0.00    +0.000 C 
BRANCH  12  13
ATOM     13  C   UNL     1       1.408   3.821  18.555  0.00  0.00    +0.000 C 
BRANCH  13  14
ATOM     14  C   UNL     1       0.921   2.973  19.728  0.00  0.00    +0.000 C 
BRANCH  14  15
ATOM     15  C   UNL     1       1.332   3.599  21.058  0.00  0.00    +0.000 C 
BRANCH  15  16
ATOM     16  N   UNL     1       1.997   2.605  21.892  0.00  0.00    +0.000 NA
ATOM     17  H   UNL     1       1.310   2.166  22.504  0.00  0.00    +0.000 HD
ATOM     18  H   UNL     1       2.675   3.062  22.498  0.00  0.00    +0.000 HD
ENDBRANCH  15  16
ENDBRANCH  14  15
ENDBRANCH  13  14
ENDBRANCH  12  13
ENDBRANCH   1  12
TORSDOF 8
ENDMDL
MODEL 5
REMARK VINA RESULT:      -5.4      0.888      1.228
REMARK  Name = 
REMARK  8 active torsions:
REMARK  status: ('A' for Active; 'I' for Inactive)
REMARK    1  A    between atoms: N_1  and  C_2
REMARK    2  A    between atoms: C_2  and  C_3
REMARK    3  A    between atoms: C_3  and  C_4
REMARK    4  A    between atoms: C_4  and  C_5
REMARK    5  A    between atoms: C_5  and  C_6
REMARK    6  A    between atoms: C_6  and  C_7
REMARK    7  A    between atoms: C_6  and  C_10
REMARK    8  A    between atoms: C_7  and  O_9
REMARK                            x       y       z     vdW  Elec       q    Type
REMARK                         _______ _______ _______ _____ _____    ______ ____
ROOT
ATOM      1  C   UNL     1       5.134   4.384  19.206  0.00  0.00    +0.000 C 
ENDROOT
BRANCH   1   2
ATOM      2  C   UNL     1       5.929   4.616  17.938  0.00  0.00    +0.000 A 
ATOM      3  C   UNL     1       7.288   4.643  17.709  0.00  0.00    +0.000 A 
ATOM      4  N   UNL     1       7.431   4.955  16.385  0.00  0.00    +0.000 N 
ATOM      5  C   UNL     1       6.183   5.092  15.855  0.00  0.00    +0.000 A 
ATOM      6  N   UNL     1       5.253   4.891  16.761  0.00  0.00    +0.000 NA
ATOM      7  H   UNL     1       8.305   5.078  15.887  0.00  0.00    +0.000 HD
ENDBRANCH   1   2
BRANCH   1   8
ATOM      8  C   UNL     1       4.657   2.921  19.279  0.00  0.00    +0.000 C 
ATOM      9  O   UNL     1       4.615   2.258  20.310  0.00  0.00    +0.000 OA
BRANCH   8  10
ATOM     10  O   UNL     1       4.343   2.349  18.094  0.00  0.00    +0.000 OA
ATOM     11  H   UNL     1       5.146   2.181  17.540  0.00  0.00    +0.000 HD
ENDBRANCH   8  10
ENDBRANCH   1   8
BRANCH   1  12
ATOM     12  C   UNL     1       3.973   5.398  19.337  0.00  0.00    +0.000 C 
BRANCH  12  13
ATOM     13  C   UNL     1       2.546   4.857  19.182  0.00  0.00    +0.000 C 
BRANCH  13  14
ATOM     14  C   UNL     1       1.721   4.916  20.467  0.00  0.00    +0.000 C 
BRANCH  14  15
ATOM     15  C   UNL     1       1.352   3.512  20.940  0.00  0.00    +0.000 C 
BRANCH  15  16
ATOM     16  N   UNL     1       2.233   3.106  22.028  0.00  0.00    +0.000 NA
ATOM     17  H   UNL     1       3.124   3.591  21.938  0.00  0.00    +0.000 HD
ATOM     18  H   UNL     1       2.436   2.111  21.955  0.00  0.00    +0.000 HD
ENDBRANCH  15  16
ENDBRANCH  14  15
ENDBRANCH  13  14
ENDBRANCH  12  13
ENDBRANCH   1  12
TORSDOF 8
ENDMDL
MODEL 6
REMARK VINA RESULT:      -5.4      1.491      1.879
REMARK  Name = 
REMARK  8 active torsions:
REMARK  status: ('A' for Active; 'I' for Inactive)
REMARK    1  A    between atoms: N_1  and  C_2
REMARK    2  A    between atoms: C_2  and  C_3
REMARK    3  A    between atoms: C_3  and  C_4
REMARK    4  A    between atoms: C_4  and  C_5
REMARK    5  A    between atoms: C_5  and  C_6
REMARK    6  A    between atoms: C_6  and  C_7
REMARK    7  A    between atoms: C_6  and  C_10
REMARK    8  A    between atoms: C_7  and  O_9
REMARK                            x       y       z     vdW  Elec       q    Type
REMARK                         _______ _______ _______ _____ _____    ______ ____
ROOT
ATOM      1  C   UNL     1       3.456   4.071  18.354  0.00  0.00    +0.000 C 
ENDROOT
BRANCH   1   2
ATOM      2  C   UNL     1       4.234   4.797  17.276  0.00  0.00    +0.000 A 
ATOM      3  C   UNL     1       5.026   4.324  16.253  0.00  0.00    +0.000 A 
ATOM      4  N   UNL     1       5.521   5.435  15.627  0.00  0.00    +0.000 N 
ATOM      5  C   UNL     1       5.015   6.528  16.266  0.00  0.00    +0.000 A 
ATOM      6  N   UNL     1       4.233   6.182  17.262  0.00  0.00    +0.000 NA
ATOM      7  H   UNL     1       6.160   5.449  14.841  0.00  0.00    +0.000 HD
ENDBRANCH   1   2
BRANCH   1   8
ATOM      8  C   UNL     1       4.004   2.644  18.541  0.00  0.00    +0.000 C 
ATOM      9  O   UNL     1       3.615   1.665  17.913  0.00  0.00    +0.000 OA
BRANCH   8  10
ATOM     10  O   UNL     1       4.921   2.495  19.526  0.00  0.00    +0.000 OA
ATOM     11  H   UNL     1       4.978   3.298  20.101  0.00  0.00    +0.000 HD
ENDBRANCH   8  10
ENDBRANCH   1   8
BRANCH   1  12
ATOM     12  C   UNL     1       1.936   4.095  18.065  0.00  0.00    +0.000 C 
BRANCH  12  13
ATOM     13  C   UNL     1       1.020   3.372  19.060  0.00  0.00    +0.000 C 
BRANCH  13  14
ATOM     14  C   UNL     1       1.135   3.887  20.493  0.00  0.00    +0.000 C 
BRANCH  14  15
ATOM     15  C   UNL     1       1.346   2.733  21.470  0.00  0.00    +0.000 C 
BRANCH  15  16
ATOM     16  N   UNL     1       2.742   2.683  21.887  0.00  0.00    +0.000 NA
ATOM     17  H   UNL     1       3.310   2.331  21.117  0.00  0.00    +0.000 HD
ATOM     18  H   UNL     1       2.850   2.021  22.652  0.00  0.00    +0.000 HD
ENDBRANCH  15  16
ENDBRANCH  14  15
ENDBRANCH  13  14
ENDBRANCH  12  13
ENDBRANCH   1  12
TORSDOF 8
ENDMDL
MODEL 7
REMARK VINA RESULT:      -5.3      1.767      5.084
REMARK  Name = 
REMARK  8 active torsions:
REMARK  status: ('A' for Active; 'I' for Inactive)
REMARK    1  A    between atoms: N_1  and  C_2
REMARK    2  A    between atoms: C_2  and  C_3
REMARK    3  A    between atoms: C_3  and  C_4
REMARK    4  A    between atoms: C_4  and  C_5
REMARK    5  A    between atoms: C_5  and  C_6
REMARK    6  A    between atoms: C_6  and  C_7
REMARK    7  A    between atoms: C_6  and  C_10
REMARK    8  A    between atoms: C_7  and  O_9
REMARK                            x       y       z     vdW  Elec       q    Type
REMARK                         _______ _______ _______ _____ _____    ______ ____
ROOT
ATOM      1  C   UNL     1       3.926   4.413  18.304  0.00  0.00    +0.000 C 
ENDROOT
BRANCH   1   2
ATOM      2  C   UNL     1       2.683   4.068  19.097  0.00  0.00    +0.000 A 
ATOM      3  C   UNL     1       1.458   3.577  18.699  0.00  0.00    +0.000 A 
ATOM      4  N   UNL     1       0.700   3.514  19.836  0.00  0.00    +0.000 N 
ATOM      5  C   UNL     1       1.473   3.948  20.871  0.00  0.00    +0.000 A 
ATOM      6  N   UNL     1       2.675   4.286  20.465  0.00  0.00    +0.000 NA
ATOM      7  H   UNL     1      -0.266   3.216  19.899  0.00  0.00    +0.000 HD
ENDBRANCH   1   2
BRANCH   1   8
ATOM      8  C   UNL     1       5.189   3.998  19.081  0.00  0.00    +0.000 C 
ATOM      9  O   UNL     1       6.173   4.714  19.235  0.00  0.00    +0.000 OA
BRANCH   8  10
ATOM     10  O   UNL     1       5.199   2.727  19.544  0.00  0.00    +0.000 OA
ATOM     11  H   UNL     1       5.312   2.692  20.526  0.00  0.00    +0.000 HD
ENDBRANCH   8  10
ENDBRANCH   1   8
BRANCH   1  12
ATOM     12  C   UNL     1       3.938   5.906  17.896  0.00  0.00    +0.000 C 
BRANCH  12  13
ATOM     13  C   UNL     1       4.797   6.298  16.688  0.00  0.00    +0.000 C 
BRANCH  13  14
ATOM     14  C   UNL     1       5.175   5.121  15.791  0.00  0.00    +0.000 C 
BRANCH  14  15
ATOM     15  C   UNL     1       6.690   4.943  15.740  0.00  0.00    +0.000 C 
BRANCH  15  16
ATOM     16  N   UNL     1       7.344   6.038  16.445  0.00  0.00    +0.000 NA
ATOM     17  H   UNL     1       7.409   5.809  17.436  0.00  0.00    +0.000 HD
ATOM     18  H   UNL     1       6.775   6.880  16.378  0.00  0.00    +0.000 HD
ENDBRANCH  15  16
ENDBRANCH  14  15
ENDBRANCH  13  14
ENDBRANCH  12  13
ENDBRANCH   1  12
TORSDOF 8
ENDMDL
MODEL 8
REMARK VINA RESULT:      -5.3      2.151      2.598
REMARK  Name = 
REMARK  8 active torsions:
REMARK  status: ('A' for Active; 'I' for Inactive)
REMARK    1  A    between atoms: N_1  and  C_2
REMARK    2  A    between atoms: C_2  and  C_3
REMARK    3  A    between atoms: C_3  and  C_4
REMARK    4  A    between atoms: C_4  and  C_5
REMARK    5  A    between atoms: C_5  and  C_6
REMARK    6  A    between atoms: C_6  and  C_7
REMARK    7  A    between atoms: C_6  and  C_10
REMARK    8  A    between atoms: C_7  and  O_9
REMARK                            x       y       z     vdW  Elec       q    Type
REMARK                         _______ _______ _______ _____ _____    ______ ____
ROOT
ATOM      1  C   UNL     1       4.976   5.237  17.702  0.00  0.00    +0.000 C 
ENDROOT
BRANCH   1   2
ATOM      2  C   UNL     1       5.871   5.039  16.497  0.00  0.00    +0.000 A 
ATOM      3  C   UNL     1       6.982   5.731  16.066  0.00  0.00    +0.000 A 
ATOM      4  N   UNL     1       7.347   5.142  14.886  0.00  0.00    +0.000 N 
ATOM      5  C   UNL     1       6.474   4.123  14.646  0.00  0.00    +0.000 A 
ATOM      6  N   UNL     1       5.574   4.028  15.597  0.00  0.00    +0.000 NA
ATOM      7  H   UNL     1       8.116   5.420  14.288  0.00  0.00    +0.000 HD
ENDBRANCH   1   2
BRANCH   1   8
ATOM      8  C   UNL     1       5.568   4.526  18.933  0.00  0.00    +0.000 C 
ATOM      9  O   UNL     1       6.133   5.099  19.858  0.00  0.00    +0.000 OA
BRANCH   8  10
ATOM     10  O   UNL     1       5.502   3.174  18.914  0.00  0.00    +0.000 OA
ATOM     11  H   UNL     1       5.150   2.834  18.054  0.00  0.00    +0.000 HD
ENDBRANCH   8  10
ENDBRANCH   1   8
BRANCH   1  12
ATOM     12  C   UNL     1       3.522   4.801  17.403  0.00  0.00    +0.000 C 
BRANCH  12  13
ATOM     13  C   UNL     1       2.568   4.666  18.596  0.00  0.00    +0.000 C 
BRANCH  13  14
ATOM     14  C   UNL     1       1.679   3.426  18.537  0.00  0.00    +0.000 C 
BRANCH  14  15
ATOM     15  C   UNL     1       2.319   2.338  17.678  0.00  0.00    +0.000 C 
BRANCH  15  16
ATOM     16  N   UNL     1       3.087   1.428  18.519  0.00  0.00    +0.000 NA
ATOM     17  H   UNL     1       3.049   1.749  19.485  0.00  0.00    +0.000 HD
ATOM     18  H   UNL     1       4.068   1.449  18.245  0.00  0.00    +0.000 HD
ENDBRANCH  15  16
ENDBRANCH  14  15
ENDBRANCH  13  14
ENDBRANCH  12  13
ENDBRANCH   1  12
TORSDOF 8
ENDMDL
MODEL 9
REMARK VINA RESULT:      -5.3      2.013      5.222
REMARK  Name = 
REMARK  8 active torsions:
REMARK  status: ('A' for Active; 'I' for Inactive)
REMARK    1  A    between atoms: N_1  and  C_2
REMARK    2  A    between atoms: C_2  and  C_3
REMARK    3  A    between atoms: C_3  and  C_4
REMARK    4  A    between atoms: C_4  and  C_5
REMARK    5  A    between atoms: C_5  and  C_6
REMARK    6  A    between atoms: C_6  and  C_7
REMARK    7  A    between atoms: C_6  and  C_10
REMARK    8  A    between atoms: C_7  and  O_9
REMARK                            x       y       z     vdW  Elec       q    Type
REMARK                         _______ _______ _______ _____ _____    ______ ____
ROOT
ATOM      1  C   UNL     1       3.870   4.366  18.223  0.00  0.00    +0.000 C 
ENDROOT
BRANCH   1   2
ATOM      2  C   UNL     1       2.548   3.837  18.739  0.00  0.00    +0.000 A 
ATOM      3  C   UNL     1       1.699   4.311  19.716  0.00  0.00    +0.000 A 
ATOM      4  N   UNL     1       0.685   3.395  19.797  0.00  0.00    +0.000 N 
ATOM      5  C   UNL     1       0.935   2.420  18.878  0.00  0.00    +0.000 A 
ATOM      6  N   UNL     1       2.047   2.655  18.220  0.00  0.00    +0.000 NA
ATOM      7  H   UNL     1      -0.102   3.425  20.434  0.00  0.00    +0.000 HD
ENDBRANCH   1   2
BRANCH   1   8
ATOM      8  C   UNL     1       5.029   3.870  19.108  0.00  0.00    +0.000 C 
ATOM      9  O   UNL     1       6.004   4.547  19.414  0.00  0.00    +0.000 OA
BRANCH   8  10
ATOM     10  O   UNL     1       4.958   2.574  19.491  0.00  0.00    +0.000 OA
ATOM     11  H   UNL     1       4.536   2.475  20.381  0.00  0.00    +0.000 HD
ENDBRANCH   8  10
ENDBRANCH   1   8
BRANCH   1  12
ATOM     12  C   UNL     1       3.844   5.906  18.079  0.00  0.00    +0.000 C 
BRANCH  12  13
ATOM     13  C   UNL     1       4.656   6.520  16.933  0.00  0.00    +0.000 C 
BRANCH  13  14
ATOM     14  C   UNL     1       5.251   5.489  15.977  0.00  0.00    +0.000 C 
BRANCH  14  15
ATOM     15  C   UNL     1       6.771   5.432  16.117  0.00  0.00    +0.000 C 
BRANCH  15  16
ATOM     16  N   UNL     1       7.387   5.309  14.802  0.00  0.00    +0.000 NA
ATOM     17  H   UNL     1       8.080   6.047  14.685  0.00  0.00    +0.000 HD
ATOM     18  H   UNL     1       6.687   5.452  14.078  0.00  0.00    +0.000 HD
ENDBRANCH  15  16
ENDBRANCH  14  15
ENDBRANCH  13  14
ENDBRANCH  12  13
ENDBRANCH   1  12
TORSDOF 8
ENDMDL
