MODEL 1
REMARK VINA RESULT:      -8.8      0.000      0.000
REMARK  Name = 
REMARK  5 active torsions:
REMARK  status: ('A' for Active; 'I' for Inactive)
REMARK    1  A    between atoms: O_1  and  C_2
REMARK    2  A    between atoms: C_2  and  C_3
REMARK    3  A    between atoms: N_6  and  C_7
REMARK    4  A    between atoms: C_12  and  O_13
REMARK    5  A    between atoms: O_13  and  C_14
REMARK                            x       y       z     vdW  Elec       q    Type
REMARK                         _______ _______ _______ _____ _____    ______ ____
ROOT
ATOM      1  O   UNL     1       2.507   6.723  17.957  0.00  0.00    +0.000 OA
ENDROOT
BRANCH   1   2
ATOM      2  C   UNL     1       2.482   8.072  18.414  0.00  0.00    +0.000 C 
ATOM      3  C   UNL     1       1.570   8.957  17.570  0.00  0.00    +0.000 C 
ATOM      4  C   UNL     1       1.383  10.169  18.465  0.00  0.00    +0.000 C 
ATOM      5  N   UNL     1       1.342   9.603  19.813  0.00  0.00    +0.000 N 
ATOM      6  C   UNL     1       0.415  10.073  20.718  0.00  0.00    +0.000 A 
ATOM      7  C   UNL     1       0.376   9.597  22.020  0.00  0.00    +0.000 A 
ATOM      8  C   UNL     1      -0.515  10.153  22.941  0.00  0.00    +0.000 A 
ATOM      9  C   UNL     1      -1.370  11.180  22.540  0.00  0.00    +0.000 A 
ATOM     10  C   UNL     1      -2.266  11.789  23.437  0.00  0.00    +0.000 A 
ATOM     11  C   UNL     1      -3.112  12.808  23.001  0.00  0.00    +0.000 A 
ATOM     12  C   UNL     1      -3.073  13.206  21.669  0.00  0.00    +0.000 A 
ATOM     13  C   UNL     1      -2.175  12.598  20.785  0.00  0.00    +0.000 A 
ATOM     14  C   UNL     1      -1.304  11.594  21.200  0.00  0.00    +0.000 A 
ATOM     15  N   UNL     1      -0.428  11.062  20.327  0.00  0.00    +0.000 NA
ATOM     16  C   UNL     1       1.812   8.213  19.799  0.00  0.00    +0.000 C 
ENDBRANCH   1   2
BRANCH   1  22
ATOM     17  C   UNL     1       4.236   5.019  18.083  0.00  0.00    +0.000 A 
ATOM     18  N   UNL     1       5.468   4.599  17.682  0.00  0.00    +0.000 NA
ATOM     19  C   UNL     1       6.197   5.416  16.890  0.00  0.00    +0.000 A 
ATOM     20  C   UNL     1       5.736   6.645  16.481  0.00  0.00    +0.000 A 
ATOM     21  N   UNL     1       4.531   7.111  16.853  0.00  0.00    +0.000 NA
ATOM     22  C   UNL     1       3.791   6.294  17.654  0.00  0.00    +0.000 A 
BRANCH  17  26
ATOM     23  C   UNL     1       1.031   3.641  20.290  0.00  0.00    +0.000 C 
ATOM     24  C   UNL     1       1.144   3.462  18.770  0.00  0.00    +0.000 C 
ATOM     25  C   UNL     1       2.573   3.167  18.310  0.00  0.00    +0.000 C 
ATOM     26  N   UNL     1       3.507   4.139  18.868  0.00  0.00    +0.000 N 
ATOM     27  C   UNL     1       3.455   4.379  20.310  0.00  0.00    +0.000 C 
ATOM     28  C   UNL     1       2.030   4.711  20.748  0.00  0.00    +0.000 C 
BRANCH  23  29
ATOM     29  C   UNL     1       1.236   2.326  21.056  0.00  0.00    +0.000 C 
BRANCH  29  30
ATOM     30  O   UNL     1       1.435   2.596  22.436  0.00  0.00    +0.000 OA
ATOM     31  H   UNL     1       2.329   2.284  22.659  0.00  0.00    +0.000 HD
ENDBRANCH  29  30
ENDBRANCH  23  29
ENDBRANCH  17  26
ENDBRANCH   1  22
TORSDOF 5
ENDMDL
MODEL 2
REMARK VINA RESULT:      -8.6      1.706      3.900
REMARK  Name = 
REMARK  5 active torsions:
REMARK  status: ('A' for Active; 'I' for Inactive)
REMARK    1  A    between atoms: O_1  and  C_2
REMARK    2  A    between atoms: C_2  and  C_3
REMARK    3  A    between atoms: N_6  and  C_7
REMARK    4  A    between atoms: C_12  and  O_13
REMARK    5  A    between atoms: O_13  and  C_14
REMARK                            x       y       z     vdW  Elec       q    Type
REMARK                         _______ _______ _______ _____ _____    ______ ____
ROOT
ATOM      1  O   UNL     1       2.080   5.393  18.403  0.00  0.00    +0.000 OA
ENDROOT
BRANCH   1   2
ATOM      2  C   UNL     1       2.420   6.687  18.892  0.00  0.00    +0.000 C 
ATOM      3  C   UNL     1       1.991   7.800  17.940  0.00  0.00    +0.000 C 
ATOM      4  C   UNL     1       2.066   9.028  18.830  0.00  0.00    +0.000 C 
ATOM      5  N   UNL     1       1.628   8.538  20.137  0.00  0.00    +0.000 N 
ATOM      6  C   UNL     1       0.771   9.305  20.896  0.00  0.00    +0.000 A 
ATOM      7  C   UNL     1       0.372   8.897  22.161  0.00  0.00    +0.000 A 
ATOM      8  C   UNL     1      -0.427   9.734  22.944  0.00  0.00    +0.000 A 
ATOM      9  C   UNL     1      -0.828  10.973  22.443  0.00  0.00    +0.000 A 
ATOM     10  C   UNL     1      -1.609  11.861  23.204  0.00  0.00    +0.000 A 
ATOM     11  C   UNL     1      -1.998  13.089  22.670  0.00  0.00    +0.000 A 
ATOM     12  C   UNL     1      -1.619  13.421  21.375  0.00  0.00    +0.000 A 
ATOM     13  C   UNL     1      -0.836  12.534  20.627  0.00  0.00    +0.000 A 
ATOM     14  C   UNL     1      -0.416  11.312  21.144  0.00  0.00    +0.000 A 
ATOM     15  N   UNL     1       0.368  10.504  20.407  0.00  0.00    +0.000 NA
ATOM     16  C   UNL     1       1.619   7.071  20.156  0.00  0.00    +0.000 C 
ENDBRANCH   1   2
BRANCH   1  22
ATOM     17  C   UNL     1       3.492   3.723  19.463  0.00  0.00    +0.000 A 
ATOM     18  N   UNL     1       3.652   2.829  20.479  0.00  0.00    +0.000 NA
ATOM     19  C   UNL     1       2.627   2.649  21.340  0.00  0.00    +0.000 A 
ATOM     20  C   UNL     1       1.440   3.332  21.223  0.00  0.00    +0.000 A 
ATOM     21  N   UNL     1       1.226   4.219  20.236  0.00  0.00    +0.000 NA
ATOM     22  C   UNL     1       2.255   4.406  19.361  0.00  0.00    +0.000 A 
BRANCH  17  26
ATOM     23  C   UNL     1       5.710   5.405  16.415  0.00  0.00    +0.000 C 
ATOM     24  C   UNL     1       5.702   5.951  17.850  0.00  0.00    +0.000 C 
ATOM     25  C   UNL     1       5.654   4.846  18.907  0.00  0.00    +0.000 C 
ATOM     26  N   UNL     1       4.577   3.903  18.621  0.00  0.00    +0.000 N 
ATOM     27  C   UNL     1       4.505   3.347  17.271  0.00  0.00    +0.000 C 
ATOM     28  C   UNL     1       4.515   4.463  16.228  0.00  0.00    +0.000 C 
BRANCH  23  29
ATOM     29  C   UNL     1       7.029   4.707  16.057  0.00  0.00    +0.000 C 
BRANCH  29  30
ATOM     30  O   UNL     1       7.741   5.478  15.100  0.00  0.00    +0.000 OA
ATOM     31  H   UNL     1       8.022   4.867  14.397  0.00  0.00    +0.000 HD
ENDBRANCH  29  30
ENDBRANCH  23  29
ENDBRANCH  17  26
ENDBRANCH   1  22
TORSDOF 5
ENDMDL
MODEL 3
REMARK VINA RESULT:      -8.4      1.912      4.085
REMARK  Name = 
REMARK  5 active torsions:
REMARK  status: ('A' for Active; 'I' for Inactive)
REMARK    1  A    between atoms: O_1  and  C_2
REMARK    2  A    between atoms: C_2  and  C_3
REMARK    3  A    between atoms: N_6  and  C_7
REMARK    4  A    between atoms: C_12  and  O_13
REMARK    5  A    between atoms: O_13  and  C_14
REMARK                            x       y       z     vdW  Elec       q    Type
REMARK                         _______ _______ _______ _____ _____    ______ ____
ROOT
ATOM      1  O   UNL     1       2.114   4.946  18.657  0.00  0.00    +0.000 OA
ENDROOT
BRANCH   1   2
ATOM      2  C   UNL     1       2.461   6.269  19.056  0.00  0.00    +0.000 C 
ATOM      3  C   UNL     1       2.022   7.318  18.038  0.00  0.00    +0.000 C 
ATOM      4  C   UNL     1       2.108   8.601  18.845  0.00  0.00    +0.000 C 
ATOM      5  N   UNL     1       1.685   8.198  20.186  0.00  0.00    +0.000 N 
ATOM      6  C   UNL     1       0.837   9.014  20.903  0.00  0.00    +0.000 A 
ATOM      7  C   UNL     1       0.453   8.691  22.196  0.00  0.00    +0.000 A 
ATOM      8  C   UNL     1      -0.337   9.579  22.932  0.00  0.00    +0.000 A 
ATOM      9  C   UNL     1      -0.742  10.782  22.355  0.00  0.00    +0.000 A 
ATOM     10  C   UNL     1      -1.514  11.720  23.065  0.00  0.00    +0.000 A 
ATOM     11  C   UNL     1      -1.908  12.911  22.456  0.00  0.00    +0.000 A 
ATOM     12  C   UNL     1      -1.544  13.157  21.138  0.00  0.00    +0.000 A 
ATOM     13  C   UNL     1      -0.771  12.221  20.441  0.00  0.00    +0.000 A 
ATOM     14  C   UNL     1      -0.346  11.035  21.032  0.00  0.00    +0.000 A 
ATOM     15  N   UNL     1       0.430  10.179  20.340  0.00  0.00    +0.000 NA
ATOM     16  C   UNL     1       1.675   6.736  20.301  0.00  0.00    +0.000 C 
ENDBRANCH   1   2
BRANCH   1  22
ATOM     17  C   UNL     1       4.221   3.760  18.915  0.00  0.00    +0.000 A 
ATOM     18  N   UNL     1       4.961   2.875  19.639  0.00  0.00    +0.000 NA
ATOM     19  C   UNL     1       4.378   2.265  20.693  0.00  0.00    +0.000 A 
ATOM     20  C   UNL     1       3.073   2.508  21.054  0.00  0.00    +0.000 A 
ATOM     21  N   UNL     1       2.297   3.365  20.371  0.00  0.00    +0.000 NA
ATOM     22  C   UNL     1       2.877   3.985  19.303  0.00  0.00    +0.000 A 
BRANCH  17  26
ATOM     23  C   UNL     1       7.077   4.330  15.988  0.00  0.00    +0.000 C 
ATOM     24  C   UNL     1       5.809   3.492  15.774  0.00  0.00    +0.000 C 
ATOM     25  C   UNL     1       4.578   4.086  16.462  0.00  0.00    +0.000 C 
ATOM     26  N   UNL     1       4.864   4.390  17.861  0.00  0.00    +0.000 N 
ATOM     27  C   UNL     1       6.064   5.174  18.153  0.00  0.00    +0.000 C 
ATOM     28  C   UNL     1       7.290   4.547  17.492  0.00  0.00    +0.000 C 
BRANCH  23  29
ATOM     29  C   UNL     1       7.034   5.667  15.236  0.00  0.00    +0.000 C 
BRANCH  29  30
ATOM     30  O   UNL     1       7.874   5.606  14.092  0.00  0.00    +0.000 OA
ATOM     31  H   UNL     1       8.585   4.974  14.298  0.00  0.00    +0.000 HD
ENDBRANCH  29  30
ENDBRANCH  23  29
ENDBRANCH  17  26
ENDBRANCH   1  22
TORSDOF 5
ENDMDL
MODEL 4
REMARK VINA RESULT:      -7.8      2.864      8.935
REMARK  Name = 
REMARK  5 active torsions:
REMARK  status: ('A' for Active; 'I' for Inactive)
REMARK    1  A    between atoms: O_1  and  C_2
REMARK    2  A    between atoms: C_2  and  C_3
REMARK    3  A    between atoms: N_6  and  C_7
REMARK    4  A    between atoms: C_12  and  O_13
REMARK    5  A    between atoms: O_13  and  C_14
REMARK                            x       y       z     vdW  Elec       q    Type
REMARK                         _______ _______ _______ _____ _____    ______ ____
ROOT
ATOM      1  O   UNL     1      -1.304  10.397  20.674  0.00  0.00    +0.000 OA
ENDROOT
BRANCH   1   2
ATOM      2  C   UNL     1      -0.048   9.796  20.975  0.00  0.00    +0.000 C 
ATOM      3  C   UNL     1      -0.198   8.405  21.583  0.00  0.00    +0.000 C 
ATOM      4  C   UNL     1       1.199   7.833  21.419  0.00  0.00    +0.000 C 
ATOM      5  N   UNL     1       1.650   8.376  20.138  0.00  0.00    +0.000 N 
ATOM      6  C   UNL     1       2.324   7.559  19.256  0.00  0.00    +0.000 A 
ATOM      7  C   UNL     1       2.810   8.049  18.053  0.00  0.00    +0.000 A 
ATOM      8  C   UNL     1       3.565   7.223  17.217  0.00  0.00    +0.000 A 
ATOM      9  C   UNL     1       3.818   5.904  17.595  0.00  0.00    +0.000 A 
ATOM     10  C   UNL     1       4.596   5.042  16.801  0.00  0.00    +0.000 A 
ATOM     11  C   UNL     1       4.822   3.727  17.206  0.00  0.00    +0.000 A 
ATOM     12  C   UNL     1       4.262   3.272  18.393  0.00  0.00    +0.000 A 
ATOM     13  C   UNL     1       3.494   4.137  19.180  0.00  0.00    +0.000 A 
ATOM     14  C   UNL     1       3.271   5.460  18.810  0.00  0.00    +0.000 A 
ATOM     15  N   UNL     1       2.559   6.272  19.614  0.00  0.00    +0.000 NA
ATOM     16  C   UNL     1       0.768   9.465  19.705  0.00  0.00    +0.000 C 
ENDBRANCH   1   2
BRANCH   1  22
ATOM     17  C   UNL     1      -1.874  12.643  19.940  0.00  0.00    +0.000 A 
ATOM     18  N   UNL     1      -1.933  13.970  20.240  0.00  0.00    +0.000 NA
ATOM     19  C   UNL     1      -1.448  14.379  21.432  0.00  0.00    +0.000 A 
ATOM     20  C   UNL     1      -0.903  13.505  22.343  0.00  0.00    +0.000 A 
ATOM     21  N   UNL     1      -0.814  12.187  22.096  0.00  0.00    +0.000 NA
ATOM     22  C   UNL     1      -1.299  11.766  20.893  0.00  0.00    +0.000 A 
BRANCH  17  26
ATOM     23  C   UNL     1      -3.082  10.062  16.952  0.00  0.00    +0.000 C 
ATOM     24  C   UNL     1      -3.974  10.449  18.140  0.00  0.00    +0.000 C 
ATOM     25  C   UNL     1      -3.819  11.916  18.548  0.00  0.00    +0.000 C 
ATOM     26  N   UNL     1      -2.411  12.259  18.721  0.00  0.00    +0.000 N 
ATOM     27  C   UNL     1      -1.491  11.911  17.639  0.00  0.00    +0.000 C 
ATOM     28  C   UNL     1      -1.628  10.435  17.270  0.00  0.00    +0.000 C 
BRANCH  23  29
ATOM     29  C   UNL     1      -3.544  10.701  15.636  0.00  0.00    +0.000 C 
BRANCH  29  30
ATOM     30  O   UNL     1      -2.818  10.147  14.548  0.00  0.00    +0.000 OA
ATOM     31  H   UNL     1      -2.296   9.407  14.905  0.00  0.00    +0.000 HD
ENDBRANCH  29  30
ENDBRANCH  23  29
ENDBRANCH  17  26
ENDBRANCH   1  22
TORSDOF 5
ENDMDL
MODEL 5
REMARK VINA RESULT:      -7.8      2.779      8.837
REMARK  Name = 
REMARK  5 active torsions:
REMARK  status: ('A' for Active; 'I' for Inactive)
REMARK    1  A    between atoms: O_1  and  C_2
REMARK    2  A    between atoms: C_2  and  C_3
REMARK    3  A    between atoms: N_6  and  C_7
REMARK    4  A    between atoms: C_12  and  O_13
REMARK    5  A    between atoms: O_13  and  C_14
REMARK                            x       y       z     vdW  Elec       q    Type
REMARK                         _______ _______ _______ _____ _____    ______ ____
ROOT
ATOM      1  O   UNL     1       0.297  11.123  19.703  0.00  0.00    +0.000 OA
ENDROOT
BRANCH   1   2
ATOM      2  C   UNL     1       1.023  10.062  20.317  0.00  0.00    +0.000 C 
ATOM      3  C   UNL     1       0.105   9.004  20.923  0.00  0.00    +0.000 C 
ATOM      4  C   UNL     1       1.054   7.834  21.118  0.00  0.00    +0.000 C 
ATOM      5  N   UNL     1       1.946   7.912  19.962  0.00  0.00    +0.000 N 
ATOM      6  C   UNL     1       2.296   6.756  19.297  0.00  0.00    +0.000 A 
ATOM      7  C   UNL     1       3.178   6.783  18.226  0.00  0.00    +0.000 A 
ATOM      8  C   UNL     1       3.583   5.589  17.626  0.00  0.00    +0.000 A 
ATOM      9  C   UNL     1       3.089   4.374  18.103  0.00  0.00    +0.000 A 
ATOM     10  C   UNL     1       3.488   3.145  17.549  0.00  0.00    +0.000 A 
ATOM     11  C   UNL     1       2.969   1.949  18.045  0.00  0.00    +0.000 A 
ATOM     12  C   UNL     1       2.043   1.984  19.080  0.00  0.00    +0.000 A 
ATOM     13  C   UNL     1       1.655   3.212  19.629  0.00  0.00    +0.000 A 
ATOM     14  C   UNL     1       2.175   4.418  19.168  0.00  0.00    +0.000 A 
ATOM     15  N   UNL     1       1.806   5.575  19.748  0.00  0.00    +0.000 NA
ATOM     16  C   UNL     1       1.802   9.208  19.291  0.00  0.00    +0.000 C 
ENDBRANCH   1   2
BRANCH   1  22
ATOM     17  C   UNL     1      -1.898  12.056  20.172  0.00  0.00    +0.000 A 
ATOM     18  N   UNL     1      -2.754  12.572  21.097  0.00  0.00    +0.000 NA
ATOM     19  C   UNL     1      -2.304  12.747  22.358  0.00  0.00    +0.000 A 
ATOM     20  C   UNL     1      -1.022  12.423  22.733  0.00  0.00    +0.000 A 
ATOM     21  N   UNL     1      -0.134  11.917  21.860  0.00  0.00    +0.000 NA
ATOM     22  C   UNL     1      -0.580  11.739  20.583  0.00  0.00    +0.000 A 
BRANCH  17  26
ATOM     23  C   UNL     1      -3.236   9.947  16.885  0.00  0.00    +0.000 C 
ATOM     24  C   UNL     1      -4.141  10.327  18.065  0.00  0.00    +0.000 C 
ATOM     25  C   UNL     1      -3.834  11.717  18.627  0.00  0.00    +0.000 C 
ATOM     26  N   UNL     1      -2.407  11.861  18.897  0.00  0.00    +0.000 N 
ATOM     27  C   UNL     1      -1.475  11.506  17.827  0.00  0.00    +0.000 C 
ATOM     28  C   UNL     1      -1.769  10.101  17.304  0.00  0.00    +0.000 C 
BRANCH  23  29
ATOM     29  C   UNL     1      -3.542  10.762  15.621  0.00  0.00    +0.000 C 
BRANCH  29  30
ATOM     30  O   UNL     1      -2.661  10.379  14.574  0.00  0.00    +0.000 OA
ATOM     31  H   UNL     1      -2.527   9.419  14.655  0.00  0.00    +0.000 HD
ENDBRANCH  29  30
ENDBRANCH  23  29
ENDBRANCH  17  26
ENDBRANCH   1  22
TORSDOF 5
ENDMDL
MODEL 6
REMARK VINA RESULT:      -7.8      3.028      9.066
REMARK  Name = 
REMARK  5 active torsions:
REMARK  status: ('A' for Active; 'I' for Inactive)
REMARK    1  A    between atoms: O_1  and  C_2
REMARK    2  A    between atoms: C_2  and  C_3
REMARK    3  A    between atoms: N_6  and  C_7
REMARK    4  A    between atoms: C_12  and  O_13
REMARK    5  A    between atoms: O_13  and  C_14
REMARK                            x       y       z     vdW  Elec       q    Type
REMARK                         _______ _______ _______ _____ _____    ______ ____
ROOT
ATOM      1  O   UNL     1      -0.394  11.151  19.455  0.00  0.00    +0.000 OA
ENDROOT
BRANCH   1   2
ATOM      2  C   UNL     1       0.612  10.358  20.078  0.00  0.00    +0.000 C 
ATOM      3  C   UNL     1       0.032   9.363  21.080  0.00  0.00    +0.000 C 
ATOM      4  C   UNL     1       1.187   8.396  21.274  0.00  0.00    +0.000 C 
ATOM      5  N   UNL     1       1.799   8.314  19.948  0.00  0.00    +0.000 N 
ATOM      6  C   UNL     1       2.199   7.088  19.461  0.00  0.00    +0.000 A 
ATOM      7  C   UNL     1       2.828   6.976  18.229  0.00  0.00    +0.000 A 
ATOM      8  C   UNL     1       3.302   5.735  17.798  0.00  0.00    +0.000 A 
ATOM      9  C   UNL     1       3.131   4.612  18.608  0.00  0.00    +0.000 A 
ATOM     10  C   UNL     1       3.614   3.346  18.230  0.00  0.00    +0.000 A 
ATOM     11  C   UNL     1       3.419   2.243  19.060  0.00  0.00    +0.000 A 
ATOM     12  C   UNL     1       2.731   2.402  20.257  0.00  0.00    +0.000 A 
ATOM     13  C   UNL     1       2.258   3.665  20.628  0.00  0.00    +0.000 A 
ATOM     14  C   UNL     1       2.458   4.787  19.828  0.00  0.00    +0.000 A 
ATOM     15  N   UNL     1       2.022   5.992  20.239  0.00  0.00    +0.000 NA
ATOM     16  C   UNL     1       1.302   9.393  19.087  0.00  0.00    +0.000 C 
ENDBRANCH   1   2
BRANCH   1  22
ATOM     17  C   UNL     1      -0.683  13.316  20.521  0.00  0.00    +0.000 A 
ATOM     18  N   UNL     1      -0.298  14.620  20.598  0.00  0.00    +0.000 NA
ATOM     19  C   UNL     1       0.619  15.070  19.714  0.00  0.00    +0.000 A 
ATOM     20  C   UNL     1       1.170  14.260  18.750  0.00  0.00    +0.000 A 
ATOM     21  N   UNL     1       0.821  12.968  18.625  0.00  0.00    +0.000 NA
ATOM     22  C   UNL     1      -0.106  12.506  19.512  0.00  0.00    +0.000 A 
BRANCH  17  26
ATOM     23  C   UNL     1      -3.400  13.629  23.613  0.00  0.00    +0.000 C 
ATOM     24  C   UNL     1      -3.783  13.803  22.137  0.00  0.00    +0.000 C 
ATOM     25  C   UNL     1      -3.038  12.839  21.211  0.00  0.00    +0.000 C 
ATOM     26  N   UNL     1      -1.601  12.885  21.466  0.00  0.00    +0.000 N 
ATOM     27  C   UNL     1      -1.153  12.740  22.850  0.00  0.00    +0.000 C 
ATOM     28  C   UNL     1      -1.877  13.736  23.756  0.00  0.00    +0.000 C 
BRANCH  23  29
ATOM     29  C   UNL     1      -3.922  12.313  24.207  0.00  0.00    +0.000 C 
BRANCH  29  30
ATOM     30  O   UNL     1      -4.520  12.557  25.472  0.00  0.00    +0.000 OA
ATOM     31  H   UNL     1      -5.314  13.096  25.310  0.00  0.00    +0.000 HD
ENDBRANCH  29  30
ENDBRANCH  23  29
ENDBRANCH  17  26
ENDBRANCH   1  22
TORSDOF 5
ENDMDL
MODEL 7
REMARK VINA RESULT:      -7.7      3.108      8.889
REMARK  Name = 
REMARK  5 active torsions:
REMARK  status: ('A' for Active; 'I' for Inactive)
REMARK    1  A    between atoms: O_1  and  C_2
REMARK    2  A    between atoms: C_2  and  C_3
REMARK    3  A    between atoms: N_6  and  C_7
REMARK    4  A    between atoms: C_12  and  O_13
REMARK    5  A    between atoms: O_13  and  C_14
REMARK                            x       y       z     vdW  Elec       q    Type
REMARK                         _______ _______ _______ _____ _____    ______ ____
ROOT
ATOM      1  O   UNL     1      -0.269  11.579  19.892  0.00  0.00    +0.000 OA
ENDROOT
BRANCH   1   2
ATOM      2  C   UNL     1       0.683  10.688  20.467  0.00  0.00    +0.000 C 
ATOM      3  C   UNL     1       0.060   9.764  21.509  0.00  0.00    +0.000 C 
ATOM      4  C   UNL     1       1.118   8.683  21.649  0.00  0.00    +0.000 C 
ATOM      5  N   UNL     1       1.644   8.532  20.293  0.00  0.00    +0.000 N 
ATOM      6  C   UNL     1       1.888   7.269  19.798  0.00  0.00    +0.000 A 
ATOM      7  C   UNL     1       2.432   7.087  18.535  0.00  0.00    +0.000 A 
ATOM      8  C   UNL     1       2.751   5.801  18.092  0.00  0.00    +0.000 A 
ATOM      9  C   UNL     1       2.510   4.705  18.921  0.00  0.00    +0.000 A 
ATOM     10  C   UNL     1       2.838   3.395  18.531  0.00  0.00    +0.000 A 
ATOM     11  C   UNL     1       2.577   2.321  19.382  0.00  0.00    +0.000 A 
ATOM     12  C   UNL     1       1.976   2.557  20.613  0.00  0.00    +0.000 A 
ATOM     13  C   UNL     1       1.657   3.864  20.996  0.00  0.00    +0.000 A 
ATOM     14  C   UNL     1       1.928   4.955  20.175  0.00  0.00    +0.000 A 
ATOM     15  N   UNL     1       1.641   6.201  20.596  0.00  0.00    +0.000 NA
ATOM     16  C   UNL     1       1.213   9.653  19.450  0.00  0.00    +0.000 C 
ENDBRANCH   1   2
BRANCH   1  22
ATOM     17  C   UNL     1      -0.120  13.958  20.367  0.00  0.00    +0.000 A 
ATOM     18  N   UNL     1       0.510  15.141  20.125  0.00  0.00    +0.000 NA
ATOM     19  C   UNL     1       1.483  15.169  19.188  0.00  0.00    +0.000 A 
ATOM     20  C   UNL     1       1.852  14.051  18.479  0.00  0.00    +0.000 A 
ATOM     21  N   UNL     1       1.260  12.860  18.672  0.00  0.00    +0.000 NA
ATOM     22  C   UNL     1       0.275  12.824  19.615  0.00  0.00    +0.000 A 
BRANCH  17  26
ATOM     23  C   UNL     1      -3.038  12.421  22.849  0.00  0.00    +0.000 C 
ATOM     24  C   UNL     1      -1.541  12.379  23.185  0.00  0.00    +0.000 C 
ATOM     25  C   UNL     1      -0.798  13.645  22.752  0.00  0.00    +0.000 C 
ATOM     26  N   UNL     1      -1.089  13.963  21.357  0.00  0.00    +0.000 N 
ATOM     27  C   UNL     1      -2.493  14.009  20.952  0.00  0.00    +0.000 C 
ATOM     28  C   UNL     1      -3.211  12.723  21.356  0.00  0.00    +0.000 C 
BRANCH  23  29
ATOM     29  C   UNL     1      -3.808  13.429  23.713  0.00  0.00    +0.000 C 
BRANCH  29  30
ATOM     30  O   UNL     1      -4.380  12.769  24.833  0.00  0.00    +0.000 OA
ATOM     31  H   UNL     1      -5.010  12.115  24.484  0.00  0.00    +0.000 HD
ENDBRANCH  29  30
ENDBRANCH  23  29
ENDBRANCH  17  26
ENDBRANCH   1  22
TORSDOF 5
ENDMDL
MODEL 8
REMARK VINA RESULT:      -7.5      2.407      4.741
REMARK  Name = 
REMARK  5 active torsions:
REMARK  status: ('A' for Active; 'I' for Inactive)
REMARK    1  A    between atoms: O_1  and  C_2
REMARK    2  A    between atoms: C_2  and  C_3
REMARK    3  A    between atoms: N_6  and  C_7
REMARK    4  A    between atoms: C_12  and  O_13
REMARK    5  A    between atoms: O_13  and  C_14
REMARK                            x       y       z     vdW  Elec       q    Type
REMARK                         _______ _______ _______ _____ _____    ______ ____
ROOT
ATOM      1  O   UNL     1       2.392   6.256  20.466  0.00  0.00    +0.000 OA
ENDROOT
BRANCH   1   2
ATOM      2  C   UNL     1       1.387   7.235  20.223  0.00  0.00    +0.000 C 
ATOM      3  C   UNL     1       0.953   7.954  21.497  0.00  0.00    +0.000 C 
ATOM      4  C   UNL     1       0.238   9.175  20.947  0.00  0.00    +0.000 C 
ATOM      5  N   UNL     1       1.012   9.525  19.757  0.00  0.00    +0.000 N 
ATOM      6  C   UNL     1       1.298  10.849  19.499  0.00  0.00    +0.000 A 
ATOM      7  C   UNL     1       1.986  11.225  18.355  0.00  0.00    +0.000 A 
ATOM      8  C   UNL     1       2.186  12.579  18.074  0.00  0.00    +0.000 A 
ATOM      9  C   UNL     1       1.699  13.545  18.954  0.00  0.00    +0.000 A 
ATOM     10  C   UNL     1       1.852  14.921  18.702  0.00  0.00    +0.000 A 
ATOM     11  C   UNL     1       1.359  15.860  19.606  0.00  0.00    +0.000 A 
ATOM     12  C   UNL     1       0.729  15.426  20.766  0.00  0.00    +0.000 A 
ATOM     13  C   UNL     1       0.576  14.056  21.007  0.00  0.00    +0.000 A 
ATOM     14  C   UNL     1       1.039  13.098  20.110  0.00  0.00    +0.000 A 
ATOM     15  N   UNL     1       0.838  11.790  20.360  0.00  0.00    +0.000 NA
ATOM     16  C   UNL     1       1.912   8.427  19.390  0.00  0.00    +0.000 C 
ENDBRANCH   1   2
BRANCH   1  22
ATOM     17  C   UNL     1       3.355   4.890  18.701  0.00  0.00    +0.000 A 
ATOM     18  N   UNL     1       3.261   3.767  17.935  0.00  0.00    +0.000 NA
ATOM     19  C   UNL     1       2.169   2.983  18.079  0.00  0.00    +0.000 A 
ATOM     20  C   UNL     1       1.161   3.283  18.965  0.00  0.00    +0.000 A 
ATOM     21  N   UNL     1       1.200   4.381  19.739  0.00  0.00    +0.000 NA
ATOM     22  C   UNL     1       2.297   5.178  19.599  0.00  0.00    +0.000 A 
BRANCH  17  26
ATOM     23  C   UNL     1       7.033   5.967  17.167  0.00  0.00    +0.000 C 
ATOM     24  C   UNL     1       5.701   6.382  16.527  0.00  0.00    +0.000 C 
ATOM     25  C   UNL     1       4.623   6.717  17.560  0.00  0.00    +0.000 C 
ATOM     26  N   UNL     1       4.504   5.649  18.548  0.00  0.00    +0.000 N 
ATOM     27  C   UNL     1       5.730   5.185  19.195  0.00  0.00    +0.000 C 
ATOM     28  C   UNL     1       6.783   4.817  18.151  0.00  0.00    +0.000 C 
BRANCH  23  29
ATOM     29  C   UNL     1       7.748   7.139  17.853  0.00  0.00    +0.000 C 
BRANCH  29  30
ATOM     30  O   UNL     1       7.525   8.336  17.122  0.00  0.00    +0.000 OA
ATOM     31  H   UNL     1       6.883   8.125  16.423  0.00  0.00    +0.000 HD
ENDBRANCH  29  30
ENDBRANCH  23  29
ENDBRANCH  17  26
ENDBRANCH   1  22
TORSDOF 5
ENDMDL
MODEL 9
REMARK VINA RESULT:      -7.5      1.782      3.962
REMARK  Name = 
REMARK  5 active torsions:
REMARK  status: ('A' for Active; 'I' for Inactive)
REMARK    1  A    between atoms: O_1  and  C_2
REMARK    2  A    between atoms: C_2  and  C_3
REMARK    3  A    between atoms: N_6  and  C_7
REMARK    4  A    between atoms: C_12  and  O_13
REMARK    5  A    between atoms: O_13  and  C_14
REMARK                            x       y       z     vdW  Elec       q    Type
REMARK                         _______ _______ _______ _____ _____    ______ ____
ROOT
ATOM      1  O   UNL     1       2.084   5.126  18.356  0.00  0.00    +0.000 OA
ENDROOT
BRANCH   1   2
ATOM      2  C   UNL     1       2.460   6.399  18.872  0.00  0.00    +0.000 C 
ATOM      3  C   UNL     1       2.098   7.541  17.926  0.00  0.00    +0.000 C 
ATOM      4  C   UNL     1       2.196   8.752  18.837  0.00  0.00    +0.000 C 
ATOM      5  N   UNL     1       1.708   8.261  20.125  0.00  0.00    +0.000 N 
ATOM      6  C   UNL     1       0.861   9.049  20.874  0.00  0.00    +0.000 A 
ATOM      7  C   UNL     1       0.415   8.639  22.122  0.00  0.00    +0.000 A 
ATOM      8  C   UNL     1      -0.371   9.494  22.898  0.00  0.00    +0.000 A 
ATOM      9  C   UNL     1      -0.712  10.754  22.406  0.00  0.00    +0.000 A 
ATOM     10  C   UNL     1      -1.479  11.661  23.161  0.00  0.00    +0.000 A 
ATOM     11  C   UNL     1      -1.808  12.910  22.635  0.00  0.00    +0.000 A 
ATOM     12  C   UNL     1      -1.384  13.246  21.355  0.00  0.00    +0.000 A 
ATOM     13  C   UNL     1      -0.616  12.340  20.614  0.00  0.00    +0.000 A 
ATOM     14  C   UNL     1      -0.256  11.096  21.123  0.00  0.00    +0.000 A 
ATOM     15  N   UNL     1       0.516  10.269  20.393  0.00  0.00    +0.000 NA
ATOM     16  C   UNL     1       1.642   6.795  20.122  0.00  0.00    +0.000 C 
ENDBRANCH   1   2
BRANCH   1  22
ATOM     17  C   UNL     1       4.211   4.131  18.984  0.00  0.00    +0.000 A 
ATOM     18  N   UNL     1       4.864   3.140  19.653  0.00  0.00    +0.000 NA
ATOM     19  C   UNL     1       4.127   2.175  20.246  0.00  0.00    +0.000 A 
ATOM     20  C   UNL     1       2.753   2.164  20.197  0.00  0.00    +0.000 A 
ATOM     21  N   UNL     1       2.060   3.113  19.545  0.00  0.00    +0.000 NA
ATOM     22  C   UNL     1       2.795   4.090  18.941  0.00  0.00    +0.000 A 
BRANCH  17  26
ATOM     23  C   UNL     1       7.625   5.857  17.432  0.00  0.00    +0.000 C 
ATOM     24  C   UNL     1       6.648   5.023  16.591  0.00  0.00    +0.000 C 
ATOM     25  C   UNL     1       5.184   5.255  16.975  0.00  0.00    +0.000 C 
ATOM     26  N   UNL     1       5.000   5.119  18.416  0.00  0.00    +0.000 N 
ATOM     27  C   UNL     1       5.901   5.871  19.289  0.00  0.00    +0.000 C 
ATOM     28  C   UNL     1       7.358   5.599  18.920  0.00  0.00    +0.000 C 
BRANCH  23  29
ATOM     29  C   UNL     1       7.552   7.355  17.107  0.00  0.00    +0.000 C 
BRANCH  29  30
ATOM     30  O   UNL     1       8.212   8.103  18.118  0.00  0.00    +0.000 OA
ATOM     31  H   UNL     1       8.113   7.604  18.948  0.00  0.00    +0.000 HD
ENDBRANCH  29  30
ENDBRANCH  23  29
ENDBRANCH  17  26
ENDBRANCH   1  22
TORSDOF 5
ENDMDL
