MODEL 1
REMARK VINA RESULT:      -8.9      0.000      0.000
REMARK  Name = 
REMARK  7 active torsions:
REMARK  status: ('A' for Active; 'I' for Inactive)
REMARK    1  A    between atoms: C_2  and  C_17
REMARK    2  A    between atoms: N_3  and  C_4
REMARK    3  A    between atoms: C_4  and  C_5
REMARK    4  A    between atoms: C_4  and  C_11
REMARK    5  A    between atoms: N_20  and  S_21
REMARK    6  A    between atoms: S_21  and  C_24
REMARK    7  A    between atoms: C_24  and  C_25
REMARK                            x       y       z     vdW  Elec       q    Type
REMARK                         _______ _______ _______ _____ _____    ______ ____
ROOT
ATOM      1  O   UNL     1       1.759   8.425  20.061  0.00  0.00    +0.000 OA
ATOM      2  C   UNL     1       1.884   8.442  18.841  0.00  0.00    +0.000 C 
ATOM      3  N   UNL     1       2.608   7.494  18.155  0.00  0.00    +0.000 N 
ATOM      4  H   UNL     1       2.563   7.466  17.150  0.00  0.00    +0.000 HD
ENDROOT
BRANCH   2   5
ATOM      5  C   UNL     1       1.245   9.511  17.956  0.00  0.00    +0.000 C 
ATOM      6  C   UNL     1       1.853  10.897  18.181  0.00  0.00    +0.000 C 
ATOM      7  C   UNL     1       1.455  11.484  19.532  0.00  0.00    +0.000 C 
ATOM      8  N   UNL     1      -0.031  11.582  19.642  0.00  0.00    +0.000 NA
ATOM      9  C   UNL     1      -0.665  10.226  19.490  0.00  0.00    +0.000 C 
ATOM     10  C   UNL     1      -0.273   9.585  18.157  0.00  0.00    +0.000 C 
BRANCH   8  11
ATOM     11  S   UNL     1      -0.569  12.337  21.108  0.00  0.00    +0.000 S 
ATOM     12  O   UNL     1      -1.351  11.350  21.827  0.00  0.00    +0.000 OA
ATOM     13  O   UNL     1       0.593  12.957  21.705  0.00  0.00    +0.000 OA
BRANCH  11  14
ATOM     14  C   UNL     1      -1.696  13.626  20.513  0.00  0.00    +0.000 C 
BRANCH  14  15
ATOM     15  C   UNL     1      -3.119  13.161  20.711  0.00  0.00    +0.000 A 
ATOM     16  C   UNL     1      -3.806  12.507  19.676  0.00  0.00    +0.000 A 
ATOM     17  C   UNL     1      -5.137  12.115  19.843  0.00  0.00    +0.000 A 
ATOM     18  C   UNL     1      -5.778  12.370  21.048  0.00  0.00    +0.000 A 
ATOM     19  F   UNL     1      -7.058  12.006  21.206  0.00  0.00    +0.000 F 
ATOM     20  C   UNL     1      -5.114  13.009  22.089  0.00  0.00    +0.000 A 
ATOM     21  C   UNL     1      -3.785  13.403  21.923  0.00  0.00    +0.000 A 
ENDBRANCH  14  15
ENDBRANCH  11  14
ENDBRANCH   8  11
ENDBRANCH   2   5
BRANCH   3  22
ATOM     22  C   UNL     1       3.320   6.409  18.824  0.00  0.00    +0.000 C 
BRANCH  22  23
ATOM     23  C   UNL     1       2.376   5.240  19.071  0.00  0.00    +0.000 A 
ATOM     24  C   UNL     1       1.859   4.955  20.345  0.00  0.00    +0.000 A 
ATOM     25  C   UNL     1       1.052   3.832  20.552  0.00  0.00    +0.000 A 
ATOM     26  C   UNL     1       0.739   2.989  19.490  0.00  0.00    +0.000 A 
ATOM     27  C   UNL     1       1.227   3.267  18.215  0.00  0.00    +0.000 A 
ATOM     28  C   UNL     1       2.045   4.380  18.010  0.00  0.00    +0.000 A 
ENDBRANCH  22  23
BRANCH  22  29
ATOM     29  C   UNL     1       4.603   6.036  18.084  0.00  0.00    +0.000 A 
ATOM     30  C   UNL     1       4.736   6.377  16.726  0.00  0.00    +0.000 A 
ATOM     31  C   UNL     1       5.854   5.972  15.990  0.00  0.00    +0.000 A 
ATOM     32  C   UNL     1       6.864   5.237  16.605  0.00  0.00    +0.000 A 
ATOM     33  C   UNL     1       6.772   4.931  17.960  0.00  0.00    +0.000 A 
ATOM     34  C   UNL     1       5.654   5.331  18.695  0.00  0.00    +0.000 A 
ENDBRANCH  22  29
ENDBRANCH   3  22
TORSDOF 7
ENDMDL
MODEL 2
REMARK VINA RESULT:      -8.8      1.432      1.910
REMARK  Name = 
REMARK  7 active torsions:
REMARK  status: ('A' for Active; 'I' for Inactive)
REMARK    1  A    between atoms: C_2  and  C_17
REMARK    2  A    between atoms: N_3  and  C_4
REMARK    3  A    between atoms: C_4  and  C_5
REMARK    4  A    between atoms: C_4  and  C_11
REMARK    5  A    between atoms: N_20  and  S_21
REMARK    6  A    between atoms: S_21  and  C_24
REMARK    7  A    between atoms: C_24  and  C_25
REMARK                            x       y       z     vdW  Elec       q    Type
REMARK                         _______ _______ _______ _____ _____    ______ ____
ROOT
ATOM      1  O   UNL     1       1.672   8.489  19.978  0.00  0.00    +0.000 OA
ATOM      2  C   UNL     1       1.802   8.453  18.759  0.00  0.00    +0.000 C 
ATOM      3  N   UNL     1       2.542   7.488  18.118  0.00  0.00    +0.000 N 
ATOM      4  H   UNL     1       2.501   7.415  17.114  0.00  0.00    +0.000 HD
ENDROOT
BRANCH   2   5
ATOM      5  C   UNL     1       1.149   9.473  17.825  0.00  0.00    +0.000 C 
ATOM      6  C   UNL     1       1.923  10.791  17.767  0.00  0.00    +0.000 C 
ATOM      7  C   UNL     1       1.795  11.588  19.062  0.00  0.00    +0.000 C 
ATOM      8  N   UNL     1       0.361  11.879  19.357  0.00  0.00    +0.000 NA
ATOM      9  C   UNL     1      -0.425  10.602  19.486  0.00  0.00    +0.000 C 
ATOM     10  C   UNL     1      -0.306   9.756  18.218  0.00  0.00    +0.000 C 
BRANCH   8  11
ATOM     11  S   UNL     1       0.128  12.873  20.760  0.00  0.00    +0.000 S 
ATOM     12  O   UNL     1       1.420  12.997  21.406  0.00  0.00    +0.000 OA
ATOM     13  O   UNL     1      -0.610  14.037  20.324  0.00  0.00    +0.000 OA
BRANCH  11  14
ATOM     14  C   UNL     1      -0.935  11.850  21.813  0.00  0.00    +0.000 C 
BRANCH  14  15
ATOM     15  C   UNL     1      -1.961  12.735  22.479  0.00  0.00    +0.000 A 
ATOM     16  C   UNL     1      -1.589  13.594  23.526  0.00  0.00    +0.000 A 
ATOM     17  C   UNL     1      -2.545  14.382  24.172  0.00  0.00    +0.000 A 
ATOM     18  C   UNL     1      -3.872  14.317  23.765  0.00  0.00    +0.000 A 
ATOM     19  F   UNL     1      -4.793  15.063  24.392  0.00  0.00    +0.000 F 
ATOM     20  C   UNL     1      -4.260  13.481  22.726  0.00  0.00    +0.000 A 
ATOM     21  C   UNL     1      -3.306  12.691  22.080  0.00  0.00    +0.000 A 
ENDBRANCH  14  15
ENDBRANCH  11  14
ENDBRANCH   8  11
ENDBRANCH   2   5
BRANCH   3  22
ATOM     22  C   UNL     1       3.268   6.444  18.836  0.00  0.00    +0.000 C 
BRANCH  22  23
ATOM     23  C   UNL     1       2.347   5.264  19.113  0.00  0.00    +0.000 A 
ATOM     24  C   UNL     1       1.883   4.965  20.404  0.00  0.00    +0.000 A 
ATOM     25  C   UNL     1       1.097   3.833  20.636  0.00  0.00    +0.000 A 
ATOM     26  C   UNL     1       0.751   2.993  19.582  0.00  0.00    +0.000 A 
ATOM     27  C   UNL     1       1.185   3.284  18.291  0.00  0.00    +0.000 A 
ATOM     28  C   UNL     1       1.983   4.407  18.060  0.00  0.00    +0.000 A 
ENDBRANCH  22  23
BRANCH  22  29
ATOM     29  C   UNL     1       4.570   6.074  18.129  0.00  0.00    +0.000 A 
ATOM     30  C   UNL     1       4.742   6.427  16.778  0.00  0.00    +0.000 A 
ATOM     31  C   UNL     1       5.878   6.025  16.070  0.00  0.00    +0.000 A 
ATOM     32  C   UNL     1       6.869   5.281  16.705  0.00  0.00    +0.000 A 
ATOM     33  C   UNL     1       6.737   4.962  18.054  0.00  0.00    +0.000 A 
ATOM     34  C   UNL     1       5.602   5.360  18.762  0.00  0.00    +0.000 A 
ENDBRANCH  22  29
ENDBRANCH   3  22
TORSDOF 7
ENDMDL
MODEL 3
REMARK VINA RESULT:      -8.7      0.814      1.336
REMARK  Name = 
REMARK  7 active torsions:
REMARK  status: ('A' for Active; 'I' for Inactive)
REMARK    1  A    between atoms: C_2  and  C_17
REMARK    2  A    between atoms: N_3  and  C_4
REMARK    3  A    between atoms: C_4  and  C_5
REMARK    4  A    between atoms: C_4  and  C_11
REMARK    5  A    between atoms: N_20  and  S_21
REMARK    6  A    between atoms: S_21  and  C_24
REMARK    7  A    between atoms: C_24  and  C_25
REMARK                            x       y       z     vdW  Elec       q    Type
REMARK                         _______ _______ _______ _____ _____    ______ ____
ROOT
ATOM      1  O   UNL     1       1.787   8.366  20.075  0.00  0.00    +0.000 OA
ATOM      2  C   UNL     1       1.921   8.419  18.857  0.00  0.00    +0.000 C 
ATOM      3  N   UNL     1       2.653   7.494  18.149  0.00  0.00    +0.000 N 
ATOM      4  H   UNL     1       2.616   7.495  17.142  0.00  0.00    +0.000 HD
ENDROOT
BRANCH   2   5
ATOM      5  C   UNL     1       1.285   9.512  17.998  0.00  0.00    +0.000 C 
ATOM      6  C   UNL     1       1.885  10.892  18.269  0.00  0.00    +0.000 C 
ATOM      7  C   UNL     1       1.474  11.438  19.633  0.00  0.00    +0.000 C 
ATOM      8  N   UNL     1      -0.013  11.527  19.734  0.00  0.00    +0.000 NA
ATOM      9  C   UNL     1      -0.641  10.173  19.537  0.00  0.00    +0.000 C 
ATOM     10  C   UNL     1      -0.235   9.573  18.189  0.00  0.00    +0.000 C 
BRANCH   8  11
ATOM     11  S   UNL     1      -0.567  12.236  21.217  0.00  0.00    +0.000 S 
ATOM     12  O   UNL     1      -1.190  11.175  21.984  0.00  0.00    +0.000 OA
ATOM     13  O   UNL     1       0.541  12.998  21.749  0.00  0.00    +0.000 OA
BRANCH  11  14
ATOM     14  C   UNL     1      -1.866  13.373  20.665  0.00  0.00    +0.000 C 
BRANCH  14  15
ATOM     15  C   UNL     1      -3.015  13.315  21.643  0.00  0.00    +0.000 A 
ATOM     16  C   UNL     1      -4.267  12.822  21.243  0.00  0.00    +0.000 A 
ATOM     17  C   UNL     1      -5.343  12.807  22.135  0.00  0.00    +0.000 A 
ATOM     18  C   UNL     1      -5.164  13.279  23.429  0.00  0.00    +0.000 A 
ATOM     19  F   UNL     1      -6.197  13.277  24.282  0.00  0.00    +0.000 F 
ATOM     20  C   UNL     1      -3.931  13.763  23.848  0.00  0.00    +0.000 A 
ATOM     21  C   UNL     1      -2.855  13.780  22.958  0.00  0.00    +0.000 A 
ENDBRANCH  14  15
ENDBRANCH  11  14
ENDBRANCH   8  11
ENDBRANCH   2   5
BRANCH   3  22
ATOM     22  C   UNL     1       3.364   6.392  18.791  0.00  0.00    +0.000 C 
BRANCH  22  23
ATOM     23  C   UNL     1       2.403   5.245  19.074  0.00  0.00    +0.000 A 
ATOM     24  C   UNL     1       1.954   4.950  20.370  0.00  0.00    +0.000 A 
ATOM     25  C   UNL     1       1.129   3.846  20.606  0.00  0.00    +0.000 A 
ATOM     26  C   UNL     1       0.729   3.033  19.549  0.00  0.00    +0.000 A 
ATOM     27  C   UNL     1       1.149   3.322  18.253  0.00  0.00    +0.000 A 
ATOM     28  C   UNL     1       1.986   4.416  18.018  0.00  0.00    +0.000 A 
ENDBRANCH  22  23
BRANCH  22  29
ATOM     29  C   UNL     1       4.610   5.990  18.004  0.00  0.00    +0.000 A 
ATOM     30  C   UNL     1       5.639   5.289  18.659  0.00  0.00    +0.000 A 
ATOM     31  C   UNL     1       6.833   4.985  17.999  0.00  0.00    +0.000 A 
ATOM     32  C   UNL     1       7.010   5.360  16.670  0.00  0.00    +0.000 A 
ATOM     33  C   UNL     1       5.985   6.013  15.992  0.00  0.00    +0.000 A 
ATOM     34  C   UNL     1       4.792   6.320  16.650  0.00  0.00    +0.000 A 
ENDBRANCH  22  29
ENDBRANCH   3  22
TORSDOF 7
ENDMDL
MODEL 4
REMARK VINA RESULT:      -8.7      1.774      2.468
REMARK  Name = 
REMARK  7 active torsions:
REMARK  status: ('A' for Active; 'I' for Inactive)
REMARK    1  A    between atoms: C_2  and  C_17
REMARK    2  A    between atoms: N_3  and  C_4
REMARK    3  A    between atoms: C_4  and  C_5
REMARK    4  A    between atoms: C_4  and  C_11
REMARK    5  A    between atoms: N_20  and  S_21
REMARK    6  A    between atoms: S_21  and  C_24
REMARK    7  A    between atoms: C_24  and  C_25
REMARK                            x       y       z     vdW  Elec       q    Type
REMARK                         _______ _______ _______ _____ _____    ______ ____
ROOT
ATOM      1  O   UNL     1       1.770   8.412  20.080  0.00  0.00    +0.000 OA
ATOM      2  C   UNL     1       1.876   8.347  18.860  0.00  0.00    +0.000 C 
ATOM      3  N   UNL     1       2.599   7.362  18.228  0.00  0.00    +0.000 N 
ATOM      4  H   UNL     1       2.540   7.266  17.227  0.00  0.00    +0.000 HD
ENDROOT
BRANCH   2   5
ATOM      5  C   UNL     1       1.212   9.348  17.915  0.00  0.00    +0.000 C 
ATOM      6  C   UNL     1       2.001  10.652  17.796  0.00  0.00    +0.000 C 
ATOM      7  C   UNL     1       1.921  11.489  19.070  0.00  0.00    +0.000 C 
ATOM      8  N   UNL     1       0.499  11.809  19.396  0.00  0.00    +0.000 NA
ATOM      9  C   UNL     1      -0.300  10.548  19.585  0.00  0.00    +0.000 C 
ATOM     10  C   UNL     1      -0.228   9.663  18.339  0.00  0.00    +0.000 C 
BRANCH   8  11
ATOM     11  S   UNL     1       0.321  12.847  20.775  0.00  0.00    +0.000 S 
ATOM     12  O   UNL     1       1.651  13.079  21.301  0.00  0.00    +0.000 OA
ATOM     13  O   UNL     1      -0.527  13.942  20.360  0.00  0.00    +0.000 OA
BRANCH  11  14
ATOM     14  C   UNL     1      -0.581  11.806  21.954  0.00  0.00    +0.000 C 
BRANCH  14  15
ATOM     15  C   UNL     1      -1.515  12.677  22.760  0.00  0.00    +0.000 A 
ATOM     16  C   UNL     1      -1.031  13.810  23.434  0.00  0.00    +0.000 A 
ATOM     17  C   UNL     1      -1.886  14.592  24.214  0.00  0.00    +0.000 A 
ATOM     18  C   UNL     1      -3.227  14.246  24.315  0.00  0.00    +0.000 A 
ATOM     19  F   UNL     1      -4.046  14.987  25.073  0.00  0.00    +0.000 F 
ATOM     20  C   UNL     1      -3.729  13.133  23.650  0.00  0.00    +0.000 A 
ATOM     21  C   UNL     1      -2.876  12.349  22.871  0.00  0.00    +0.000 A 
ENDBRANCH  14  15
ENDBRANCH  11  14
ENDBRANCH   8  11
ENDBRANCH   2   5
BRANCH   3  22
ATOM     22  C   UNL     1       3.334   6.332  18.957  0.00  0.00    +0.000 C 
BRANCH  22  23
ATOM     23  C   UNL     1       2.452   5.107  19.159  0.00  0.00    +0.000 A 
ATOM     24  C   UNL     1       2.082   4.270  18.096  0.00  0.00    +0.000 A 
ATOM     25  C   UNL     1       1.212   3.195  18.303  0.00  0.00    +0.000 A 
ATOM     26  C   UNL     1       0.714   2.933  19.576  0.00  0.00    +0.000 A 
ATOM     27  C   UNL     1       1.086   3.741  20.648  0.00  0.00    +0.000 A 
ATOM     28  C   UNL     1       1.943   4.825  20.439  0.00  0.00    +0.000 A 
ENDBRANCH  22  23
BRANCH  22  29
ATOM     29  C   UNL     1       4.684   6.034  18.306  0.00  0.00    +0.000 A 
ATOM     30  C   UNL     1       5.685   5.399  19.063  0.00  0.00    +0.000 A 
ATOM     31  C   UNL     1       6.963   5.194  18.534  0.00  0.00    +0.000 A 
ATOM     32  C   UNL     1       7.254   5.603  17.235  0.00  0.00    +0.000 A 
ATOM     33  C   UNL     1       6.262   6.192  16.456  0.00  0.00    +0.000 A 
ATOM     34  C   UNL     1       4.986   6.400  16.983  0.00  0.00    +0.000 A 
ENDBRANCH  22  29
ENDBRANCH   3  22
TORSDOF 7
ENDMDL
MODEL 5
REMARK VINA RESULT:      -8.6      1.451      1.987
REMARK  Name = 
REMARK  7 active torsions:
REMARK  status: ('A' for Active; 'I' for Inactive)
REMARK    1  A    between atoms: C_2  and  C_17
REMARK    2  A    between atoms: N_3  and  C_4
REMARK    3  A    between atoms: C_4  and  C_5
REMARK    4  A    between atoms: C_4  and  C_11
REMARK    5  A    between atoms: N_20  and  S_21
REMARK    6  A    between atoms: S_21  and  C_24
REMARK    7  A    between atoms: C_24  and  C_25
REMARK                            x       y       z     vdW  Elec       q    Type
REMARK                         _______ _______ _______ _____ _____    ______ ____
ROOT
ATOM      1  O   UNL     1       1.661   8.517  20.090  0.00  0.00    +0.000 OA
ATOM      2  C   UNL     1       1.748   8.487  18.867  0.00  0.00    +0.000 C 
ATOM      3  N   UNL     1       2.466   7.526  18.195  0.00  0.00    +0.000 N 
ATOM      4  H   UNL     1       2.390   7.458  17.193  0.00  0.00    +0.000 HD
ENDROOT
BRANCH   2   5
ATOM      5  C   UNL     1       1.062   9.511  17.962  0.00  0.00    +0.000 C 
ATOM      6  C   UNL     1       1.872  10.800  17.819  0.00  0.00    +0.000 C 
ATOM      7  C   UNL     1       1.867  11.625  19.102  0.00  0.00    +0.000 C 
ATOM      8  N   UNL     1       0.469  11.972  19.496  0.00  0.00    +0.000 NA
ATOM      9  C   UNL     1      -0.347  10.725  19.710  0.00  0.00    +0.000 C 
ATOM     10  C   UNL     1      -0.350   9.851  18.454  0.00  0.00    +0.000 C 
BRANCH   8  11
ATOM     11  S   UNL     1       0.374  12.999  20.890  0.00  0.00    +0.000 S 
ATOM     12  O   UNL     1       1.729  13.179  21.373  0.00  0.00    +0.000 OA
ATOM     13  O   UNL     1      -0.448  14.128  20.516  0.00  0.00    +0.000 OA
BRANCH  11  14
ATOM     14  C   UNL     1      -0.522  11.977  22.090  0.00  0.00    +0.000 C 
BRANCH  14  15
ATOM     15  C   UNL     1      -1.686  12.770  22.635  0.00  0.00    +0.000 A 
ATOM     16  C   UNL     1      -2.967  12.633  22.076  0.00  0.00    +0.000 A 
ATOM     17  C   UNL     1      -4.035  13.397  22.550  0.00  0.00    +0.000 A 
ATOM     18  C   UNL     1      -3.825  14.295  23.590  0.00  0.00    +0.000 A 
ATOM     19  F   UNL     1      -4.845  15.038  24.038  0.00  0.00    +0.000 F 
ATOM     20  C   UNL     1      -2.567  14.440  24.163  0.00  0.00    +0.000 A 
ATOM     21  C   UNL     1      -1.498  13.678  23.689  0.00  0.00    +0.000 A 
ENDBRANCH  14  15
ENDBRANCH  11  14
ENDBRANCH   8  11
ENDBRANCH   2   5
BRANCH   3  22
ATOM     22  C   UNL     1       3.218   6.479  18.882  0.00  0.00    +0.000 C 
BRANCH  22  23
ATOM     23  C   UNL     1       2.317   5.282  19.154  0.00  0.00    +0.000 A 
ATOM     24  C   UNL     1       1.859   4.971  20.443  0.00  0.00    +0.000 A 
ATOM     25  C   UNL     1       1.092   3.824  20.670  0.00  0.00    +0.000 A 
ATOM     26  C   UNL     1       0.760   2.983  19.612  0.00  0.00    +0.000 A 
ATOM     27  C   UNL     1       1.190   3.286  18.322  0.00  0.00    +0.000 A 
ATOM     28  C   UNL     1       1.968   4.424  18.097  0.00  0.00    +0.000 A 
ENDBRANCH  22  23
BRANCH  22  29
ATOM     29  C   UNL     1       4.512   6.139  18.145  0.00  0.00    +0.000 A 
ATOM     30  C   UNL     1       5.544   5.481  18.839  0.00  0.00    +0.000 A 
ATOM     31  C   UNL     1       6.777   5.235  18.228  0.00  0.00    +0.000 A 
ATOM     32  C   UNL     1       6.991   5.626  16.909  0.00  0.00    +0.000 A 
ATOM     33  C   UNL     1       5.966   6.237  16.192  0.00  0.00    +0.000 A 
ATOM     34  C   UNL     1       4.734   6.486  16.802  0.00  0.00    +0.000 A 
ENDBRANCH  22  29
ENDBRANCH   3  22
TORSDOF 7
ENDMDL
MODEL 6
REMARK VINA RESULT:      -8.6      0.713      1.219
REMARK  Name = 
REMARK  7 active torsions:
REMARK  status: ('A' for Active; 'I' for Inactive)
REMARK    1  A    between atoms: C_2  and  C_17
REMARK    2  A    between atoms: N_3  and  C_4
REMARK    3  A    between atoms: C_4  and  C_5
REMARK    4  A    between atoms: C_4  and  C_11
REMARK    5  A    between atoms: N_20  and  S_21
REMARK    6  A    between atoms: S_21  and  C_24
REMARK    7  A    between atoms: C_24  and  C_25
REMARK                            x       y       z     vdW  Elec       q    Type
REMARK                         _______ _______ _______ _____ _____    ______ ____
ROOT
ATOM      1  O   UNL     1       1.851   8.299  20.028  0.00  0.00    +0.000 OA
ATOM      2  C   UNL     1       1.985   8.318  18.809  0.00  0.00    +0.000 C 
ATOM      3  N   UNL     1       2.731   7.385  18.128  0.00  0.00    +0.000 N 
ATOM      4  H   UNL     1       2.694   7.357  17.122  0.00  0.00    +0.000 HD
ENDROOT
BRANCH   2   5
ATOM      5  C   UNL     1       1.330   9.375  17.919  0.00  0.00    +0.000 C 
ATOM      6  C   UNL     1       1.952  10.760  18.102  0.00  0.00    +0.000 C 
ATOM      7  C   UNL     1       1.592  11.376  19.451  0.00  0.00    +0.000 C 
ATOM      8  N   UNL     1       0.110  11.486  19.597  0.00  0.00    +0.000 NA
ATOM      9  C   UNL     1      -0.537  10.132  19.487  0.00  0.00    +0.000 C 
ATOM     10  C   UNL     1      -0.183   9.463  18.157  0.00  0.00    +0.000 C 
BRANCH   8  11
ATOM     11  S   UNL     1      -0.387  12.273  21.061  0.00  0.00    +0.000 S 
ATOM     12  O   UNL     1      -1.099  11.285  21.848  0.00  0.00    +0.000 OA
ATOM     13  O   UNL     1       0.779  12.952  21.581  0.00  0.00    +0.000 OA
BRANCH  11  14
ATOM     14  C   UNL     1      -1.585  13.502  20.477  0.00  0.00    +0.000 C 
BRANCH  14  15
ATOM     15  C   UNL     1      -2.819  13.432  21.345  0.00  0.00    +0.000 A 
ATOM     16  C   UNL     1      -3.982  12.795  20.882  0.00  0.00    +0.000 A 
ATOM     17  C   UNL     1      -5.137  12.768  21.666  0.00  0.00    +0.000 A 
ATOM     18  C   UNL     1      -5.128  13.371  22.918  0.00  0.00    +0.000 A 
ATOM     19  F   UNL     1      -6.239  13.356  23.667  0.00  0.00    +0.000 F 
ATOM     20  C   UNL     1      -3.986  13.999  23.399  0.00  0.00    +0.000 A 
ATOM     21  C   UNL     1      -2.830  14.029  22.616  0.00  0.00    +0.000 A 
ENDBRANCH  14  15
ENDBRANCH  11  14
ENDBRANCH   8  11
ENDBRANCH   2   5
BRANCH   3  22
ATOM     22  C   UNL     1       3.460   6.314  18.801  0.00  0.00    +0.000 C 
BRANCH  22  23
ATOM     23  C   UNL     1       2.534   5.134  19.058  0.00  0.00    +0.000 A 
ATOM     24  C   UNL     1       2.077   4.304  18.022  0.00  0.00    +0.000 A 
ATOM     25  C   UNL     1       1.170   3.272  18.281  0.00  0.00    +0.000 A 
ATOM     26  C   UNL     1       0.720   3.045  19.579  0.00  0.00    +0.000 A 
ATOM     27  C   UNL     1       1.178   3.846  20.623  0.00  0.00    +0.000 A 
ATOM     28  C   UNL     1       2.072   4.886  20.363  0.00  0.00    +0.000 A 
ENDBRANCH  22  23
BRANCH  22  29
ATOM     29  C   UNL     1       4.747   5.955  18.060  0.00  0.00    +0.000 A 
ATOM     30  C   UNL     1       4.867   6.279  16.696  0.00  0.00    +0.000 A 
ATOM     31  C   UNL     1       5.988   5.885  15.961  0.00  0.00    +0.000 A 
ATOM     32  C   UNL     1       7.016   5.179  16.582  0.00  0.00    +0.000 A 
ATOM     33  C   UNL     1       6.936   4.890  17.941  0.00  0.00    +0.000 A 
ATOM     34  C   UNL     1       5.815   5.280  18.677  0.00  0.00    +0.000 A 
ENDBRANCH  22  29
ENDBRANCH   3  22
TORSDOF 7
ENDMDL
MODEL 7
REMARK VINA RESULT:      -8.5      1.510      2.027
REMARK  Name = 
REMARK  7 active torsions:
REMARK  status: ('A' for Active; 'I' for Inactive)
REMARK    1  A    between atoms: C_2  and  C_17
REMARK    2  A    between atoms: N_3  and  C_4
REMARK    3  A    between atoms: C_4  and  C_5
REMARK    4  A    between atoms: C_4  and  C_11
REMARK    5  A    between atoms: N_20  and  S_21
REMARK    6  A    between atoms: S_21  and  C_24
REMARK    7  A    between atoms: C_24  and  C_25
REMARK                            x       y       z     vdW  Elec       q    Type
REMARK                         _______ _______ _______ _____ _____    ______ ____
ROOT
ATOM      1  O   UNL     1       1.748   8.313  20.054  0.00  0.00    +0.000 OA
ATOM      2  C   UNL     1       1.916   8.343  18.840  0.00  0.00    +0.000 C 
ATOM      3  N   UNL     1       2.700   7.429  18.175  0.00  0.00    +0.000 N 
ATOM      4  H   UNL     1       2.693   7.406  17.168  0.00  0.00    +0.000 HD
ENDROOT
BRANCH   2   5
ATOM      5  C   UNL     1       1.268   9.394  17.937  0.00  0.00    +0.000 C 
ATOM      6  C   UNL     1       1.914  10.772  18.088  0.00  0.00    +0.000 C 
ATOM      7  C   UNL     1       1.580  11.418  19.429  0.00  0.00    +0.000 C 
ATOM      8  N   UNL     1       0.102  11.555  19.589  0.00  0.00    +0.000 NA
ATOM      9  C   UNL     1      -0.568  10.210  19.511  0.00  0.00    +0.000 C 
ATOM     10  C   UNL     1      -0.240   9.510  18.191  0.00  0.00    +0.000 C 
BRANCH   8  11
ATOM     11  S   UNL     1      -0.366  12.377  21.043  0.00  0.00    +0.000 S 
ATOM     12  O   UNL     1       0.029  11.529  22.151  0.00  0.00    +0.000 OA
ATOM     13  O   UNL     1       0.118  13.734  20.924  0.00  0.00    +0.000 OA
BRANCH  11  14
ATOM     14  C   UNL     1      -2.176  12.376  20.948  0.00  0.00    +0.000 C 
BRANCH  14  15
ATOM     15  C   UNL     1      -2.722  13.300  22.010  0.00  0.00    +0.000 A 
ATOM     16  C   UNL     1      -2.866  12.857  23.335  0.00  0.00    +0.000 A 
ATOM     17  C   UNL     1      -3.411  13.696  24.310  0.00  0.00    +0.000 A 
ATOM     18  C   UNL     1      -3.805  14.982  23.962  0.00  0.00    +0.000 A 
ATOM     19  F   UNL     1      -4.339  15.784  24.893  0.00  0.00    +0.000 F 
ATOM     20  C   UNL     1      -3.664  15.444  22.659  0.00  0.00    +0.000 A 
ATOM     21  C   UNL     1      -3.121  14.606  21.682  0.00  0.00    +0.000 A 
ENDBRANCH  14  15
ENDBRANCH  11  14
ENDBRANCH   8  11
ENDBRANCH   2   5
BRANCH   3  22
ATOM     22  C   UNL     1       3.429   6.367  18.863  0.00  0.00    +0.000 C 
BRANCH  22  23
ATOM     23  C   UNL     1       2.505   5.185  19.126  0.00  0.00    +0.000 A 
ATOM     24  C   UNL     1       2.004   4.384  18.088  0.00  0.00    +0.000 A 
ATOM     25  C   UNL     1       1.101   3.351  18.356  0.00  0.00    +0.000 A 
ATOM     26  C   UNL     1       0.698   3.095  19.664  0.00  0.00    +0.000 A 
ATOM     27  C   UNL     1       1.199   3.867  20.709  0.00  0.00    +0.000 A 
ATOM     28  C   UNL     1       2.090   4.909  20.441  0.00  0.00    +0.000 A 
ENDBRANCH  22  23
BRANCH  22  29
ATOM     29  C   UNL     1       4.721   6.005  18.133  0.00  0.00    +0.000 A 
ATOM     30  C   UNL     1       4.837   6.291  16.761  0.00  0.00    +0.000 A 
ATOM     31  C   UNL     1       5.965   5.892  16.038  0.00  0.00    +0.000 A 
ATOM     32  C   UNL     1       7.002   5.219  16.678  0.00  0.00    +0.000 A 
ATOM     33  C   UNL     1       6.925   4.969  18.046  0.00  0.00    +0.000 A 
ATOM     34  C   UNL     1       5.798   5.364  18.769  0.00  0.00    +0.000 A 
ENDBRANCH  22  29
ENDBRANCH   3  22
TORSDOF 7
ENDMDL
MODEL 8
REMARK VINA RESULT:      -8.4      2.732      3.730
REMARK  Name = 
REMARK  7 active torsions:
REMARK  status: ('A' for Active; 'I' for Inactive)
REMARK    1  A    between atoms: C_2  and  C_17
REMARK    2  A    between atoms: N_3  and  C_4
REMARK    3  A    between atoms: C_4  and  C_5
REMARK    4  A    between atoms: C_4  and  C_11
REMARK    5  A    between atoms: N_20  and  S_21
REMARK    6  A    between atoms: S_21  and  C_24
REMARK    7  A    between atoms: C_24  and  C_25
REMARK                            x       y       z     vdW  Elec       q    Type
REMARK                         _______ _______ _______ _____ _____    ______ ____
ROOT
ATOM      1  O   UNL     1       1.738   8.454  19.987  0.00  0.00    +0.000 OA
ATOM      2  C   UNL     1       1.901   8.425  18.772  0.00  0.00    +0.000 C 
ATOM      3  N   UNL     1       2.649   7.456  18.144  0.00  0.00    +0.000 N 
ATOM      4  H   UNL     1       2.636   7.390  17.140  0.00  0.00    +0.000 HD
ENDROOT
BRANCH   2   5
ATOM      5  C   UNL     1       1.284   9.457  17.827  0.00  0.00    +0.000 C 
ATOM      6  C   UNL     1       1.929  10.837  17.967  0.00  0.00    +0.000 C 
ATOM      7  C   UNL     1       1.555  11.513  19.282  0.00  0.00    +0.000 C 
ATOM      8  N   UNL     1       0.073  11.657  19.393  0.00  0.00    +0.000 NA
ATOM      9  C   UNL     1      -0.598  10.311  19.325  0.00  0.00    +0.000 C 
ATOM     10  C   UNL     1      -0.231   9.582  18.031  0.00  0.00    +0.000 C 
BRANCH   8  11
ATOM     11  S   UNL     1      -0.438  12.511  20.814  0.00  0.00    +0.000 S 
ATOM     12  O   UNL     1      -1.616  11.830  21.314  0.00  0.00    +0.000 OA
ATOM     13  O   UNL     1       0.739  12.683  21.637  0.00  0.00    +0.000 OA
BRANCH  11  14
ATOM     14  C   UNL     1      -0.950  14.122  20.159  0.00  0.00    +0.000 C 
BRANCH  14  15
ATOM     15  C   UNL     1       0.258  15.023  20.077  0.00  0.00    +0.000 A 
ATOM     16  C   UNL     1       0.603  15.854  21.156  0.00  0.00    +0.000 A 
ATOM     17  C   UNL     1       1.695  16.720  21.065  0.00  0.00    +0.000 A 
ATOM     18  C   UNL     1       2.448  16.750  19.898  0.00  0.00    +0.000 A 
ATOM     19  F   UNL     1       3.489  17.589  19.804  0.00  0.00    +0.000 F 
ATOM     20  C   UNL     1       2.130  15.931  18.822  0.00  0.00    +0.000 A 
ATOM     21  C   UNL     1       1.037  15.066  18.910  0.00  0.00    +0.000 A 
ENDBRANCH  14  15
ENDBRANCH  11  14
ENDBRANCH   8  11
ENDBRANCH   2   5
BRANCH   3  22
ATOM     22  C   UNL     1       3.346   6.401  18.875  0.00  0.00    +0.000 C 
BRANCH  22  23
ATOM     23  C   UNL     1       2.401   5.235  19.134  0.00  0.00    +0.000 A 
ATOM     24  C   UNL     1       1.933   4.925  20.420  0.00  0.00    +0.000 A 
ATOM     25  C   UNL     1       1.124   3.805  20.634  0.00  0.00    +0.000 A 
ATOM     26  C   UNL     1       0.761   2.989  19.566  0.00  0.00    +0.000 A 
ATOM     27  C   UNL     1       1.200   3.292  18.280  0.00  0.00    +0.000 A 
ATOM     28  C   UNL     1       2.020   4.403  18.067  0.00  0.00    +0.000 A 
ENDBRANCH  22  23
BRANCH  22  29
ATOM     29  C   UNL     1       4.655   6.011  18.192  0.00  0.00    +0.000 A 
ATOM     30  C   UNL     1       4.857   6.362  16.845  0.00  0.00    +0.000 A 
ATOM     31  C   UNL     1       6.000   5.943  16.158  0.00  0.00    +0.000 A 
ATOM     32  C   UNL     1       6.968   5.185  16.812  0.00  0.00    +0.000 A 
ATOM     33  C   UNL     1       6.807   4.868  18.158  0.00  0.00    +0.000 A 
ATOM     34  C   UNL     1       5.664   5.283  18.845  0.00  0.00    +0.000 A 
ENDBRANCH  22  29
ENDBRANCH   3  22
TORSDOF 7
ENDMDL
MODEL 9
REMARK VINA RESULT:      -8.4      2.428      3.350
REMARK  Name = 
REMARK  7 active torsions:
REMARK  status: ('A' for Active; 'I' for Inactive)
REMARK    1  A    between atoms: C_2  and  C_17
REMARK    2  A    between atoms: N_3  and  C_4
REMARK    3  A    between atoms: C_4  and  C_5
REMARK    4  A    between atoms: C_4  and  C_11
REMARK    5  A    between atoms: N_20  and  S_21
REMARK    6  A    between atoms: S_21  and  C_24
REMARK    7  A    between atoms: C_24  and  C_25
REMARK                            x       y       z     vdW  Elec       q    Type
REMARK                         _______ _______ _______ _____ _____    ______ ____
ROOT
ATOM      1  O   UNL     1       1.732   8.436  20.052  0.00  0.00    +0.000 OA
ATOM      2  C   UNL     1       1.880   8.431  18.834  0.00  0.00    +0.000 C 
ATOM      3  N   UNL     1       2.614   7.471  18.178  0.00  0.00    +0.000 N 
ATOM      4  H   UNL     1       2.588   7.426  17.172  0.00  0.00    +0.000 HD
ENDROOT
BRANCH   2   5
ATOM      5  C   UNL     1       1.258   9.486  17.918  0.00  0.00    +0.000 C 
ATOM      6  C   UNL     1       1.891  10.866  18.102  0.00  0.00    +0.000 C 
ATOM      7  C   UNL     1       1.507  11.500  19.436  0.00  0.00    +0.000 C 
ATOM      8  N   UNL     1       0.024  11.628  19.546  0.00  0.00    +0.000 NA
ATOM      9  C   UNL     1      -0.636  10.280  19.435  0.00  0.00    +0.000 C 
ATOM     10  C   UNL     1      -0.259   9.593  18.121  0.00  0.00    +0.000 C 
BRANCH   8  11
ATOM     11  S   UNL     1      -0.498  12.435  20.990  0.00  0.00    +0.000 S 
ATOM     12  O   UNL     1      -1.362  11.511  21.699  0.00  0.00    +0.000 OA
ATOM     13  O   UNL     1       0.689  12.982  21.609  0.00  0.00    +0.000 OA
BRANCH  11  14
ATOM     14  C   UNL     1      -1.520  13.790  20.353  0.00  0.00    +0.000 C 
BRANCH  14  15
ATOM     15  C   UNL     1      -0.639  14.988  20.096  0.00  0.00    +0.000 A 
ATOM     16  C   UNL     1       0.127  15.071  18.922  0.00  0.00    +0.000 A 
ATOM     17  C   UNL     1       0.976  16.159  18.703  0.00  0.00    +0.000 A 
ATOM     18  C   UNL     1       1.054  17.168  19.654  0.00  0.00    +0.000 A 
ATOM     19  F   UNL     1       1.876  18.206  19.451  0.00  0.00    +0.000 F 
ATOM     20  C   UNL     1       0.298  17.110  20.819  0.00  0.00    +0.000 A 
ATOM     21  C   UNL     1      -0.550  16.023  21.041  0.00  0.00    +0.000 A 
ENDBRANCH  14  15
ENDBRANCH  11  14
ENDBRANCH   8  11
ENDBRANCH   2   5
BRANCH   3  22
ATOM     22  C   UNL     1       3.313   6.397  18.878  0.00  0.00    +0.000 C 
BRANCH  22  23
ATOM     23  C   UNL     1       2.366   5.230  19.120  0.00  0.00    +0.000 A 
ATOM     24  C   UNL     1       1.894   4.904  20.401  0.00  0.00    +0.000 A 
ATOM     25  C   UNL     1       1.083   3.783  20.599  0.00  0.00    +0.000 A 
ATOM     26  C   UNL     1       0.720   2.982  19.521  0.00  0.00    +0.000 A 
ATOM     27  C   UNL     1       1.163   3.300  18.239  0.00  0.00    +0.000 A 
ATOM     28  C   UNL     1       1.986   4.411  18.042  0.00  0.00    +0.000 A 
ENDBRANCH  22  23
BRANCH  22  29
ATOM     29  C   UNL     1       4.614   6.017  18.173  0.00  0.00    +0.000 A 
ATOM     30  C   UNL     1       5.622   5.358  18.901  0.00  0.00    +0.000 A 
ATOM     31  C   UNL     1       6.861   5.077  18.318  0.00  0.00    +0.000 A 
ATOM     32  C   UNL     1       7.105   5.432  16.994  0.00  0.00    +0.000 A 
ATOM     33  C   UNL     1       6.103   6.043  16.244  0.00  0.00    +0.000 A 
ATOM     34  C   UNL     1       4.866   6.327  16.826  0.00  0.00    +0.000 A 
ENDBRANCH  22  29
ENDBRANCH   3  22
TORSDOF 7
ENDMDL
