MODEL 1
REMARK VINA RESULT:      -6.8      0.000      0.000
REMARK  Name = 
REMARK  4 active torsions:
REMARK  status: ('A' for Active; 'I' for Inactive)
REMARK    1  A    between atoms: N_4  and  C_5
REMARK    2  A    between atoms: C_5  and  C_7
REMARK    3  A    between atoms: C_11  and  O_12
REMARK    4  A    between atoms: C_14  and  N_15
REMARK                            x       y       z     vdW  Elec       q    Type
REMARK                         _______ _______ _______ _____ _____    ______ ____
ROOT
ATOM      1  C   UNL     1       6.199   5.741  16.808  0.00  0.00    +0.000 A 
ATOM      2  N   UNL     1       7.016   6.795  17.114  0.00  0.00    +0.000 NA
ATOM      3  C   UNL     1       7.595   6.715  18.325  0.00  0.00    +0.000 A 
ATOM      4 CL   UNL     1       8.643   8.016  18.716  0.00  0.00    +0.000 Cl
ATOM      5  C   UNL     1       7.378   5.657  19.205  0.00  0.00    +0.000 A 
ATOM      6  N   UNL     1       6.558   4.627  18.909  0.00  0.00    +0.000 NA
ATOM      7  C   UNL     1       5.962   4.669  17.694  0.00  0.00    +0.000 A 
ENDROOT
BRANCH   7   8
ATOM      8  N   UNL     1       5.227   3.530  17.372  0.00  0.00    +0.000 N 
ATOM      9  H   UNL     1       4.685   3.243  18.183  0.00  0.00    +0.000 HD
ATOM     10  H   UNL     1       4.677   3.638  16.522  0.00  0.00    +0.000 HD
ENDBRANCH   7   8
BRANCH   1  11
ATOM     11  C   UNL     1       5.513   5.787  15.483  0.00  0.00    +0.000 C 
ATOM     12  O   UNL     1       4.985   6.838  15.110  0.00  0.00    +0.000 OA
BRANCH  11  16
ATOM     13  N   UNL     1       6.439   3.269  13.163  0.00  0.00    +0.000 N 
ATOM     14  C   UNL     1       6.423   4.417  13.875  0.00  0.00    +0.000 C 
ATOM     15  N   UNL     1       7.463   5.217  13.547  0.00  0.00    +0.000 N 
ATOM     16  N   UNL     1       5.511   4.608  14.766  0.00  0.00    +0.000 NA
ATOM     17  H   UNL     1       6.791   3.309  12.219  0.00  0.00    +0.000 HD
ATOM     18  H   UNL     1       5.581   2.736  13.252  0.00  0.00    +0.000 HD
ATOM     19  H   UNL     1       7.746   5.217  12.578  0.00  0.00    +0.000 HD
ATOM     20  H   UNL     1       7.362   6.166  13.910  0.00  0.00    +0.000 HD
ENDBRANCH  11  16
ENDBRANCH   1  11
BRANCH   5  21
ATOM     21  O   UNL     1       7.993   5.567  20.424  0.00  0.00    +0.000 OA
ATOM     22  H   UNL     1       8.922   5.327  20.264  0.00  0.00    +0.000 HD
ENDBRANCH   5  21
TORSDOF 4
ENDMDL
MODEL 2
REMARK VINA RESULT:      -6.8      2.922      4.911
REMARK  Name = 
REMARK  4 active torsions:
REMARK  status: ('A' for Active; 'I' for Inactive)
REMARK    1  A    between atoms: N_4  and  C_5
REMARK    2  A    between atoms: C_5  and  C_7
REMARK    3  A    between atoms: C_11  and  O_12
REMARK    4  A    between atoms: C_14  and  N_15
REMARK                            x       y       z     vdW  Elec       q    Type
REMARK                         _______ _______ _______ _____ _____    ______ ____
ROOT
ATOM      1  C   UNL     1       5.890   4.351  16.796  0.00  0.00    +0.000 A 
ATOM      2  N   UNL     1       5.600   3.740  15.607  0.00  0.00    +0.000 NA
ATOM      3  C   UNL     1       6.310   4.196  14.560  0.00  0.00    +0.000 A 
ATOM      4 CL   UNL     1       5.978   3.423  13.065  0.00  0.00    +0.000 Cl
ATOM      5  C   UNL     1       7.257   5.213  14.667  0.00  0.00    +0.000 A 
ATOM      6  N   UNL     1       7.529   5.828  15.837  0.00  0.00    +0.000 NA
ATOM      7  C   UNL     1       6.837   5.390  16.915  0.00  0.00    +0.000 A 
ENDROOT
BRANCH   7   8
ATOM      8  N   UNL     1       7.236   5.956  18.124  0.00  0.00    +0.000 N 
ATOM      9  H   UNL     1       7.338   5.222  18.820  0.00  0.00    +0.000 HD
ATOM     10  H   UNL     1       8.054   6.557  18.031  0.00  0.00    +0.000 HD
ENDBRANCH   7   8
BRANCH   1  11
ATOM     11  C   UNL     1       5.117   3.899  17.989  0.00  0.00    +0.000 C 
ATOM     12  O   UNL     1       5.662   3.885  19.096  0.00  0.00    +0.000 OA
BRANCH  11  16
ATOM     13  N   UNL     1       2.192   1.899  17.831  0.00  0.00    +0.000 N 
ATOM     14  C   UNL     1       3.461   2.304  18.055  0.00  0.00    +0.000 C 
ATOM     15  N   UNL     1       4.193   1.331  18.645  0.00  0.00    +0.000 N 
ATOM     16  N   UNL     1       3.816   3.505  17.750  0.00  0.00    +0.000 NA
ATOM     17  H   UNL     1       2.044   0.926  17.611  0.00  0.00    +0.000 HD
ATOM     18  H   UNL     1       1.675   2.532  17.231  0.00  0.00    +0.000 HD
ATOM     19  H   UNL     1       3.999   0.382  18.359  0.00  0.00    +0.000 HD
ATOM     20  H   UNL     1       5.195   1.530  18.636  0.00  0.00    +0.000 HD
ENDBRANCH  11  16
ENDBRANCH   1  11
BRANCH   5  21
ATOM     21  O   UNL     1       7.997   5.652  13.604  0.00  0.00    +0.000 OA
ATOM     22  H   UNL     1       8.721   5.017  13.470  0.00  0.00    +0.000 HD
ENDBRANCH   5  21
TORSDOF 4
ENDMDL
MODEL 3
REMARK VINA RESULT:      -6.7      3.734      4.658
REMARK  Name = 
REMARK  4 active torsions:
REMARK  status: ('A' for Active; 'I' for Inactive)
REMARK    1  A    between atoms: N_4  and  C_5
REMARK    2  A    between atoms: C_5  and  C_7
REMARK    3  A    between atoms: C_11  and  O_12
REMARK    4  A    between atoms: C_14  and  N_15
REMARK                            x       y       z     vdW  Elec       q    Type
REMARK                         _______ _______ _______ _____ _____    ______ ____
ROOT
ATOM      1  C   UNL     1       4.515   4.907  19.457  0.00  0.00    +0.000 A 
ATOM      2  N   UNL     1       3.675   5.943  19.759  0.00  0.00    +0.000 NA
ATOM      3  C   UNL     1       2.433   5.567  20.114  0.00  0.00    +0.000 A 
ATOM      4 CL   UNL     1       1.373   6.853  20.521  0.00  0.00    +0.000 Cl
ATOM      5  C   UNL     1       2.025   4.235  20.161  0.00  0.00    +0.000 A 
ATOM      6  N   UNL     1       2.850   3.215  19.844  0.00  0.00    +0.000 NA
ATOM      7  C   UNL     1       4.111   3.556  19.489  0.00  0.00    +0.000 A 
ENDROOT
BRANCH   7   8
ATOM      8  N   UNL     1       4.967   2.474  19.295  0.00  0.00    +0.000 N 
ATOM      9  H   UNL     1       4.454   1.610  19.446  0.00  0.00    +0.000 HD
ATOM     10  H   UNL     1       5.462   2.512  18.406  0.00  0.00    +0.000 HD
ENDBRANCH   7   8
BRANCH   1  11
ATOM     11  C   UNL     1       5.901   5.267  19.036  0.00  0.00    +0.000 C 
ATOM     12  O   UNL     1       6.826   5.169  19.848  0.00  0.00    +0.000 OA
BRANCH  11  16
ATOM     13  N   UNL     1       7.155   5.667  15.743  0.00  0.00    +0.000 N 
ATOM     14  C   UNL     1       7.003   5.247  17.018  0.00  0.00    +0.000 C 
ATOM     15  N   UNL     1       7.922   4.309  17.342  0.00  0.00    +0.000 N 
ATOM     16  N   UNL     1       6.040   5.711  17.737  0.00  0.00    +0.000 NA
ATOM     17  H   UNL     1       8.091   5.701  15.370  0.00  0.00    +0.000 HD
ATOM     18  H   UNL     1       6.604   6.492  15.530  0.00  0.00    +0.000 HD
ATOM     19  H   UNL     1       8.843   4.422  16.944  0.00  0.00    +0.000 HD
ATOM     20  H   UNL     1       7.965   4.128  18.346  0.00  0.00    +0.000 HD
ENDBRANCH  11  16
ENDBRANCH   1  11
BRANCH   5  21
ATOM     21  O   UNL     1       0.770   3.857  20.550  0.00  0.00    +0.000 OA
ATOM     22  H   UNL     1       0.426   3.247  19.875  0.00  0.00    +0.000 HD
ENDBRANCH   5  21
TORSDOF 4
ENDMDL
MODEL 4
REMARK VINA RESULT:      -6.6      3.074      4.988
REMARK  Name = 
REMARK  4 active torsions:
REMARK  status: ('A' for Active; 'I' for Inactive)
REMARK    1  A    between atoms: N_4  and  C_5
REMARK    2  A    between atoms: C_5  and  C_7
REMARK    3  A    between atoms: C_11  and  O_12
REMARK    4  A    between atoms: C_14  and  N_15
REMARK                            x       y       z     vdW  Elec       q    Type
REMARK                         _______ _______ _______ _____ _____    ______ ____
ROOT
ATOM      1  C   UNL     1       5.473   4.134  17.630  0.00  0.00    +0.000 A 
ATOM      2  N   UNL     1       5.060   3.861  16.355  0.00  0.00    +0.000 NA
ATOM      3  C   UNL     1       5.872   4.338  15.394  0.00  0.00    +0.000 A 
ATOM      4 CL   UNL     1       5.383   3.982  13.788  0.00  0.00    +0.000 Cl
ATOM      5  C   UNL     1       7.031   5.062  15.666  0.00  0.00    +0.000 A 
ATOM      6  N   UNL     1       7.427   5.347  16.925  0.00  0.00    +0.000 NA
ATOM      7  C   UNL     1       6.638   4.875  17.919  0.00  0.00    +0.000 A 
ENDROOT
BRANCH   7   8
ATOM      8  N   UNL     1       7.145   5.077  19.201  0.00  0.00    +0.000 N 
ATOM      9  H   UNL     1       6.557   5.745  19.692  0.00  0.00    +0.000 HD
ATOM     10  H   UNL     1       7.299   4.208  19.709  0.00  0.00    +0.000 HD
ENDBRANCH   7   8
BRANCH   1  11
ATOM     11  C   UNL     1       4.600   3.646  18.737  0.00  0.00    +0.000 C 
ATOM     12  O   UNL     1       5.106   3.045  19.689  0.00  0.00    +0.000 OA
BRANCH  11  16
ATOM     13  N   UNL     1       1.112   3.130  18.346  0.00  0.00    +0.000 N 
ATOM     14  C   UNL     1       2.437   2.905  18.484  0.00  0.00    +0.000 C 
ATOM     15  N   UNL     1       2.711   1.581  18.528  0.00  0.00    +0.000 N 
ATOM     16  N   UNL     1       3.251   3.898  18.596  0.00  0.00    +0.000 NA
ATOM     17  H   UNL     1       0.578   2.467  17.807  0.00  0.00    +0.000 HD
ATOM     18  H   UNL     1       0.896   4.097  18.128  0.00  0.00    +0.000 HD
ATOM     19  H   UNL     1       2.145   0.982  17.945  0.00  0.00    +0.000 HD
ATOM     20  H   UNL     1       3.706   1.379  18.422  0.00  0.00    +0.000 HD
ENDBRANCH  11  16
ENDBRANCH   1  11
BRANCH   5  21
ATOM     21  O   UNL     1       7.867   5.520  14.686  0.00  0.00    +0.000 OA
ATOM     22  H   UNL     1       8.643   5.911  15.123  0.00  0.00    +0.000 HD
ENDBRANCH   5  21
TORSDOF 4
ENDMDL
MODEL 5
REMARK VINA RESULT:      -6.6      3.093      4.911
REMARK  Name = 
REMARK  4 active torsions:
REMARK  status: ('A' for Active; 'I' for Inactive)
REMARK    1  A    between atoms: N_4  and  C_5
REMARK    2  A    between atoms: C_5  and  C_7
REMARK    3  A    between atoms: C_11  and  O_12
REMARK    4  A    between atoms: C_14  and  N_15
REMARK                            x       y       z     vdW  Elec       q    Type
REMARK                         _______ _______ _______ _____ _____    ______ ____
ROOT
ATOM      1  C   UNL     1       5.327   4.617  16.669  0.00  0.00    +0.000 A 
ATOM      2  N   UNL     1       5.147   4.018  15.453  0.00  0.00    +0.000 NA
ATOM      3  C   UNL     1       6.076   4.337  14.534  0.00  0.00    +0.000 A 
ATOM      4 CL   UNL     1       5.881   3.575  13.009  0.00  0.00    +0.000 Cl
ATOM      5  C   UNL     1       7.130   5.213  14.788  0.00  0.00    +0.000 A 
ATOM      6  N   UNL     1       7.295   5.817  15.984  0.00  0.00    +0.000 NA
ATOM      7  C   UNL     1       6.382   5.514  16.936  0.00  0.00    +0.000 A 
ENDROOT
BRANCH   7   8
ATOM      8  N   UNL     1       6.658   6.054  18.191  0.00  0.00    +0.000 N 
ATOM      9  H   UNL     1       7.200   5.384  18.731  0.00  0.00    +0.000 HD
ATOM     10  H   UNL     1       7.076   6.981  18.141  0.00  0.00    +0.000 HD
ENDBRANCH   7   8
BRANCH   1  11
ATOM     11  C   UNL     1       4.313   4.315  17.722  0.00  0.00    +0.000 C 
ATOM     12  O   UNL     1       3.128   4.596  17.521  0.00  0.00    +0.000 OA
BRANCH  11  16
ATOM     13  N   UNL     1       4.991   1.926  20.255  0.00  0.00    +0.000 N 
ATOM     14  C   UNL     1       4.523   2.507  19.128  0.00  0.00    +0.000 C 
ATOM     15  N   UNL     1       3.829   1.628  18.370  0.00  0.00    +0.000 N 
ATOM     16  N   UNL     1       4.799   3.741  18.879  0.00  0.00    +0.000 NA
ATOM     17  H   UNL     1       4.430   1.201  20.675  0.00  0.00    +0.000 HD
ATOM     18  H   UNL     1       5.354   2.596  20.924  0.00  0.00    +0.000 HD
ATOM     19  H   UNL     1       3.276   0.943  18.864  0.00  0.00    +0.000 HD
ATOM     20  H   UNL     1       3.294   2.081  17.628  0.00  0.00    +0.000 HD
ENDBRANCH  11  16
ENDBRANCH   1  11
BRANCH   5  21
ATOM     21  O   UNL     1       8.088   5.510  13.859  0.00  0.00    +0.000 OA
ATOM     22  H   UNL     1       7.759   6.258  13.330  0.00  0.00    +0.000 HD
ENDBRANCH   5  21
TORSDOF 4
ENDMDL
MODEL 6
REMARK VINA RESULT:      -6.6      2.874      3.344
REMARK  Name = 
REMARK  4 active torsions:
REMARK  status: ('A' for Active; 'I' for Inactive)
REMARK    1  A    between atoms: N_4  and  C_5
REMARK    2  A    between atoms: C_5  and  C_7
REMARK    3  A    between atoms: C_11  and  O_12
REMARK    4  A    between atoms: C_14  and  N_15
REMARK                            x       y       z     vdW  Elec       q    Type
REMARK                         _______ _______ _______ _____ _____    ______ ____
ROOT
ATOM      1  C   UNL     1       5.698   4.627  17.492  0.00  0.00    +0.000 A 
ATOM      2  N   UNL     1       4.383   4.505  17.137  0.00  0.00    +0.000 NA
ATOM      3  C   UNL     1       3.512   4.811  18.115  0.00  0.00    +0.000 A 
ATOM      4 CL   UNL     1       1.857   4.689  17.680  0.00  0.00    +0.000 Cl
ATOM      5  C   UNL     1       3.909   5.209  19.391  0.00  0.00    +0.000 A 
ATOM      6  N   UNL     1       5.207   5.311  19.745  0.00  0.00    +0.000 NA
ATOM      7  C   UNL     1       6.113   5.018  18.782  0.00  0.00    +0.000 A 
ENDROOT
BRANCH   7   8
ATOM      8  N   UNL     1       7.437   5.258  19.144  0.00  0.00    +0.000 N 
ATOM      9  H   UNL     1       7.985   4.418  18.984  0.00  0.00    +0.000 HD
ATOM     10  H   UNL     1       7.822   6.094  18.709  0.00  0.00    +0.000 HD
ENDBRANCH   7   8
BRANCH   1  11
ATOM     11  C   UNL     1       6.709   4.280  16.450  0.00  0.00    +0.000 C 
ATOM     12  O   UNL     1       7.891   4.589  16.626  0.00  0.00    +0.000 OA
BRANCH  11  16
ATOM     13  N   UNL     1       6.041   3.493  13.057  0.00  0.00    +0.000 N 
ATOM     14  C   UNL     1       6.505   4.110  14.166  0.00  0.00    +0.000 C 
ATOM     15  N   UNL     1       7.279   5.173  13.852  0.00  0.00    +0.000 N 
ATOM     16  N   UNL     1       6.223   3.636  15.331  0.00  0.00    +0.000 NA
ATOM     17  H   UNL     1       5.842   4.066  12.252  0.00  0.00    +0.000 HD
ATOM     18  H   UNL     1       5.317   2.811  13.258  0.00  0.00    +0.000 HD
ATOM     19  H   UNL     1       7.005   5.710  13.041  0.00  0.00    +0.000 HD
ATOM     20  H   UNL     1       7.470   5.775  14.654  0.00  0.00    +0.000 HD
ENDBRANCH  11  16
ENDBRANCH   1  11
BRANCH   5  21
ATOM     21  O   UNL     1       3.019   5.547  20.373  0.00  0.00    +0.000 OA
ATOM     22  H   UNL     1       2.250   5.958  19.941  0.00  0.00    +0.000 HD
ENDBRANCH   5  21
TORSDOF 4
ENDMDL
MODEL 7
REMARK VINA RESULT:      -6.5      3.822      5.045
REMARK  Name = 
REMARK  4 active torsions:
REMARK  status: ('A' for Active; 'I' for Inactive)
REMARK    1  A    between atoms: N_4  and  C_5
REMARK    2  A    between atoms: C_5  and  C_7
REMARK    3  A    between atoms: C_11  and  O_12
REMARK    4  A    between atoms: C_14  and  N_15
REMARK                            x       y       z     vdW  Elec       q    Type
REMARK                         _______ _______ _______ _____ _____    ______ ____
ROOT
ATOM      1  C   UNL     1       4.320   3.957  18.735  0.00  0.00    +0.000 A 
ATOM      2  N   UNL     1       3.297   4.556  18.052  0.00  0.00    +0.000 NA
ATOM      3  C   UNL     1       2.166   3.829  17.997  0.00  0.00    +0.000 A 
ATOM      4 CL   UNL     1       0.863   4.575  17.166  0.00  0.00    +0.000 Cl
ATOM      5  C   UNL     1       2.042   2.567  18.573  0.00  0.00    +0.000 A 
ATOM      6  N   UNL     1       3.059   1.970  19.231  0.00  0.00    +0.000 NA
ATOM      7  C   UNL     1       4.212   2.675  19.313  0.00  0.00    +0.000 A 
ENDROOT
BRANCH   7   8
ATOM      8  N   UNL     1       5.193   2.084  20.107  0.00  0.00    +0.000 N 
ATOM      9  H   UNL     1       5.512   2.756  20.800  0.00  0.00    +0.000 HD
ATOM     10  H   UNL     1       4.902   1.191  20.499  0.00  0.00    +0.000 HD
ENDBRANCH   7   8
BRANCH   1  11
ATOM     11  C   UNL     1       5.606   4.710  18.810  0.00  0.00    +0.000 C 
ATOM     12  O   UNL     1       6.285   4.649  19.840  0.00  0.00    +0.000 OA
BRANCH  11  16
ATOM     13  N   UNL     1       7.396   5.926  16.000  0.00  0.00    +0.000 N 
ATOM     14  C   UNL     1       7.054   5.213  17.096  0.00  0.00    +0.000 C 
ATOM     15  N   UNL     1       7.982   4.272  17.383  0.00  0.00    +0.000 N 
ATOM     16  N   UNL     1       5.937   5.450  17.694  0.00  0.00    +0.000 NA
ATOM     17  H   UNL     1       8.377   6.091  15.838  0.00  0.00    +0.000 HD
ATOM     18  H   UNL     1       6.819   6.750  15.868  0.00  0.00    +0.000 HD
ATOM     19  H   UNL     1       8.946   4.519  17.211  0.00  0.00    +0.000 HD
ATOM     20  H   UNL     1       7.859   3.865  18.311  0.00  0.00    +0.000 HD
ENDBRANCH  11  16
ENDBRANCH   1  11
BRANCH   5  21
ATOM     21  O   UNL     1       0.881   1.845  18.539  0.00  0.00    +0.000 OA
ATOM     22  H   UNL     1       1.113   0.931  18.303  0.00  0.00    +0.000 HD
ENDBRANCH   5  21
TORSDOF 4
ENDMDL
MODEL 8
REMARK VINA RESULT:      -6.5      2.910      3.231
REMARK  Name = 
REMARK  4 active torsions:
REMARK  status: ('A' for Active; 'I' for Inactive)
REMARK    1  A    between atoms: N_4  and  C_5
REMARK    2  A    between atoms: C_5  and  C_7
REMARK    3  A    between atoms: C_11  and  O_12
REMARK    4  A    between atoms: C_14  and  N_15
REMARK                            x       y       z     vdW  Elec       q    Type
REMARK                         _______ _______ _______ _____ _____    ______ ____
ROOT
ATOM      1  C   UNL     1       5.192   4.920  17.837  0.00  0.00    +0.000 A 
ATOM      2  N   UNL     1       4.632   6.098  17.425  0.00  0.00    +0.000 NA
ATOM      3  C   UNL     1       3.589   6.508  18.169  0.00  0.00    +0.000 A 
ATOM      4 CL   UNL     1       2.890   7.997  17.681  0.00  0.00    +0.000 Cl
ATOM      5  C   UNL     1       3.106   5.793  19.263  0.00  0.00    +0.000 A 
ATOM      6  N   UNL     1       3.649   4.622  19.658  0.00  0.00    +0.000 NA
ATOM      7  C   UNL     1       4.706   4.181  18.936  0.00  0.00    +0.000 A 
ENDROOT
BRANCH   7   8
ATOM      8  N   UNL     1       5.318   3.039  19.449  0.00  0.00    +0.000 N 
ATOM      9  H   UNL     1       4.828   2.746  20.290  0.00  0.00    +0.000 HD
ATOM     10  H   UNL     1       5.429   2.302  18.756  0.00  0.00    +0.000 HD
ENDBRANCH   7   8
BRANCH   1  11
ATOM     11  C   UNL     1       6.340   4.406  17.035  0.00  0.00    +0.000 C 
ATOM     12  O   UNL     1       7.490   4.555  17.458  0.00  0.00    +0.000 OA
BRANCH  11  16
ATOM     13  N   UNL     1       6.249   3.657  13.569  0.00  0.00    +0.000 N 
ATOM     14  C   UNL     1       6.552   4.238  14.751  0.00  0.00    +0.000 C 
ATOM     15  N   UNL     1       7.465   5.224  14.597  0.00  0.00    +0.000 N 
ATOM     16  N   UNL     1       6.016   3.800  15.838  0.00  0.00    +0.000 NA
ATOM     17  H   UNL     1       6.258   4.240  12.746  0.00  0.00    +0.000 HD
ATOM     18  H   UNL     1       5.442   3.046  13.624  0.00  0.00    +0.000 HD
ATOM     19  H   UNL     1       7.397   5.777  13.756  0.00  0.00    +0.000 HD
ATOM     20  H   UNL     1       7.556   5.812  15.427  0.00  0.00    +0.000 HD
ENDBRANCH  11  16
ENDBRANCH   1  11
BRANCH   5  21
ATOM     21  O   UNL     1       2.065   6.230  20.034  0.00  0.00    +0.000 OA
ATOM     22  H   UNL     1       1.255   6.153  19.501  0.00  0.00    +0.000 HD
ENDBRANCH   5  21
TORSDOF 4
ENDMDL
MODEL 9
REMARK VINA RESULT:      -6.5      3.215      3.881
REMARK  Name = 
REMARK  4 active torsions:
REMARK  status: ('A' for Active; 'I' for Inactive)
REMARK    1  A    between atoms: N_4  and  C_5
REMARK    2  A    between atoms: C_5  and  C_7
REMARK    3  A    between atoms: C_11  and  O_12
REMARK    4  A    between atoms: C_14  and  N_15
REMARK                            x       y       z     vdW  Elec       q    Type
REMARK                         _______ _______ _______ _____ _____    ______ ____
ROOT
ATOM      1  C   UNL     1       4.973   4.669  18.669  0.00  0.00    +0.000 A 
ATOM      2  N   UNL     1       4.347   5.874  18.501  0.00  0.00    +0.000 NA
ATOM      3  C   UNL     1       3.165   5.979  19.133  0.00  0.00    +0.000 A 
ATOM      4 CL   UNL     1       2.378   7.493  18.956  0.00  0.00    +0.000 Cl
ATOM      5  C   UNL     1       2.610   4.947  19.888  0.00  0.00    +0.000 A 
ATOM      6  N   UNL     1       3.220   3.752  20.037  0.00  0.00    +0.000 NA
ATOM      7  C   UNL     1       4.417   3.613  19.420  0.00  0.00    +0.000 A 
ENDROOT
BRANCH   7   8
ATOM      8  N   UNL     1       5.075   2.417  19.702  0.00  0.00    +0.000 N 
ATOM      9  H   UNL     1       5.593   2.516  20.571  0.00  0.00    +0.000 HD
ATOM     10  H   UNL     1       4.456   1.608  19.679  0.00  0.00    +0.000 HD
ENDBRANCH   7   8
BRANCH   1  11
ATOM     11  C   UNL     1       6.280   4.489  17.972  0.00  0.00    +0.000 C 
ATOM     12  O   UNL     1       7.320   4.441  18.637  0.00  0.00    +0.000 OA
BRANCH  11  16
ATOM     13  N   UNL     1       6.741   5.261  14.541  0.00  0.00    +0.000 N 
ATOM     14  C   UNL     1       6.784   5.326  15.890  0.00  0.00    +0.000 C 
ATOM     15  N   UNL     1       7.495   6.397  16.310  0.00  0.00    +0.000 N 
ATOM     16  N   UNL     1       6.223   4.405  16.596  0.00  0.00    +0.000 NA
ATOM     17  H   UNL     1       6.728   6.131  14.031  0.00  0.00    +0.000 HD
ATOM     18  H   UNL     1       6.070   4.581  14.199  0.00  0.00    +0.000 HD
ATOM     19  H   UNL     1       7.416   7.238  15.758  0.00  0.00    +0.000 HD
ATOM     20  H   UNL     1       7.371   6.588  17.306  0.00  0.00    +0.000 HD
ENDBRANCH  11  16
ENDBRANCH   1  11
BRANCH   5  21
ATOM     21  O   UNL     1       1.421   5.069  20.553  0.00  0.00    +0.000 OA
ATOM     22  H   UNL     1       1.459   4.484  21.328  0.00  0.00    +0.000 HD
ENDBRANCH   5  21
TORSDOF 4
ENDMDL
