MODEL 1
REMARK VINA RESULT:      -8.9      0.000      0.000
REMARK  Name = 
REMARK  5 active torsions:
REMARK  status: ('A' for Active; 'I' for Inactive)
REMARK    1  A    between atoms: C_2  and  C_3
REMARK    2  A    between atoms: C_6  and  O_7
REMARK    3  A    between atoms: O_7  and  C_8
REMARK    4  A    between atoms: C_11  and  C_12
REMARK    5  A    between atoms: C_17  and  N_18
REMARK                            x       y       z     vdW  Elec       q    Type
REMARK                         _______ _______ _______ _____ _____    ______ ____
ROOT
ATOM      1  C   UNL     1       0.722   9.621  19.269  0.00  0.00    +0.000 A 
ATOM      2  C   UNL     1       0.958   8.893  20.442  0.00  0.00    +0.000 A 
ATOM      3  C   UNL     1       1.812   7.785  20.423  0.00  0.00    +0.000 A 
ATOM      4  C   UNL     1       2.421   7.391  19.230  0.00  0.00    +0.000 A 
ATOM      5  C   UNL     1       2.273   8.177  18.085  0.00  0.00    +0.000 A 
ATOM      6  C   UNL     1       1.439   9.298  18.111  0.00  0.00    +0.000 A 
ENDROOT
BRANCH   1   8
ATOM      7  O   UNL     1      -0.088  11.594  20.202  0.00  0.00    +0.000 OA
ATOM      8  C   UNL     1      -0.237  10.764  19.310  0.00  0.00    +0.000 C 
ATOM      9  N   UNL     1      -1.262  10.855  18.368  0.00  0.00    +0.000 N 
ATOM     10  C   UNL     1      -2.056  12.086  18.295  0.00  0.00    +0.000 C 
ATOM     11  C   UNL     1      -3.552  11.776  18.396  0.00  0.00    +0.000 C 
ATOM     12  O   UNL     1      -3.949  10.836  17.383  0.00  0.00    +0.000 OA
ATOM     13  C   UNL     1      -3.239   9.602  17.546  0.00  0.00    +0.000 C 
ATOM     14  C   UNL     1      -1.723   9.807  17.447  0.00  0.00    +0.000 C 
ENDBRANCH   1   8
BRANCH   4  15
ATOM     15  O   UNL     1       3.190   6.248  19.279  0.00  0.00    +0.000 OA
BRANCH  15  16
ATOM     16  C   UNL     1       3.833   5.810  18.140  0.00  0.00    +0.000 A 
ATOM     17  C   UNL     1       4.857   6.573  17.549  0.00  0.00    +0.000 A 
ATOM     18  C   UNL     1       5.538   6.122  16.415  0.00  0.00    +0.000 A 
ATOM     19  C   UNL     1       5.181   4.912  15.809  0.00  0.00    +0.000 A 
ATOM     20  C   UNL     1       4.114   4.176  16.350  0.00  0.00    +0.000 A 
ATOM     21  C   UNL     1       3.436   4.622  17.504  0.00  0.00    +0.000 A 
BRANCH  19  22
ATOM     22  C   UNL     1       5.919   4.408  14.587  0.00  0.00    +0.000 C 
ATOM     23  F   UNL     1       6.616   3.261  14.812  0.00  0.00    +0.000 F 
ATOM     24  F   UNL     1       5.075   4.136  13.554  0.00  0.00    +0.000 F 
ATOM     25  F   UNL     1       6.818   5.312  14.116  0.00  0.00    +0.000 F 
ENDBRANCH  19  22
BRANCH  21  26
ATOM     26  N   UNL     1       2.305   3.811  17.996  0.00  0.00    +0.000 N 
ATOM     27  O   UNL     1       1.175   4.001  17.534  0.00  0.00    +0.000 OA
ATOM     28  O   UNL     1       2.559   2.962  18.867  0.00  0.00    +0.000 OA
ENDBRANCH  21  26
ENDBRANCH  15  16
ENDBRANCH   4  15
TORSDOF 5
ENDMDL
MODEL 2
REMARK VINA RESULT:      -8.7      1.510      2.431
REMARK  Name = 
REMARK  5 active torsions:
REMARK  status: ('A' for Active; 'I' for Inactive)
REMARK    1  A    between atoms: C_2  and  C_3
REMARK    2  A    between atoms: C_6  and  O_7
REMARK    3  A    between atoms: O_7  and  C_8
REMARK    4  A    between atoms: C_11  and  C_12
REMARK    5  A    between atoms: C_17  and  N_18
REMARK                            x       y       z     vdW  Elec       q    Type
REMARK                         _______ _______ _______ _____ _____    ______ ____
ROOT
ATOM      1  C   UNL     1       0.703   9.838  19.143  0.00  0.00    +0.000 A 
ATOM      2  C   UNL     1       0.944   9.174  20.353  0.00  0.00    +0.000 A 
ATOM      3  C   UNL     1       1.739   8.023  20.379  0.00  0.00    +0.000 A 
ATOM      4  C   UNL     1       2.282   7.521  19.195  0.00  0.00    +0.000 A 
ATOM      5  C   UNL     1       2.132   8.239  18.006  0.00  0.00    +0.000 A 
ATOM      6  C   UNL     1       1.359   9.401  17.986  0.00  0.00    +0.000 A 
ENDROOT
BRANCH   1   8
ATOM      7  O   UNL     1      -1.373  10.850  18.855  0.00  0.00    +0.000 OA
ATOM      8  C   UNL     1      -0.194  11.030  19.142  0.00  0.00    +0.000 C 
ATOM      9  N   UNL     1       0.317  12.293  19.446  0.00  0.00    +0.000 N 
ATOM     10  C   UNL     1      -0.614  13.408  19.647  0.00  0.00    +0.000 C 
ATOM     11  C   UNL     1      -0.247  14.593  18.750  0.00  0.00    +0.000 C 
ATOM     12  O   UNL     1       1.114  14.999  18.972  0.00  0.00    +0.000 OA
ATOM     13  C   UNL     1       2.010  13.926  18.660  0.00  0.00    +0.000 C 
ATOM     14  C   UNL     1       1.729  12.690  19.522  0.00  0.00    +0.000 C 
ENDBRANCH   1   8
BRANCH   4  15
ATOM     15  O   UNL     1       2.991   6.343  19.293  0.00  0.00    +0.000 OA
BRANCH  15  16
ATOM     16  C   UNL     1       3.689   5.874  18.199  0.00  0.00    +0.000 A 
ATOM     17  C   UNL     1       4.720   6.635  17.618  0.00  0.00    +0.000 A 
ATOM     18  C   UNL     1       5.455   6.155  16.532  0.00  0.00    +0.000 A 
ATOM     19  C   UNL     1       5.148   4.913  15.962  0.00  0.00    +0.000 A 
ATOM     20  C   UNL     1       4.075   4.176  16.490  0.00  0.00    +0.000 A 
ATOM     21  C   UNL     1       3.342   4.653  17.598  0.00  0.00    +0.000 A 
BRANCH  19  22
ATOM     22  C   UNL     1       5.944   4.377  14.792  0.00  0.00    +0.000 C 
ATOM     23  F   UNL     1       7.018   5.150  14.471  0.00  0.00    +0.000 F 
ATOM     24  F   UNL     1       6.439   3.133  15.035  0.00  0.00    +0.000 F 
ATOM     25  F   UNL     1       5.198   4.276  13.661  0.00  0.00    +0.000 F 
ENDBRANCH  19  22
BRANCH  21  26
ATOM     26  N   UNL     1       2.209   3.837  18.078  0.00  0.00    +0.000 N 
ATOM     27  O   UNL     1       1.107   3.946  17.531  0.00  0.00    +0.000 OA
ATOM     28  O   UNL     1       2.434   3.067  19.027  0.00  0.00    +0.000 OA
ENDBRANCH  21  26
ENDBRANCH  15  16
ENDBRANCH   4  15
TORSDOF 5
ENDMDL
MODEL 3
REMARK VINA RESULT:      -8.6      0.278      1.333
REMARK  Name = 
REMARK  5 active torsions:
REMARK  status: ('A' for Active; 'I' for Inactive)
REMARK    1  A    between atoms: C_2  and  C_3
REMARK    2  A    between atoms: C_6  and  O_7
REMARK    3  A    between atoms: O_7  and  C_8
REMARK    4  A    between atoms: C_11  and  C_12
REMARK    5  A    between atoms: C_17  and  N_18
REMARK                            x       y       z     vdW  Elec       q    Type
REMARK                         _______ _______ _______ _____ _____    ______ ____
ROOT
ATOM      1  C   UNL     1       0.914   9.458  19.240  0.00  0.00    +0.000 A 
ATOM      2  C   UNL     1       1.595   9.010  18.101  0.00  0.00    +0.000 A 
ATOM      3  C   UNL     1       2.409   7.873  18.168  0.00  0.00    +0.000 A 
ATOM      4  C   UNL     1       2.558   7.191  19.377  0.00  0.00    +0.000 A 
ATOM      5  C   UNL     1       1.798   7.571  20.485  0.00  0.00    +0.000 A 
ATOM      6  C   UNL     1       0.967   8.691  20.410  0.00  0.00    +0.000 A 
ENDROOT
BRANCH   1   8
ATOM      7  O   UNL     1       0.375  11.618  19.919  0.00  0.00    +0.000 OA
ATOM      8  C   UNL     1       0.098  10.704  19.148  0.00  0.00    +0.000 C 
ATOM      9  N   UNL     1      -0.940  10.798  18.221  0.00  0.00    +0.000 N 
ATOM     10  C   UNL     1      -1.585  12.097  18.001  0.00  0.00    +0.000 C 
ATOM     11  C   UNL     1      -3.103  11.987  18.170  0.00  0.00    +0.000 C 
ATOM     12  O   UNL     1      -3.642  10.980  17.297  0.00  0.00    +0.000 OA
ATOM     13  C   UNL     1      -3.078   9.700  17.607  0.00  0.00    +0.000 C 
ATOM     14  C   UNL     1      -1.553   9.704  17.455  0.00  0.00    +0.000 C 
ENDBRANCH   1   8
BRANCH   4  15
ATOM     15  O   UNL     1       3.433   6.126  19.379  0.00  0.00    +0.000 OA
BRANCH  15  16
ATOM     16  C   UNL     1       4.009   5.714  18.195  0.00  0.00    +0.000 A 
ATOM     17  C   UNL     1       5.049   6.452  17.601  0.00  0.00    +0.000 A 
ATOM     18  C   UNL     1       5.662   6.025  16.420  0.00  0.00    +0.000 A 
ATOM     19  C   UNL     1       5.217   4.867  15.769  0.00  0.00    +0.000 A 
ATOM     20  C   UNL     1       4.133   4.162  16.316  0.00  0.00    +0.000 A 
ATOM     21  C   UNL     1       3.524   4.583  17.518  0.00  0.00    +0.000 A 
BRANCH  19  22
ATOM     22  C   UNL     1       5.880   4.389  14.496  0.00  0.00    +0.000 C 
ATOM     23  F   UNL     1       5.012   4.244  13.458  0.00  0.00    +0.000 F 
ATOM     24  F   UNL     1       6.840   5.252  14.062  0.00  0.00    +0.000 F 
ATOM     25  F   UNL     1       6.492   3.186  14.651  0.00  0.00    +0.000 F 
ENDBRANCH  19  22
BRANCH  21  26
ATOM     26  N   UNL     1       2.370   3.807  18.015  0.00  0.00    +0.000 N 
ATOM     27  O   UNL     1       2.546   2.946  18.883  0.00  0.00    +0.000 OA
ATOM     28  O   UNL     1       1.261   4.071  17.521  0.00  0.00    +0.000 OA
ENDBRANCH  21  26
ENDBRANCH  15  16
ENDBRANCH   4  15
TORSDOF 5
ENDMDL
MODEL 4
REMARK VINA RESULT:      -8.5      1.532      2.706
REMARK  Name = 
REMARK  5 active torsions:
REMARK  status: ('A' for Active; 'I' for Inactive)
REMARK    1  A    between atoms: C_2  and  C_3
REMARK    2  A    between atoms: C_6  and  O_7
REMARK    3  A    between atoms: O_7  and  C_8
REMARK    4  A    between atoms: C_11  and  C_12
REMARK    5  A    between atoms: C_17  and  N_18
REMARK                            x       y       z     vdW  Elec       q    Type
REMARK                         _______ _______ _______ _____ _____    ______ ____
ROOT
ATOM      1  C   UNL     1       0.769   9.745  18.983  0.00  0.00    +0.000 A 
ATOM      2  C   UNL     1       1.410   9.174  17.876  0.00  0.00    +0.000 A 
ATOM      3  C   UNL     1       2.196   8.027  18.031  0.00  0.00    +0.000 A 
ATOM      4  C   UNL     1       2.358   7.456  19.295  0.00  0.00    +0.000 A 
ATOM      5  C   UNL     1       1.636   7.959  20.379  0.00  0.00    +0.000 A 
ATOM      6  C   UNL     1       0.832   9.090  20.218  0.00  0.00    +0.000 A 
ENDROOT
BRANCH   1   8
ATOM      7  O   UNL     1      -1.028  10.933  18.100  0.00  0.00    +0.000 OA
ATOM      8  C   UNL     1      -0.017  10.999  18.793  0.00  0.00    +0.000 C 
ATOM      9  N   UNL     1       0.408  12.191  19.382  0.00  0.00    +0.000 N 
ATOM     10  C   UNL     1      -0.485  13.354  19.361  0.00  0.00    +0.000 C 
ATOM     11  C   UNL     1       0.226  14.576  18.772  0.00  0.00    +0.000 C 
ATOM     12  O   UNL     1       1.438  14.858  19.491  0.00  0.00    +0.000 OA
ATOM     13  C   UNL     1       2.339  13.748  19.401  0.00  0.00    +0.000 C 
ATOM     14  C   UNL     1       1.720  12.471  19.981  0.00  0.00    +0.000 C 
ENDBRANCH   1   8
BRANCH   4  15
ATOM     15  O   UNL     1       3.206   6.373  19.377  0.00  0.00    +0.000 OA
BRANCH  15  16
ATOM     16  C   UNL     1       3.823   5.901  18.237  0.00  0.00    +0.000 A 
ATOM     17  C   UNL     1       4.817   6.656  17.588  0.00  0.00    +0.000 A 
ATOM     18  C   UNL     1       5.472   6.173  16.451  0.00  0.00    +0.000 A 
ATOM     19  C   UNL     1       5.116   4.934  15.902  0.00  0.00    +0.000 A 
ATOM     20  C   UNL     1       4.077   4.205  16.502  0.00  0.00    +0.000 A 
ATOM     21  C   UNL     1       3.426   4.684  17.659  0.00  0.00    +0.000 A 
BRANCH  19  22
ATOM     22  C   UNL     1       5.826   4.396  14.679  0.00  0.00    +0.000 C 
ATOM     23  F   UNL     1       5.010   4.262  13.597  0.00  0.00    +0.000 F 
ATOM     24  F   UNL     1       6.845   5.204  14.279  0.00  0.00    +0.000 F 
ATOM     25  F   UNL     1       6.373   3.172  14.895  0.00  0.00    +0.000 F 
ENDBRANCH  19  22
BRANCH  21  26
ATOM     26  N   UNL     1       2.323   3.876  18.214  0.00  0.00    +0.000 N 
ATOM     27  O   UNL     1       1.211   3.915  17.678  0.00  0.00    +0.000 OA
ATOM     28  O   UNL     1       2.581   3.183  19.213  0.00  0.00    +0.000 OA
ENDBRANCH  21  26
ENDBRANCH  15  16
ENDBRANCH   4  15
TORSDOF 5
ENDMDL
MODEL 5
REMARK VINA RESULT:      -8.4      1.656      2.531
REMARK  Name = 
REMARK  5 active torsions:
REMARK  status: ('A' for Active; 'I' for Inactive)
REMARK    1  A    between atoms: C_2  and  C_3
REMARK    2  A    between atoms: C_6  and  O_7
REMARK    3  A    between atoms: O_7  and  C_8
REMARK    4  A    between atoms: C_11  and  C_12
REMARK    5  A    between atoms: C_17  and  N_18
REMARK                            x       y       z     vdW  Elec       q    Type
REMARK                         _______ _______ _______ _____ _____    ______ ____
ROOT
ATOM      1  C   UNL     1       0.837   9.912  18.979  0.00  0.00    +0.000 A 
ATOM      2  C   UNL     1       1.013   9.267  20.210  0.00  0.00    +0.000 A 
ATOM      3  C   UNL     1       1.753   8.082  20.285  0.00  0.00    +0.000 A 
ATOM      4  C   UNL     1       2.305   7.528  19.129  0.00  0.00    +0.000 A 
ATOM      5  C   UNL     1       2.222   8.223  17.921  0.00  0.00    +0.000 A 
ATOM      6  C   UNL     1       1.504   9.419  17.851  0.00  0.00    +0.000 A 
ENDROOT
BRANCH   1   8
ATOM      7  O   UNL     1      -1.183  11.010  18.611  0.00  0.00    +0.000 OA
ATOM      8  C   UNL     1      -0.004  11.144  18.924  0.00  0.00    +0.000 C 
ATOM      9  N   UNL     1       0.557  12.389  19.212  0.00  0.00    +0.000 N 
ATOM     10  C   UNL     1      -0.327  13.551  19.360  0.00  0.00    +0.000 C 
ATOM     11  C   UNL     1       0.117  14.694  18.444  0.00  0.00    +0.000 C 
ATOM     12  O   UNL     1       1.489  15.044  18.692  0.00  0.00    +0.000 OA
ATOM     13  C   UNL     1       2.342  13.923  18.431  0.00  0.00    +0.000 C 
ATOM     14  C   UNL     1       1.984  12.723  19.315  0.00  0.00    +0.000 C 
ENDBRANCH   1   8
BRANCH   4  15
ATOM     15  O   UNL     1       2.957   6.322  19.274  0.00  0.00    +0.000 OA
BRANCH  15  16
ATOM     16  C   UNL     1       3.741   5.842  18.246  0.00  0.00    +0.000 A 
ATOM     17  C   UNL     1       4.842   6.579  17.773  0.00  0.00    +0.000 A 
ATOM     18  C   UNL     1       5.664   6.088  16.755  0.00  0.00    +0.000 A 
ATOM     19  C   UNL     1       5.378   4.859  16.146  0.00  0.00    +0.000 A 
ATOM     20  C   UNL     1       4.241   4.148  16.563  0.00  0.00    +0.000 A 
ATOM     21  C   UNL     1       3.420   4.636  17.602  0.00  0.00    +0.000 A 
BRANCH  19  22
ATOM     22  C   UNL     1       6.267   4.311  15.050  0.00  0.00    +0.000 C 
ATOM     23  F   UNL     1       6.193   2.958  14.922  0.00  0.00    +0.000 F 
ATOM     24  F   UNL     1       5.949   4.820  13.829  0.00  0.00    +0.000 F 
ATOM     25  F   UNL     1       7.578   4.602  15.254  0.00  0.00    +0.000 F 
ENDBRANCH  19  22
BRANCH  21  26
ATOM     26  N   UNL     1       2.226   3.848  17.965  0.00  0.00    +0.000 N 
ATOM     27  O   UNL     1       2.305   3.006  18.866  0.00  0.00    +0.000 OA
ATOM     28  O   UNL     1       1.184   4.082  17.331  0.00  0.00    +0.000 OA
ENDBRANCH  21  26
ENDBRANCH  15  16
ENDBRANCH   4  15
TORSDOF 5
ENDMDL
MODEL 6
REMARK VINA RESULT:      -8.2      4.826      8.801
REMARK  Name = 
REMARK  5 active torsions:
REMARK  status: ('A' for Active; 'I' for Inactive)
REMARK    1  A    between atoms: C_2  and  C_3
REMARK    2  A    between atoms: C_6  and  O_7
REMARK    3  A    between atoms: O_7  and  C_8
REMARK    4  A    between atoms: C_11  and  C_12
REMARK    5  A    between atoms: C_17  and  N_18
REMARK                            x       y       z     vdW  Elec       q    Type
REMARK                         _______ _______ _______ _____ _____    ______ ____
ROOT
ATOM      1  C   UNL     1       2.690   6.810  19.380  0.00  0.00    +0.000 A 
ATOM      2  C   UNL     1       1.961   7.324  20.461  0.00  0.00    +0.000 A 
ATOM      3  C   UNL     1       1.334   8.571  20.359  0.00  0.00    +0.000 A 
ATOM      4  C   UNL     1       1.447   9.316  19.184  0.00  0.00    +0.000 A 
ATOM      5  C   UNL     1       2.082   8.761  18.071  0.00  0.00    +0.000 A 
ATOM      6  C   UNL     1       2.686   7.506  18.165  0.00  0.00    +0.000 A 
ENDROOT
BRANCH   1   8
ATOM      7  O   UNL     1       4.619   5.513  19.500  0.00  0.00    +0.000 OA
ATOM      8  C   UNL     1       3.392   5.504  19.541  0.00  0.00    +0.000 C 
ATOM      9  N   UNL     1       2.659   4.329  19.718  0.00  0.00    +0.000 N 
ATOM     10  C   UNL     1       3.365   3.097  20.084  0.00  0.00    +0.000 C 
ATOM     11  C   UNL     1       3.023   1.964  19.114  0.00  0.00    +0.000 C 
ATOM     12  O   UNL     1       1.602   1.756  19.052  0.00  0.00    +0.000 OA
ATOM     13  C   UNL     1       0.946   2.940  18.584  0.00  0.00    +0.000 C 
ATOM     14  C   UNL     1       1.219   4.136  19.502  0.00  0.00    +0.000 C 
ENDBRANCH   1   8
BRANCH   4  15
ATOM     15  O   UNL     1       0.864  10.565  19.189  0.00  0.00    +0.000 OA
BRANCH  15  16
ATOM     16  C   UNL     1      -0.442  10.709  18.769  0.00  0.00    +0.000 A 
ATOM     17  C   UNL     1      -0.931   9.985  17.666  0.00  0.00    +0.000 A 
ATOM     18  C   UNL     1      -2.261  10.099  17.253  0.00  0.00    +0.000 A 
ATOM     19  C   UNL     1      -3.133  10.980  17.905  0.00  0.00    +0.000 A 
ATOM     20  C   UNL     1      -2.636  11.760  18.962  0.00  0.00    +0.000 A 
ATOM     21  C   UNL     1      -1.297  11.634  19.391  0.00  0.00    +0.000 A 
BRANCH  19  22
ATOM     22  C   UNL     1      -4.578  11.104  17.474  0.00  0.00    +0.000 C 
ATOM     23  F   UNL     1      -4.785  10.759  16.174  0.00  0.00    +0.000 F 
ATOM     24  F   UNL     1      -5.402  10.306  18.207  0.00  0.00    +0.000 F 
ATOM     25  F   UNL     1      -5.053  12.369  17.611  0.00  0.00    +0.000 F 
ENDBRANCH  19  22
BRANCH  21  26
ATOM     26  N   UNL     1      -0.839  12.509  20.488  0.00  0.00    +0.000 N 
ATOM     27  O   UNL     1      -0.428  13.645  20.229  0.00  0.00    +0.000 OA
ATOM     28  O   UNL     1      -0.895  12.043  21.639  0.00  0.00    +0.000 OA
ENDBRANCH  21  26
ENDBRANCH  15  16
ENDBRANCH   4  15
TORSDOF 5
ENDMDL
MODEL 7
REMARK VINA RESULT:      -8.1      0.797      1.112
REMARK  Name = 
REMARK  5 active torsions:
REMARK  status: ('A' for Active; 'I' for Inactive)
REMARK    1  A    between atoms: C_2  and  C_3
REMARK    2  A    between atoms: C_6  and  O_7
REMARK    3  A    between atoms: O_7  and  C_8
REMARK    4  A    between atoms: C_11  and  C_12
REMARK    5  A    between atoms: C_17  and  N_18
REMARK                            x       y       z     vdW  Elec       q    Type
REMARK                         _______ _______ _______ _____ _____    ______ ____
ROOT
ATOM      1  C   UNL     1       0.785   9.534  19.378  0.00  0.00    +0.000 A 
ATOM      2  C   UNL     1       0.989   8.804  20.555  0.00  0.00    +0.000 A 
ATOM      3  C   UNL     1       1.811   7.671  20.549  0.00  0.00    +0.000 A 
ATOM      4  C   UNL     1       2.418   7.255  19.362  0.00  0.00    +0.000 A 
ATOM      5  C   UNL     1       2.303   8.041  18.213  0.00  0.00    +0.000 A 
ATOM      6  C   UNL     1       1.502   9.185  18.228  0.00  0.00    +0.000 A 
ENDROOT
BRANCH   1   8
ATOM      7  O   UNL     1       0.009  11.520  20.311  0.00  0.00    +0.000 OA
ATOM      8  C   UNL     1      -0.141  10.704  19.407  0.00  0.00    +0.000 C 
ATOM      9  N   UNL     1      -1.136  10.836  18.438  0.00  0.00    +0.000 N 
ATOM     10  C   UNL     1      -1.891  12.092  18.358  0.00  0.00    +0.000 C 
ATOM     11  C   UNL     1      -3.398  11.826  18.415  0.00  0.00    +0.000 C 
ATOM     12  O   UNL     1      -3.794  10.909  17.381  0.00  0.00    +0.000 OA
ATOM     13  C   UNL     1      -3.126   9.653  17.548  0.00  0.00    +0.000 C 
ATOM     14  C   UNL     1      -1.603   9.813  17.493  0.00  0.00    +0.000 C 
ENDBRANCH   1   8
BRANCH   4  15
ATOM     15  O   UNL     1       3.152   6.090  19.422  0.00  0.00    +0.000 OA
BRANCH  15  16
ATOM     16  C   UNL     1       3.925   5.715  18.343  0.00  0.00    +0.000 A 
ATOM     17  C   UNL     1       4.294   6.649  17.358  0.00  0.00    +0.000 A 
ATOM     18  C   UNL     1       5.104   6.287  16.278  0.00  0.00    +0.000 A 
ATOM     19  C   UNL     1       5.533   4.962  16.127  0.00  0.00    +0.000 A 
ATOM     20  C   UNL     1       5.113   4.007  17.067  0.00  0.00    +0.000 A 
ATOM     21  C   UNL     1       4.307   4.375  18.166  0.00  0.00    +0.000 A 
BRANCH  19  22
ATOM     22  C   UNL     1       6.420   4.561  14.969  0.00  0.00    +0.000 C 
ATOM     23  F   UNL     1       6.107   3.344  14.445  0.00  0.00    +0.000 F 
ATOM     24  F   UNL     1       6.344   5.443  13.935  0.00  0.00    +0.000 F 
ATOM     25  F   UNL     1       7.731   4.498  15.319  0.00  0.00    +0.000 F 
ENDBRANCH  19  22
BRANCH  21  26
ATOM     26  N   UNL     1       3.881   3.310  19.096  0.00  0.00    +0.000 N 
ATOM     27  O   UNL     1       4.707   2.808  19.865  0.00  0.00    +0.000 OA
ATOM     28  O   UNL     1       2.687   2.969  19.051  0.00  0.00    +0.000 OA
ENDBRANCH  21  26
ENDBRANCH  15  16
ENDBRANCH   4  15
TORSDOF 5
ENDMDL
MODEL 8
REMARK VINA RESULT:      -8.0      4.598      8.837
REMARK  Name = 
REMARK  5 active torsions:
REMARK  status: ('A' for Active; 'I' for Inactive)
REMARK    1  A    between atoms: C_2  and  C_3
REMARK    2  A    between atoms: C_6  and  O_7
REMARK    3  A    between atoms: O_7  and  C_8
REMARK    4  A    between atoms: C_11  and  C_12
REMARK    5  A    between atoms: C_17  and  N_18
REMARK                            x       y       z     vdW  Elec       q    Type
REMARK                         _______ _______ _______ _____ _____    ______ ____
ROOT
ATOM      1  C   UNL     1       2.667   6.952  18.693  0.00  0.00    +0.000 A 
ATOM      2  C   UNL     1       2.614   8.000  17.765  0.00  0.00    +0.000 A 
ATOM      3  C   UNL     1       1.940   9.186  18.079  0.00  0.00    +0.000 A 
ATOM      4  C   UNL     1       1.304   9.323  19.314  0.00  0.00    +0.000 A 
ATOM      5  C   UNL     1       1.446   8.325  20.280  0.00  0.00    +0.000 A 
ATOM      6  C   UNL     1       2.140   7.151  19.975  0.00  0.00    +0.000 A 
ENDROOT
BRANCH   1   8
ATOM      7  O   UNL     1       4.253   5.753  17.484  0.00  0.00    +0.000 OA
ATOM      8  C   UNL     1       3.346   5.681  18.307  0.00  0.00    +0.000 C 
ATOM      9  N   UNL     1       2.938   4.469  18.866  0.00  0.00    +0.000 N 
ATOM     10  C   UNL     1       3.751   3.270  18.638  0.00  0.00    +0.000 C 
ATOM     11  C   UNL     1       2.897   2.132  18.071  0.00  0.00    +0.000 C 
ATOM     12  O   UNL     1       1.781   1.853  18.933  0.00  0.00    +0.000 OA
ATOM     13  C   UNL     1       0.942   3.008  19.049  0.00  0.00    +0.000 C 
ATOM     14  C   UNL     1       1.707   4.206  19.624  0.00  0.00    +0.000 C 
ENDBRANCH   1   8
BRANCH   4  15
ATOM     15  O   UNL     1       0.600  10.490  19.519  0.00  0.00    +0.000 OA
BRANCH  15  16
ATOM     16  C   UNL     1      -0.625  10.664  18.910  0.00  0.00    +0.000 A 
ATOM     17  C   UNL     1      -0.969   9.935  17.757  0.00  0.00    +0.000 A 
ATOM     18  C   UNL     1      -2.221  10.079  17.152  0.00  0.00    +0.000 A 
ATOM     19  C   UNL     1      -3.152  10.995  17.659  0.00  0.00    +0.000 A 
ATOM     20  C   UNL     1      -2.792  11.778  18.768  0.00  0.00    +0.000 A 
ATOM     21  C   UNL     1      -1.534  11.622  19.389  0.00  0.00    +0.000 A 
BRANCH  19  22
ATOM     22  C   UNL     1      -4.514  11.151  17.019  0.00  0.00    +0.000 C 
ATOM     23  F   UNL     1      -4.564  10.697  15.737  0.00  0.00    +0.000 F 
ATOM     24  F   UNL     1      -5.479  10.468  17.694  0.00  0.00    +0.000 F 
ATOM     25  F   UNL     1      -4.922  12.446  16.979  0.00  0.00    +0.000 F 
ENDBRANCH  19  22
BRANCH  21  26
ATOM     26  N   UNL     1      -1.216  12.501  20.531  0.00  0.00    +0.000 N 
ATOM     27  O   UNL     1      -1.437  12.108  21.681  0.00  0.00    +0.000 OA
ATOM     28  O   UNL     1      -0.731  13.614  20.266  0.00  0.00    +0.000 OA
ENDBRANCH  21  26
ENDBRANCH  15  16
ENDBRANCH   4  15
TORSDOF 5
ENDMDL
MODEL 9
REMARK VINA RESULT:      -8.0      4.524      9.106
REMARK  Name = 
REMARK  5 active torsions:
REMARK  status: ('A' for Active; 'I' for Inactive)
REMARK    1  A    between atoms: C_2  and  C_3
REMARK    2  A    between atoms: C_6  and  O_7
REMARK    3  A    between atoms: O_7  and  C_8
REMARK    4  A    between atoms: C_11  and  C_12
REMARK    5  A    between atoms: C_17  and  N_18
REMARK                            x       y       z     vdW  Elec       q    Type
REMARK                         _______ _______ _______ _____ _____    ______ ____
ROOT
ATOM      1  C   UNL     1       2.793   6.960  18.307  0.00  0.00    +0.000 A 
ATOM      2  C   UNL     1       2.656   8.081  17.478  0.00  0.00    +0.000 A 
ATOM      3  C   UNL     1       1.967   9.212  17.931  0.00  0.00    +0.000 A 
ATOM      4  C   UNL     1       1.398   9.220  19.206  0.00  0.00    +0.000 A 
ATOM      5  C   UNL     1       1.624   8.148  20.071  0.00  0.00    +0.000 A 
ATOM      6  C   UNL     1       2.334   7.030  19.627  0.00  0.00    +0.000 A 
ENDROOT
BRANCH   1   8
ATOM      7  O   UNL     1       2.923   4.669  17.915  0.00  0.00    +0.000 OA
ATOM      8  C   UNL     1       3.486   5.751  17.774  0.00  0.00    +0.000 C 
ATOM      9  N   UNL     1       4.731   5.870  17.154  0.00  0.00    +0.000 N 
ATOM     10  C   UNL     1       5.292   4.710  16.453  0.00  0.00    +0.000 C 
ATOM     11  C   UNL     1       6.705   4.401  16.955  0.00  0.00    +0.000 C 
ATOM     12  O   UNL     1       7.555   5.553  16.828  0.00  0.00    +0.000 OA
ATOM     13  C   UNL     1       7.044   6.637  17.612  0.00  0.00    +0.000 C 
ATOM     14  C   UNL     1       5.630   7.032  17.174  0.00  0.00    +0.000 C 
ENDBRANCH   1   8
BRANCH   4  15
ATOM     15  O   UNL     1       0.673  10.341  19.549  0.00  0.00    +0.000 OA
BRANCH  15  16
ATOM     16  C   UNL     1      -0.563  10.556  18.977  0.00  0.00    +0.000 A 
ATOM     17  C   UNL     1      -0.956   9.857  17.821  0.00  0.00    +0.000 A 
ATOM     18  C   UNL     1      -2.219  10.043  17.252  0.00  0.00    +0.000 A 
ATOM     19  C   UNL     1      -3.113  10.972  17.799  0.00  0.00    +0.000 A 
ATOM     20  C   UNL     1      -2.704  11.725  18.912  0.00  0.00    +0.000 A 
ATOM     21  C   UNL     1      -1.434  11.527  19.496  0.00  0.00    +0.000 A 
BRANCH  19  22
ATOM     22  C   UNL     1      -4.487  11.173  17.199  0.00  0.00    +0.000 C 
ATOM     23  F   UNL     1      -5.464  10.476  17.841  0.00  0.00    +0.000 F 
ATOM     24  F   UNL     1      -4.876  12.477  17.233  0.00  0.00    +0.000 F 
ATOM     25  F   UNL     1      -4.543  10.793  15.896  0.00  0.00    +0.000 F 
ENDBRANCH  19  22
BRANCH  21  26
ATOM     26  N   UNL     1      -1.064  12.378  20.645  0.00  0.00    +0.000 N 
ATOM     27  O   UNL     1      -1.288  11.980  21.793  0.00  0.00    +0.000 OA
ATOM     28  O   UNL     1      -0.534  13.471  20.387  0.00  0.00    +0.000 OA
ENDBRANCH  21  26
ENDBRANCH  15  16
ENDBRANCH   4  15
TORSDOF 5
ENDMDL
