MODEL 1
REMARK VINA RESULT:      -8.5      0.000      0.000
REMARK  Name = 
REMARK  8 active torsions:
REMARK  status: ('A' for Active; 'I' for Inactive)
REMARK    1  A    between atoms: N_3  and  C_4
REMARK    2  A    between atoms: C_4  and  C_5
REMARK    3  A    between atoms: C_5  and  C_6
REMARK    4  A    between atoms: C_6  and  O_7
REMARK    5  A    between atoms: O_7  and  C_8
REMARK    6  A    between atoms: C_15  and  O_16
REMARK    7  A    between atoms: N_25  and  C_26
REMARK    8  A    between atoms: C_26  and  C_27
REMARK                            x       y       z     vdW  Elec       q    Type
REMARK                         _______ _______ _______ _____ _____    ______ ____
ROOT
ATOM      1  C   UNL     1       3.402   3.300  20.498  0.00  0.00    +0.000 C 
ENDROOT
BRANCH   1   4
ATOM      2  O   UNL     1       5.917   4.302  19.976  0.00  0.00    +0.000 OA
ATOM      3  C   UNL     1       5.218   4.009  19.011  0.00  0.00    +0.000 C 
ATOM      4  N   UNL     1       3.951   3.503  19.168  0.00  0.00    +0.000 N 
ATOM      5  N   UNL     1       5.629   4.192  17.705  0.00  0.00    +0.000 N 
ATOM      6  C   UNL     1       4.843   3.957  16.484  0.00  0.00    +0.000 C 
ATOM      7  C   UNL     1       4.860   5.184  15.546  0.00  0.00    +0.000 C 
ATOM      8  N   UNL     1       6.207   5.712  15.225  0.00  0.00    +0.000 NA
ATOM      9  C   UNL     1       6.892   5.978  16.521  0.00  0.00    +0.000 C 
ATOM     10  C   UNL     1       6.962   4.758  17.468  0.00  0.00    +0.000 C 
ATOM     11  H   UNL     1       3.684   2.822  18.476  0.00  0.00    +0.000 HD
BRANCH   8  12
ATOM     12  C   UNL     1       7.024   4.814  14.381  0.00  0.00    +0.000 C 
BRANCH  12  13
ATOM     13  C   UNL     1       6.466   4.475  12.968  0.00  0.00    +0.000 C 
ATOM     14  C   UNL     1       7.568   4.148  11.940  0.00  0.00    +0.000 C 
ATOM     15  C   UNL     1       7.853   2.664  11.683  0.00  0.00    +0.000 C 
ATOM     16  C   UNL     1       6.892   2.016  10.680  0.00  0.00    +0.000 C 
ATOM     17  C   UNL     1       5.484   1.742  11.195  0.00  0.00    +0.000 C 
ATOM     18  C   UNL     1       4.771   2.949  11.792  0.00  0.00    +0.000 C 
ATOM     19  C   UNL     1       5.382   3.392  13.117  0.00  0.00    +0.000 C 
ENDBRANCH  12  13
ENDBRANCH   8  12
ENDBRANCH   1   4
BRANCH   1  20
ATOM     20  C   UNL     1       1.875   3.324  20.532  0.00  0.00    +0.000 C 
BRANCH  20  21
ATOM     21  C   UNL     1       1.321   4.746  20.503  0.00  0.00    +0.000 C 
BRANCH  21  22
ATOM     22  O   UNL     1       2.414   5.665  20.435  0.00  0.00    +0.000 OA
BRANCH  22  23
ATOM     23  C   UNL     1       2.188   6.851  19.788  0.00  0.00    +0.000 A 
ATOM     24  C   UNL     1       2.546   7.143  18.469  0.00  0.00    +0.000 A 
ATOM     25  C   UNL     1       2.226   8.383  17.903  0.00  0.00    +0.000 A 
ATOM     26  C   UNL     1       1.535   9.341  18.646  0.00  0.00    +0.000 A 
ATOM     27  N   UNL     1       1.160  10.567  18.068  0.00  0.00    +0.000 N 
ATOM     28  C   UNL     1       0.400  11.435  18.797  0.00  0.00    +0.000 A 
ATOM     29  N   UNL     1      -0.135  12.570  18.441  0.00  0.00    +0.000 NA
ATOM     30  C   UNL     1      -0.772  12.963  19.590  0.00  0.00    +0.000 A 
ATOM     31  N   UNL     1      -0.705  12.228  20.658  0.00  0.00    +0.000 NA
ATOM     32  C   UNL     1       0.042  11.183  20.209  0.00  0.00    +0.000 A 
ATOM     33  C   UNL     1       0.445  10.055  20.796  0.00  0.00    +0.000 A 
ATOM     34  C   UNL     1       1.194   9.060  19.997  0.00  0.00    +0.000 A 
ATOM     35  C   UNL     1       1.532   7.821  20.553  0.00  0.00    +0.000 A 
ATOM     36  H   UNL     1       1.367  10.766  17.103  0.00  0.00    +0.000 HD
BRANCH  30  37
ATOM     37  O   UNL     1      -1.437  14.112  19.485  0.00  0.00    +0.000 OA
ATOM     38  H   UNL     1      -1.300  14.591  20.314  0.00  0.00    +0.000 HD
ENDBRANCH  30  37
ENDBRANCH  22  23
ENDBRANCH  21  22
ENDBRANCH  20  21
ENDBRANCH   1  20
TORSDOF 8
ENDMDL
MODEL 2
REMARK VINA RESULT:      -8.0      4.772     10.303
REMARK  Name = 
REMARK  8 active torsions:
REMARK  status: ('A' for Active; 'I' for Inactive)
REMARK    1  A    between atoms: N_3  and  C_4
REMARK    2  A    between atoms: C_4  and  C_5
REMARK    3  A    between atoms: C_5  and  C_6
REMARK    4  A    between atoms: C_6  and  O_7
REMARK    5  A    between atoms: O_7  and  C_8
REMARK    6  A    between atoms: C_15  and  O_16
REMARK    7  A    between atoms: N_25  and  C_26
REMARK    8  A    between atoms: C_26  and  C_27
REMARK                            x       y       z     vdW  Elec       q    Type
REMARK                         _______ _______ _______ _____ _____    ______ ____
ROOT
ATOM      1  C   UNL     1      -1.008  12.133  18.199  0.00  0.00    +0.000 C 
ENDROOT
BRANCH   1   4
ATOM      2  O   UNL     1      -0.216  13.951  20.113  0.00  0.00    +0.000 OA
ATOM      3  C   UNL     1       0.606  13.648  19.253  0.00  0.00    +0.000 C 
ATOM      4  N   UNL     1       0.306  12.751  18.258  0.00  0.00    +0.000 N 
ATOM      5  N   UNL     1       1.872  14.200  19.197  0.00  0.00    +0.000 N 
ATOM      6  C   UNL     1       2.895  13.973  18.167  0.00  0.00    +0.000 C 
ATOM      7  C   UNL     1       3.442  15.301  17.599  0.00  0.00    +0.000 C 
ATOM      8  N   UNL     1       3.908  16.275  18.614  0.00  0.00    +0.000 NA
ATOM      9  C   UNL     1       2.782  16.485  19.567  0.00  0.00    +0.000 C 
ATOM     10  C   UNL     1       2.244  15.189  20.215  0.00  0.00    +0.000 C 
ATOM     11  H   UNL     1       1.077  12.169  17.973  0.00  0.00    +0.000 HD
BRANCH   8  12
ATOM     12  C   UNL     1       5.128  15.859  19.338  0.00  0.00    +0.000 C 
BRANCH  12  13
ATOM     13  C   UNL     1       6.463  15.883  18.538  0.00  0.00    +0.000 C 
ATOM     14  C   UNL     1       7.258  17.192  18.716  0.00  0.00    +0.000 C 
ATOM     15  C   UNL     1       8.401  17.172  19.738  0.00  0.00    +0.000 C 
ATOM     16  C   UNL     1       9.708  16.594  19.189  0.00  0.00    +0.000 C 
ATOM     17  C   UNL     1       9.738  15.081  19.004  0.00  0.00    +0.000 C 
ATOM     18  C   UNL     1       8.602  14.514  18.160  0.00  0.00    +0.000 C 
ATOM     19  C   UNL     1       7.252  14.602  18.864  0.00  0.00    +0.000 C 
ENDBRANCH  12  13
ENDBRANCH   8  12
ENDBRANCH   1   4
BRANCH   1  20
ATOM     20  C   UNL     1      -0.962  10.608  18.280  0.00  0.00    +0.000 C 
BRANCH  20  21
ATOM     21  C   UNL     1      -0.628  10.116  19.686  0.00  0.00    +0.000 C 
BRANCH  21  22
ATOM     22  O   UNL     1       0.792  10.126  19.852  0.00  0.00    +0.000 OA
BRANCH  22  23
ATOM     23  C   UNL     1       1.493   9.108  19.261  0.00  0.00    +0.000 A 
ATOM     24  C   UNL     1       2.153   9.177  18.031  0.00  0.00    +0.000 A 
ATOM     25  C   UNL     1       2.873   8.078  17.547  0.00  0.00    +0.000 A 
ATOM     26  C   UNL     1       2.947   6.900  18.292  0.00  0.00    +0.000 A 
ATOM     27  N   UNL     1       3.713   5.810  17.841  0.00  0.00    +0.000 N 
ATOM     28  C   UNL     1       3.841   4.715  18.645  0.00  0.00    +0.000 A 
ATOM     29  N   UNL     1       4.565   3.643  18.478  0.00  0.00    +0.000 NA
ATOM     30  C   UNL     1       4.279   2.921  19.608  0.00  0.00    +0.000 A 
ATOM     31  N   UNL     1       3.443   3.386  20.485  0.00  0.00    +0.000 NA
ATOM     32  C   UNL     1       3.121   4.585  19.929  0.00  0.00    +0.000 A 
ATOM     33  C   UNL     1       2.336   5.581  20.343  0.00  0.00    +0.000 A 
ATOM     34  C   UNL     1       2.253   6.814  19.530  0.00  0.00    +0.000 A 
ATOM     35  C   UNL     1       1.528   7.917  19.995  0.00  0.00    +0.000 A 
ATOM     36  H   UNL     1       4.235   5.869  16.981  0.00  0.00    +0.000 HD
BRANCH  30  37
ATOM     37  O   UNL     1       4.928   1.762  19.699  0.00  0.00    +0.000 OA
ATOM     38  H   UNL     1       4.363   1.092  19.289  0.00  0.00    +0.000 HD
ENDBRANCH  30  37
ENDBRANCH  22  23
ENDBRANCH  21  22
ENDBRANCH  20  21
ENDBRANCH   1  20
TORSDOF 8
ENDMDL
MODEL 3
REMARK VINA RESULT:      -7.9      3.231     11.676
REMARK  Name = 
REMARK  8 active torsions:
REMARK  status: ('A' for Active; 'I' for Inactive)
REMARK    1  A    between atoms: N_3  and  C_4
REMARK    2  A    between atoms: C_4  and  C_5
REMARK    3  A    between atoms: C_5  and  C_6
REMARK    4  A    between atoms: C_6  and  O_7
REMARK    5  A    between atoms: O_7  and  C_8
REMARK    6  A    between atoms: C_15  and  O_16
REMARK    7  A    between atoms: N_25  and  C_26
REMARK    8  A    between atoms: C_26  and  C_27
REMARK                            x       y       z     vdW  Elec       q    Type
REMARK                         _______ _______ _______ _____ _____    ______ ____
ROOT
ATOM      1  C   UNL     1       2.217   6.391  20.497  0.00  0.00    +0.000 C 
ENDROOT
BRANCH   1   4
ATOM      2  O   UNL     1       1.746   8.918  19.504  0.00  0.00    +0.000 OA
ATOM      3  C   UNL     1       1.094   8.570  20.484  0.00  0.00    +0.000 C 
ATOM      4  N   UNL     1       1.257   7.331  21.051  0.00  0.00    +0.000 N 
ATOM      5  N   UNL     1       0.179   9.396  21.108  0.00  0.00    +0.000 N 
ATOM      6  C   UNL     1      -0.586   9.111  22.331  0.00  0.00    +0.000 C 
ATOM      7  C   UNL     1      -0.446  10.244  23.372  0.00  0.00    +0.000 C 
ATOM      8  N   UNL     1      -0.733  11.605  22.863  0.00  0.00    +0.000 NA
ATOM      9  C   UNL     1       0.135  11.818  21.671  0.00  0.00    +0.000 C 
ATOM     10  C   UNL     1      -0.019  10.746  20.569  0.00  0.00    +0.000 C 
ATOM     11  H   UNL     1       0.413   6.926  21.422  0.00  0.00    +0.000 HD
BRANCH   8  12
ATOM     12  C   UNL     1      -2.152  11.836  22.518  0.00  0.00    +0.000 C 
BRANCH  12  13
ATOM     13  C   UNL     1      -2.629  13.317  22.458  0.00  0.00    +0.000 C 
ATOM     14  C   UNL     1      -4.160  13.459  22.339  0.00  0.00    +0.000 C 
ATOM     15  C   UNL     1      -4.931  13.742  23.633  0.00  0.00    +0.000 C 
ATOM     16  C   UNL     1      -4.945  15.220  24.033  0.00  0.00    +0.000 C 
ATOM     17  C   UNL     1      -3.637  15.767  24.594  0.00  0.00    +0.000 C 
ATOM     18  C   UNL     1      -2.416  15.548  23.710  0.00  0.00    +0.000 C 
ATOM     19  C   UNL     1      -2.002  14.081  23.638  0.00  0.00    +0.000 C 
ENDBRANCH  12  13
ENDBRANCH   8  12
ENDBRANCH   1   4
BRANCH   1  20
ATOM     20  C   UNL     1       1.640   4.993  20.283  0.00  0.00    +0.000 C 
BRANCH  20  21
ATOM     21  C   UNL     1       2.502   3.908  20.925  0.00  0.00    +0.000 C 
BRANCH  21  22
ATOM     22  O   UNL     1       3.115   3.135  19.890  0.00  0.00    +0.000 OA
BRANCH  22  23
ATOM     23  C   UNL     1       4.093   3.750  19.152  0.00  0.00    +0.000 A 
ATOM     24  C   UNL     1       5.157   4.495  19.666  0.00  0.00    +0.000 A 
ATOM     25  C   UNL     1       6.120   5.044  18.811  0.00  0.00    +0.000 A 
ATOM     26  C   UNL     1       6.034   4.845  17.433  0.00  0.00    +0.000 A 
ATOM     27  N   UNL     1       7.027   5.345  16.570  0.00  0.00    +0.000 N 
ATOM     28  C   UNL     1       6.959   5.043  15.241  0.00  0.00    +0.000 A 
ATOM     29  N   UNL     1       7.804   5.315  14.285  0.00  0.00    +0.000 NA
ATOM     30  C   UNL     1       7.192   4.758  13.192  0.00  0.00    +0.000 A 
ATOM     31  N   UNL     1       6.042   4.169  13.316  0.00  0.00    +0.000 NA
ATOM     32  C   UNL     1       5.826   4.299  14.653  0.00  0.00    +0.000 A 
ATOM     33  C   UNL     1       4.840   3.874  15.445  0.00  0.00    +0.000 A 
ATOM     34  C   UNL     1       4.938   4.112  16.902  0.00  0.00    +0.000 A 
ATOM     35  C   UNL     1       3.977   3.580  17.769  0.00  0.00    +0.000 A 
ATOM     36  H   UNL     1       7.825   5.838  16.936  0.00  0.00    +0.000 HD
BRANCH  30  37
ATOM     37  O   UNL     1       7.879   4.876  12.058  0.00  0.00    +0.000 OA
ATOM     38  H   UNL     1       7.258   5.189  11.385  0.00  0.00    +0.000 HD
ENDBRANCH  30  37
ENDBRANCH  22  23
ENDBRANCH  21  22
ENDBRANCH  20  21
ENDBRANCH   1  20
TORSDOF 8
ENDMDL
MODEL 4
REMARK VINA RESULT:      -7.7      4.217      7.519
REMARK  Name = 
REMARK  8 active torsions:
REMARK  status: ('A' for Active; 'I' for Inactive)
REMARK    1  A    between atoms: N_3  and  C_4
REMARK    2  A    between atoms: C_4  and  C_5
REMARK    3  A    between atoms: C_5  and  C_6
REMARK    4  A    between atoms: C_6  and  O_7
REMARK    5  A    between atoms: O_7  and  C_8
REMARK    6  A    between atoms: C_15  and  O_16
REMARK    7  A    between atoms: N_25  and  C_26
REMARK    8  A    between atoms: C_26  and  C_27
REMARK                            x       y       z     vdW  Elec       q    Type
REMARK                         _______ _______ _______ _____ _____    ______ ____
ROOT
ATOM      1  C   UNL     1       1.017  12.959  20.121  0.00  0.00    +0.000 C 
ENDROOT
BRANCH   1   4
ATOM      2  O   UNL     1       1.022  10.577  21.508  0.00  0.00    +0.000 OA
ATOM      3  C   UNL     1       1.114  10.514  20.286  0.00  0.00    +0.000 C 
ATOM      4  N   UNL     1       1.120  11.645  19.508  0.00  0.00    +0.000 N 
ATOM      5  N   UNL     1       1.250   9.320  19.604  0.00  0.00    +0.000 N 
ATOM      6  C   UNL     1       1.453   9.140  18.159  0.00  0.00    +0.000 C 
ATOM      7  C   UNL     1       2.664   8.229  17.860  0.00  0.00    +0.000 C 
ATOM      8  N   UNL     1       2.663   6.928  18.569  0.00  0.00    +0.000 NA
ATOM      9  C   UNL     1       2.519   7.222  20.022  0.00  0.00    +0.000 C 
ATOM     10  C   UNL     1       1.282   8.076  20.381  0.00  0.00    +0.000 C 
ATOM     11  H   UNL     1       0.664  11.541  18.616  0.00  0.00    +0.000 HD
BRANCH   8  12
ATOM     12  C   UNL     1       1.606   5.995  18.123  0.00  0.00    +0.000 C 
BRANCH  12  13
ATOM     13  C   UNL     1       1.819   4.486  18.439  0.00  0.00    +0.000 C 
ATOM     14  C   UNL     1       3.254   4.000  18.152  0.00  0.00    +0.000 C 
ATOM     15  C   UNL     1       4.207   3.916  19.349  0.00  0.00    +0.000 C 
ATOM     16  C   UNL     1       4.062   2.627  20.164  0.00  0.00    +0.000 C 
ATOM     17  C   UNL     1       2.819   2.535  21.041  0.00  0.00    +0.000 C 
ATOM     18  C   UNL     1       1.500   2.762  20.314  0.00  0.00    +0.000 C 
ATOM     19  C   UNL     1       1.320   4.210  19.868  0.00  0.00    +0.000 C 
ENDBRANCH  12  13
ENDBRANCH   8  12
ENDBRANCH   1   4
BRANCH   1  20
ATOM     20  C   UNL     1      -0.356  13.605  19.938  0.00  0.00    +0.000 C 
BRANCH  20  21
ATOM     21  C   UNL     1      -1.295  13.301  21.102  0.00  0.00    +0.000 C 
BRANCH  21  22
ATOM     22  O   UNL     1      -1.876  12.011  20.901  0.00  0.00    +0.000 OA
BRANCH  22  23
ATOM     23  C   UNL     1      -2.656  11.849  19.786  0.00  0.00    +0.000 A 
ATOM     24  C   UNL     1      -3.946  12.357  19.610  0.00  0.00    +0.000 A 
ATOM     25  C   UNL     1      -4.632  12.158  18.406  0.00  0.00    +0.000 A 
ATOM     26  C   UNL     1      -4.031  11.456  17.360  0.00  0.00    +0.000 A 
ATOM     27  N   UNL     1      -4.690  11.299  16.127  0.00  0.00    +0.000 N 
ATOM     28  C   UNL     1      -4.029  10.694  15.098  0.00  0.00    +0.000 A 
ATOM     29  N   UNL     1      -4.400  10.525  13.859  0.00  0.00    +0.000 NA
ATOM     30  C   UNL     1      -3.325   9.863  13.323  0.00  0.00    +0.000 A 
ATOM     31  N   UNL     1      -2.304   9.567  14.067  0.00  0.00    +0.000 NA
ATOM     32  C   UNL     1      -2.685  10.101  15.258  0.00  0.00    +0.000 A 
ATOM     33  C   UNL     1      -2.070  10.181  16.440  0.00  0.00    +0.000 A 
ATOM     34  C   UNL     1      -2.731  10.912  17.544  0.00  0.00    +0.000 A 
ATOM     35  C   UNL     1      -2.063  11.109  18.757  0.00  0.00    +0.000 A 
ATOM     36  H   UNL     1      -5.598  11.707  15.973  0.00  0.00    +0.000 HD
BRANCH  30  37
ATOM     37  O   UNL     1      -3.441   9.587  12.026  0.00  0.00    +0.000 OA
ATOM     38  H   UNL     1      -2.948   8.770  11.868  0.00  0.00    +0.000 HD
ENDBRANCH  30  37
ENDBRANCH  22  23
ENDBRANCH  21  22
ENDBRANCH  20  21
ENDBRANCH   1  20
TORSDOF 8
ENDMDL
MODEL 5
REMARK VINA RESULT:      -7.6      5.043     10.028
REMARK  Name = 
REMARK  8 active torsions:
REMARK  status: ('A' for Active; 'I' for Inactive)
REMARK    1  A    between atoms: N_3  and  C_4
REMARK    2  A    between atoms: C_4  and  C_5
REMARK    3  A    between atoms: C_5  and  C_6
REMARK    4  A    between atoms: C_6  and  O_7
REMARK    5  A    between atoms: O_7  and  C_8
REMARK    6  A    between atoms: C_15  and  O_16
REMARK    7  A    between atoms: N_25  and  C_26
REMARK    8  A    between atoms: C_26  and  C_27
REMARK                            x       y       z     vdW  Elec       q    Type
REMARK                         _______ _______ _______ _____ _____    ______ ____
ROOT
ATOM      1  C   UNL     1      -0.195  13.571  19.453  0.00  0.00    +0.000 C 
ENDROOT
BRANCH   1   4
ATOM      2  O   UNL     1       1.310  15.175  21.115  0.00  0.00    +0.000 OA
ATOM      3  C   UNL     1       1.864  14.724  20.117  0.00  0.00    +0.000 C 
ATOM      4  N   UNL     1       1.199  13.915  19.229  0.00  0.00    +0.000 N 
ATOM      5  N   UNL     1       3.176  15.014  19.792  0.00  0.00    +0.000 N 
ATOM      6  C   UNL     1       3.905  14.599  18.584  0.00  0.00    +0.000 C 
ATOM      7  C   UNL     1       4.576  15.798  17.879  0.00  0.00    +0.000 C 
ATOM      8  N   UNL     1       5.419  16.649  18.750  0.00  0.00    +0.000 NA
ATOM      9  C   UNL     1       4.573  17.069  19.903  0.00  0.00    +0.000 C 
ATOM     10  C   UNL     1       3.933  15.898  20.684  0.00  0.00    +0.000 C 
ATOM     11  H   UNL     1       1.767  13.195  18.814  0.00  0.00    +0.000 HD
BRANCH   8  12
ATOM     12  C   UNL     1       6.654  15.992  19.227  0.00  0.00    +0.000 C 
BRANCH  12  13
ATOM     13  C   UNL     1       7.535  15.286  18.155  0.00  0.00    +0.000 C 
ATOM     14  C   UNL     1       8.718  16.149  17.673  0.00  0.00    +0.000 C 
ATOM     15  C   UNL     1      10.082  15.871  18.315  0.00  0.00    +0.000 C 
ATOM     16  C   UNL     1      10.835  14.698  17.680  0.00  0.00    +0.000 C 
ATOM     17  C   UNL     1      10.302  13.310  18.015  0.00  0.00    +0.000 C 
ATOM     18  C   UNL     1       8.819  13.104  17.731  0.00  0.00    +0.000 C 
ATOM     19  C   UNL     1       7.926  13.894  18.683  0.00  0.00    +0.000 C 
ENDBRANCH  12  13
ENDBRANCH   8  12
ENDBRANCH   1   4
BRANCH   1  20
ATOM     20  C   UNL     1      -0.785  12.691  18.352  0.00  0.00    +0.000 C 
BRANCH  20  21
ATOM     21  C   UNL     1      -0.506  11.208  18.588  0.00  0.00    +0.000 C 
BRANCH  21  22
ATOM     22  O   UNL     1       0.490  11.084  19.607  0.00  0.00    +0.000 OA
BRANCH  22  23
ATOM     23  C   UNL     1       0.940   9.820  19.883  0.00  0.00    +0.000 A 
ATOM     24  C   UNL     1       0.662   9.089  21.041  0.00  0.00    +0.000 A 
ATOM     25  C   UNL     1       1.149   7.785  21.194  0.00  0.00    +0.000 A 
ATOM     26  C   UNL     1       1.912   7.194  20.186  0.00  0.00    +0.000 A 
ATOM     27  N   UNL     1       2.358   5.866  20.305  0.00  0.00    +0.000 N 
ATOM     28  C   UNL     1       3.016   5.293  19.256  0.00  0.00    +0.000 A 
ATOM     29  N   UNL     1       3.433   4.066  19.107  0.00  0.00    +0.000 NA
ATOM     30  C   UNL     1       4.005   4.104  17.862  0.00  0.00    +0.000 A 
ATOM     31  N   UNL     1       4.026   5.211  17.186  0.00  0.00    +0.000 NA
ATOM     32  C   UNL     1       3.370   6.048  18.035  0.00  0.00    +0.000 A 
ATOM     33  C   UNL     1       3.014   7.329  17.930  0.00  0.00    +0.000 A 
ATOM     34  C   UNL     1       2.223   7.944  19.019  0.00  0.00    +0.000 A 
ATOM     35  C   UNL     1       1.739   9.251  18.886  0.00  0.00    +0.000 A 
ATOM     36  H   UNL     1       2.118   5.314  21.113  0.00  0.00    +0.000 HD
BRANCH  30  37
ATOM     37  O   UNL     1       4.498   2.938  17.449  0.00  0.00    +0.000 OA
ATOM     38  H   UNL     1       5.455   3.053  17.364  0.00  0.00    +0.000 HD
ENDBRANCH  30  37
ENDBRANCH  22  23
ENDBRANCH  21  22
ENDBRANCH  20  21
ENDBRANCH   1  20
TORSDOF 8
ENDMDL
MODEL 6
REMARK VINA RESULT:      -7.6      4.792     10.360
REMARK  Name = 
REMARK  8 active torsions:
REMARK  status: ('A' for Active; 'I' for Inactive)
REMARK    1  A    between atoms: N_3  and  C_4
REMARK    2  A    between atoms: C_4  and  C_5
REMARK    3  A    between atoms: C_5  and  C_6
REMARK    4  A    between atoms: C_6  and  O_7
REMARK    5  A    between atoms: O_7  and  C_8
REMARK    6  A    between atoms: C_15  and  O_16
REMARK    7  A    between atoms: N_25  and  C_26
REMARK    8  A    between atoms: C_26  and  C_27
REMARK                            x       y       z     vdW  Elec       q    Type
REMARK                         _______ _______ _______ _____ _____    ______ ____
ROOT
ATOM      1  C   UNL     1      -1.165  12.769  18.328  0.00  0.00    +0.000 C 
ENDROOT
BRANCH   1   4
ATOM      2  O   UNL     1      -0.362  15.344  18.898  0.00  0.00    +0.000 OA
ATOM      3  C   UNL     1       0.499  14.469  18.921  0.00  0.00    +0.000 C 
ATOM      4  N   UNL     1       0.197  13.158  18.651  0.00  0.00    +0.000 N 
ATOM      5  N   UNL     1       1.829  14.734  19.185  0.00  0.00    +0.000 N 
ATOM      6  C   UNL     1       2.948  13.780  19.153  0.00  0.00    +0.000 C 
ATOM      7  C   UNL     1       4.114  14.294  18.280  0.00  0.00    +0.000 C 
ATOM      8  N   UNL     1       4.583  15.663  18.599  0.00  0.00    +0.000 NA
ATOM      9  C   UNL     1       3.393  16.557  18.541  0.00  0.00    +0.000 C 
ATOM     10  C   UNL     1       2.222  16.122  19.451  0.00  0.00    +0.000 C 
ATOM     11  H   UNL     1       0.728  12.488  19.185  0.00  0.00    +0.000 HD
BRANCH   8  12
ATOM     12  C   UNL     1       5.257  15.783  19.909  0.00  0.00    +0.000 C 
BRANCH  12  13
ATOM     13  C   UNL     1       6.789  16.058  19.890  0.00  0.00    +0.000 C 
ATOM     14  C   UNL     1       7.640  14.778  20.012  0.00  0.00    +0.000 C 
ATOM     15  C   UNL     1       8.192  14.189  18.708  0.00  0.00    +0.000 C 
ATOM     16  C   UNL     1       9.483  14.858  18.228  0.00  0.00    +0.000 C 
ATOM     17  C   UNL     1       9.325  16.251  17.628  0.00  0.00    +0.000 C 
ATOM     18  C   UNL     1       8.597  17.254  18.516  0.00  0.00    +0.000 C 
ATOM     19  C   UNL     1       7.114  16.933  18.666  0.00  0.00    +0.000 C 
ENDBRANCH  12  13
ENDBRANCH   8  12
ENDBRANCH   1   4
BRANCH   1  20
ATOM     20  C   UNL     1      -1.501  11.339  18.746  0.00  0.00    +0.000 C 
BRANCH  20  21
ATOM     21  C   UNL     1      -0.364  10.367  18.440  0.00  0.00    +0.000 C 
BRANCH  21  22
ATOM     22  O   UNL     1       0.421  10.190  19.621  0.00  0.00    +0.000 OA
BRANCH  22  23
ATOM     23  C   UNL     1       1.129   9.022  19.727  0.00  0.00    +0.000 A 
ATOM     24  C   UNL     1       1.074   8.128  20.800  0.00  0.00    +0.000 A 
ATOM     25  C   UNL     1       1.817   6.942  20.776  0.00  0.00    +0.000 A 
ATOM     26  C   UNL     1       2.617   6.632  19.676  0.00  0.00    +0.000 A 
ATOM     27  N   UNL     1       3.324   5.417  19.618  0.00  0.00    +0.000 N 
ATOM     28  C   UNL     1       4.014   5.108  18.482  0.00  0.00    +0.000 A 
ATOM     29  N   UNL     1       4.655   4.015  18.173  0.00  0.00    +0.000 NA
ATOM     30  C   UNL     1       5.129   4.303  16.919  0.00  0.00    +0.000 A 
ATOM     31  N   UNL     1       4.888   5.458  16.379  0.00  0.00    +0.000 NA
ATOM     32  C   UNL     1       4.135   6.047  17.347  0.00  0.00    +0.000 A 
ATOM     33  C   UNL     1       3.526   7.233  17.410  0.00  0.00    +0.000 A 
ATOM     34  C   UNL     1       2.699   7.552  18.595  0.00  0.00    +0.000 A 
ATOM     35  C   UNL     1       1.960   8.739  18.638  0.00  0.00    +0.000 A 
ATOM     36  H   UNL     1       3.249   4.743  20.363  0.00  0.00    +0.000 HD
BRANCH  30  37
ATOM     37  O   UNL     1       5.815   3.314  16.351  0.00  0.00    +0.000 OA
ATOM     38  H   UNL     1       6.615   3.188  16.881  0.00  0.00    +0.000 HD
ENDBRANCH  30  37
ENDBRANCH  22  23
ENDBRANCH  21  22
ENDBRANCH  20  21
ENDBRANCH   1  20
TORSDOF 8
ENDMDL
MODEL 7
REMARK VINA RESULT:      -7.6      4.692     10.301
REMARK  Name = 
REMARK  8 active torsions:
REMARK  status: ('A' for Active; 'I' for Inactive)
REMARK    1  A    between atoms: N_3  and  C_4
REMARK    2  A    between atoms: C_4  and  C_5
REMARK    3  A    between atoms: C_5  and  C_6
REMARK    4  A    between atoms: C_6  and  O_7
REMARK    5  A    between atoms: O_7  and  C_8
REMARK    6  A    between atoms: C_15  and  O_16
REMARK    7  A    between atoms: N_25  and  C_26
REMARK    8  A    between atoms: C_26  and  C_27
REMARK                            x       y       z     vdW  Elec       q    Type
REMARK                         _______ _______ _______ _____ _____    ______ ____
ROOT
ATOM      1  C   UNL     1      -0.807  11.138  20.420  0.00  0.00    +0.000 C 
ENDROOT
BRANCH   1   4
ATOM      2  O   UNL     1       0.731  12.981  21.776  0.00  0.00    +0.000 OA
ATOM      3  C   UNL     1       1.088  12.677  20.642  0.00  0.00    +0.000 C 
ATOM      4  N   UNL     1       0.389  11.769  19.887  0.00  0.00    +0.000 N 
ATOM      5  N   UNL     1       2.191  13.240  20.028  0.00  0.00    +0.000 N 
ATOM      6  C   UNL     1       2.653  13.013  18.650  0.00  0.00    +0.000 C 
ATOM      7  C   UNL     1       2.874  14.342  17.894  0.00  0.00    +0.000 C 
ATOM      8  N   UNL     1       3.730  15.329  18.593  0.00  0.00    +0.000 NA
ATOM      9  C   UNL     1       3.142  15.537  19.946  0.00  0.00    +0.000 C 
ATOM     10  C   UNL     1       2.964  14.242  20.770  0.00  0.00    +0.000 C 
ATOM     11  H   UNL     1       0.960  11.192  19.292  0.00  0.00    +0.000 HD
BRANCH   8  12
ATOM     12  C   UNL     1       5.150  14.931  18.701  0.00  0.00    +0.000 C 
BRANCH  12  13
ATOM     13  C   UNL     1       6.069  15.833  19.575  0.00  0.00    +0.000 C 
ATOM     14  C   UNL     1       6.842  15.050  20.656  0.00  0.00    +0.000 C 
ATOM     15  C   UNL     1       8.291  14.672  20.332  0.00  0.00    +0.000 C 
ATOM     16  C   UNL     1       9.296  15.797  20.598  0.00  0.00    +0.000 C 
ATOM     17  C   UNL     1       9.285  16.946  19.597  0.00  0.00    +0.000 C 
ATOM     18  C   UNL     1       7.924  17.597  19.380  0.00  0.00    +0.000 C 
ATOM     19  C   UNL     1       6.951  16.682  18.642  0.00  0.00    +0.000 C 
ENDBRANCH  12  13
ENDBRANCH   8  12
ENDBRANCH   1   4
BRANCH   1  20
ATOM     20  C   UNL     1      -0.557  10.366  21.715  0.00  0.00    +0.000 C 
BRANCH  20  21
ATOM     21  C   UNL     1       0.091   9.007  21.458  0.00  0.00    +0.000 C 
BRANCH  21  22
ATOM     22  O   UNL     1       1.358   9.212  20.830  0.00  0.00    +0.000 OA
BRANCH  22  23
ATOM     23  C   UNL     1       1.778   8.250  19.950  0.00  0.00    +0.000 A 
ATOM     24  C   UNL     1       2.168   8.467  18.626  0.00  0.00    +0.000 A 
ATOM     25  C   UNL     1       2.618   7.405  17.833  0.00  0.00    +0.000 A 
ATOM     26  C   UNL     1       2.692   6.114  18.358  0.00  0.00    +0.000 A 
ATOM     27  N   UNL     1       3.196   5.051  17.587  0.00  0.00    +0.000 N 
ATOM     28  C   UNL     1       3.344   3.826  18.170  0.00  0.00    +0.000 A 
ATOM     29  N   UNL     1       3.869   2.735  17.684  0.00  0.00    +0.000 NA
ATOM     30  C   UNL     1       3.735   1.859  18.730  0.00  0.00    +0.000 A 
ATOM     31  N   UNL     1       3.171   2.242  19.835  0.00  0.00    +0.000 NA
ATOM     32  C   UNL     1       2.899   3.545  19.551  0.00  0.00    +0.000 A 
ATOM     33  C   UNL     1       2.358   4.525  20.277  0.00  0.00    +0.000 A 
ATOM     34  C   UNL     1       2.269   5.882  19.695  0.00  0.00    +0.000 A 
ATOM     35  C   UNL     1       1.810   6.952  20.472  0.00  0.00    +0.000 A 
ATOM     36  H   UNL     1       3.528   5.208  16.650  0.00  0.00    +0.000 HD
BRANCH  30  37
ATOM     37  O   UNL     1       4.229   0.645  18.498  0.00  0.00    +0.000 OA
ATOM     38  H   UNL     1       5.109   0.619  18.900  0.00  0.00    +0.000 HD
ENDBRANCH  30  37
ENDBRANCH  22  23
ENDBRANCH  21  22
ENDBRANCH  20  21
ENDBRANCH   1  20
TORSDOF 8
ENDMDL
MODEL 8
REMARK VINA RESULT:      -7.6      3.313      5.096
REMARK  Name = 
REMARK  8 active torsions:
REMARK  status: ('A' for Active; 'I' for Inactive)
REMARK    1  A    between atoms: N_3  and  C_4
REMARK    2  A    between atoms: C_4  and  C_5
REMARK    3  A    between atoms: C_5  and  C_6
REMARK    4  A    between atoms: C_6  and  O_7
REMARK    5  A    between atoms: O_7  and  C_8
REMARK    6  A    between atoms: C_15  and  O_16
REMARK    7  A    between atoms: N_25  and  C_26
REMARK    8  A    between atoms: C_26  and  C_27
REMARK                            x       y       z     vdW  Elec       q    Type
REMARK                         _______ _______ _______ _____ _____    ______ ____
ROOT
ATOM      1  C   UNL     1       1.411   7.811  21.335  0.00  0.00    +0.000 C 
ENDROOT
BRANCH   1   4
ATOM      2  O   UNL     1       1.477   5.200  20.453  0.00  0.00    +0.000 OA
ATOM      3  C   UNL     1       2.186   6.010  19.863  0.00  0.00    +0.000 C 
ATOM      4  N   UNL     1       2.222   7.333  20.228  0.00  0.00    +0.000 N 
ATOM      5  N   UNL     1       3.019   5.657  18.819  0.00  0.00    +0.000 N 
ATOM      6  C   UNL     1       3.967   6.525  18.106  0.00  0.00    +0.000 C 
ATOM      7  C   UNL     1       5.381   5.905  18.048  0.00  0.00    +0.000 C 
ATOM      8  N   UNL     1       5.438   4.515  17.540  0.00  0.00    +0.000 NA
ATOM      9  C   UNL     1       4.497   3.708  18.367  0.00  0.00    +0.000 C 
ATOM     10  C   UNL     1       3.051   4.251  18.400  0.00  0.00    +0.000 C 
ATOM     11  H   UNL     1       2.338   7.975  19.461  0.00  0.00    +0.000 HD
BRANCH   8  12
ATOM     12  C   UNL     1       5.112   4.380  16.104  0.00  0.00    +0.000 C 
BRANCH  12  13
ATOM     13  C   UNL     1       6.292   4.060  15.141  0.00  0.00    +0.000 C 
ATOM     14  C   UNL     1       5.915   3.067  14.024  0.00  0.00    +0.000 C 
ATOM     15  C   UNL     1       5.562   3.665  12.657  0.00  0.00    +0.000 C 
ATOM     16  C   UNL     1       6.784   3.989  11.792  0.00  0.00    +0.000 C 
ATOM     17  C   UNL     1       7.589   5.213  12.214  0.00  0.00    +0.000 C 
ATOM     18  C   UNL     1       8.049   5.211  13.666  0.00  0.00    +0.000 C 
ATOM     19  C   UNL     1       6.893   5.387  14.646  0.00  0.00    +0.000 C 
ENDBRANCH  12  13
ENDBRANCH   8  12
ENDBRANCH   1   4
BRANCH   1  20
ATOM     20  C   UNL     1       0.459   8.940  20.944  0.00  0.00    +0.000 C 
BRANCH  20  21
ATOM     21  C   UNL     1       0.854  10.272  21.578  0.00  0.00    +0.000 C 
BRANCH  21  22
ATOM     22  O   UNL     1       0.533  11.327  20.669  0.00  0.00    +0.000 OA
BRANCH  22  23
ATOM     23  C   UNL     1      -0.776  11.728  20.620  0.00  0.00    +0.000 A 
ATOM     24  C   UNL     1      -1.518  11.956  19.458  0.00  0.00    +0.000 A 
ATOM     25  C   UNL     1      -2.866  12.325  19.535  0.00  0.00    +0.000 A 
ATOM     26  C   UNL     1      -3.490  12.462  20.776  0.00  0.00    +0.000 A 
ATOM     27  N   UNL     1      -4.858  12.779  20.862  0.00  0.00    +0.000 N 
ATOM     28  C   UNL     1      -5.453  12.805  22.090  0.00  0.00    +0.000 A 
ATOM     29  N   UNL     1      -6.708  12.980  22.400  0.00  0.00    +0.000 NA
ATOM     30  C   UNL     1      -6.681  12.900  23.769  0.00  0.00    +0.000 A 
ATOM     31  N   UNL     1      -5.558  12.709  24.390  0.00  0.00    +0.000 NA
ATOM     32  C   UNL     1      -4.693  12.617  23.344  0.00  0.00    +0.000 A 
ATOM     33  C   UNL     1      -3.381  12.381  23.286  0.00  0.00    +0.000 A 
ATOM     34  C   UNL     1      -2.733  12.260  21.962  0.00  0.00    +0.000 A 
ATOM     35  C   UNL     1      -1.383  11.903  21.869  0.00  0.00    +0.000 A 
ATOM     36  H   UNL     1      -5.413  12.893  20.030  0.00  0.00    +0.000 HD
BRANCH  30  37
ATOM     37  O   UNL     1      -7.873  13.023  24.349  0.00  0.00    +0.000 OA
ATOM     38  H   UNL     1      -8.226  12.128  24.456  0.00  0.00    +0.000 HD
ENDBRANCH  30  37
ENDBRANCH  22  23
ENDBRANCH  21  22
ENDBRANCH  20  21
ENDBRANCH   1  20
TORSDOF 8
ENDMDL
MODEL 9
REMARK VINA RESULT:      -7.6      5.600      8.898
REMARK  Name = 
REMARK  8 active torsions:
REMARK  status: ('A' for Active; 'I' for Inactive)
REMARK    1  A    between atoms: N_3  and  C_4
REMARK    2  A    between atoms: C_4  and  C_5
REMARK    3  A    between atoms: C_5  and  C_6
REMARK    4  A    between atoms: C_6  and  O_7
REMARK    5  A    between atoms: O_7  and  C_8
REMARK    6  A    between atoms: C_15  and  O_16
REMARK    7  A    between atoms: N_25  and  C_26
REMARK    8  A    between atoms: C_26  and  C_27
REMARK                            x       y       z     vdW  Elec       q    Type
REMARK                         _______ _______ _______ _____ _____    ______ ____
ROOT
ATOM      1  C   UNL     1       0.934  12.927  20.159  0.00  0.00    +0.000 C 
ENDROOT
BRANCH   1   4
ATOM      2  O   UNL     1       0.985  10.530  21.520  0.00  0.00    +0.000 OA
ATOM      3  C   UNL     1       1.068  10.483  20.296  0.00  0.00    +0.000 C 
ATOM      4  N   UNL     1       1.051  11.622  19.530  0.00  0.00    +0.000 N 
ATOM      5  N   UNL     1       1.214   9.298  19.600  0.00  0.00    +0.000 N 
ATOM      6  C   UNL     1       1.408   9.137  18.151  0.00  0.00    +0.000 C 
ATOM      7  C   UNL     1       2.629   8.246  17.831  0.00  0.00    +0.000 C 
ATOM      8  N   UNL     1       2.652   6.938  18.526  0.00  0.00    +0.000 NA
ATOM      9  C   UNL     1       2.517   7.214  19.983  0.00  0.00    +0.000 C 
ATOM     10  C   UNL     1       1.270   8.046  20.362  0.00  0.00    +0.000 C 
ATOM     11  H   UNL     1       0.589  11.522  18.641  0.00  0.00    +0.000 HD
BRANCH   8  12
ATOM     12  C   UNL     1       1.604   5.996  18.078  0.00  0.00    +0.000 C 
BRANCH  12  13
ATOM     13  C   UNL     1       1.845   4.486  18.369  0.00  0.00    +0.000 C 
ATOM     14  C   UNL     1       3.296   4.037  18.103  0.00  0.00    +0.000 C 
ATOM     15  C   UNL     1       4.226   3.950  19.318  0.00  0.00    +0.000 C 
ATOM     16  C   UNL     1       4.094   2.643  20.104  0.00  0.00    +0.000 C 
ATOM     17  C   UNL     1       2.836   2.506  20.954  0.00  0.00    +0.000 C 
ATOM     18  C   UNL     1       1.526   2.719  20.204  0.00  0.00    +0.000 C 
ATOM     19  C   UNL     1       1.324   4.171  19.783  0.00  0.00    +0.000 C 
ENDBRANCH  12  13
ENDBRANCH   8  12
ENDBRANCH   1   4
BRANCH   1  20
ATOM     20  C   UNL     1       2.164  13.810  19.953  0.00  0.00    +0.000 C 
BRANCH  20  21
ATOM     21  C   UNL     1       2.658  13.781  18.509  0.00  0.00    +0.000 C 
BRANCH  21  22
ATOM     22  O   UNL     1       2.993  15.112  18.109  0.00  0.00    +0.000 OA
BRANCH  22  23
ATOM     23  C   UNL     1       4.305  15.486  18.235  0.00  0.00    +0.000 A 
ATOM     24  C   UNL     1       4.761  16.714  18.723  0.00  0.00    +0.000 A 
ATOM     25  C   UNL     1       6.132  16.967  18.842  0.00  0.00    +0.000 A 
ATOM     26  C   UNL     1       7.064  15.992  18.482  0.00  0.00    +0.000 A 
ATOM     27  N   UNL     1       8.442  16.216  18.651  0.00  0.00    +0.000 N 
ATOM     28  C   UNL     1       9.314  15.201  18.381  0.00  0.00    +0.000 A 
ATOM     29  N   UNL     1      10.606  15.151  18.550  0.00  0.00    +0.000 NA
ATOM     30  C   UNL     1      10.907  13.889  18.105  0.00  0.00    +0.000 A 
ATOM     31  N   UNL     1       9.969  13.115  17.652  0.00  0.00    +0.000 NA
ATOM     32  C   UNL     1       8.875  13.907  17.819  0.00  0.00    +0.000 A 
ATOM     33  C   UNL     1       7.577  13.699  17.590  0.00  0.00    +0.000 A 
ATOM     34  C   UNL     1       6.606  14.753  17.958  0.00  0.00    +0.000 A 
ATOM     35  C   UNL     1       5.232  14.518  17.834  0.00  0.00    +0.000 A 
ATOM     36  H   UNL     1       8.778  17.078  19.050  0.00  0.00    +0.000 HD
BRANCH  30  37
ATOM     37  O   UNL     1      12.195  13.567  18.197  0.00  0.00    +0.000 OA
ATOM     38  H   UNL     1      12.377  12.934  17.488  0.00  0.00    +0.000 HD
ENDBRANCH  30  37
ENDBRANCH  22  23
ENDBRANCH  21  22
ENDBRANCH  20  21
ENDBRANCH   1  20
TORSDOF 8
ENDMDL
