MODEL 1
REMARK VINA RESULT:      -8.0      0.000      0.000
REMARK  Name = 
REMARK  7 active torsions:
REMARK  status: ('A' for Active; 'I' for Inactive)
REMARK    1  A    between atoms: C_2  and  C_14
REMARK    2  A    between atoms: N_3  and  C_4
REMARK    3  A    between atoms: C_14  and  N_15
REMARK    4  A    between atoms: C_14  and  C_30
REMARK    5  A    between atoms: C_16  and  C_18
REMARK    6  A    between atoms: C_18  and  C_19
REMARK    7  A    between atoms: C_18  and  C_25
REMARK                            x       y       z     vdW  Elec       q    Type
REMARK                         _______ _______ _______ _____ _____    ______ ____
ROOT
ATOM      1  C   UNL     1       1.019   9.640  19.490  0.00  0.00    +0.000 C 
ENDROOT
BRANCH   1   2
ATOM      2  C   UNL     1       0.378   9.909  20.845  0.00  0.00    +0.000 A 
ATOM      3  C   UNL     1      -0.730  10.748  21.000  0.00  0.00    +0.000 A 
ATOM      4  C   UNL     1      -1.250  11.000  22.269  0.00  0.00    +0.000 A 
ATOM      5  C   UNL     1      -0.632  10.411  23.358  0.00  0.00    +0.000 A 
ATOM      6  N   UNL     1       0.435   9.590  23.252  0.00  0.00    +0.000 NA
ATOM      7  C   UNL     1       0.907   9.354  22.007  0.00  0.00    +0.000 A 
ENDBRANCH   1   2
BRANCH   1   9
ATOM      8  O   UNL     1       2.311  10.981  17.834  0.00  0.00    +0.000 OA
ATOM      9  C   UNL     1       1.645  10.952  18.866  0.00  0.00    +0.000 C 
ATOM     10  N   UNL     1       1.337  12.097  19.578  0.00  0.00    +0.000 N 
ATOM     11  H   UNL     1       0.444  12.037  20.070  0.00  0.00    +0.000 HD
BRANCH  10  12
ATOM     12  C   UNL     1       1.738  13.453  19.201  0.00  0.00    +0.000 C 
ATOM     13  C   UNL     1       3.198  13.783  19.566  0.00  0.00    +0.000 C 
ATOM     14  C   UNL     1       3.375  13.807  21.081  0.00  0.00    +0.000 C 
ATOM     15  C   UNL     1       2.543  14.929  21.695  0.00  0.00    +0.000 C 
ATOM     16  C   UNL     1       1.150  15.036  21.124  0.00  0.00    +0.000 A 
ATOM     17  C   UNL     1       0.206  15.824  21.802  0.00  0.00    +0.000 A 
ATOM     18  C   UNL     1      -1.076  16.000  21.285  0.00  0.00    +0.000 A 
ATOM     19  C   UNL     1      -1.424  15.405  20.074  0.00  0.00    +0.000 A 
ATOM     20  C   UNL     1      -0.497  14.620  19.390  0.00  0.00    +0.000 A 
ATOM     21  C   UNL     1       0.794  14.420  19.906  0.00  0.00    +0.000 A 
ENDBRANCH  10  12
ENDBRANCH   1   9
BRANCH   1  22
ATOM     22  N   UNL     1       1.970   8.514  19.606  0.00  0.00    +0.000 N 
ATOM     23  C   UNL     1       2.140   7.636  18.559  0.00  0.00    +0.000 C 
ATOM     24  O   UNL     1       1.538   7.794  17.488  0.00  0.00    +0.000 OA
ATOM     25  H   UNL     1       2.024   8.091  20.524  0.00  0.00    +0.000 HD
BRANCH  23  26
ATOM     26  C   UNL     1       3.124   6.469  18.796  0.00  0.00    +0.000 C 
BRANCH  26  27
ATOM     27  C   UNL     1       2.399   5.257  19.390  0.00  0.00    +0.000 A 
ATOM     28  C   UNL     1       1.585   4.435  18.593  0.00  0.00    +0.000 A 
ATOM     29  C   UNL     1       0.903   3.348  19.148  0.00  0.00    +0.000 A 
ATOM     30  C   UNL     1       1.029   3.063  20.505  0.00  0.00    +0.000 A 
ATOM     31  C   UNL     1       1.868   3.839  21.299  0.00  0.00    +0.000 A 
ATOM     32  C   UNL     1       2.558   4.923  20.745  0.00  0.00    +0.000 A 
ENDBRANCH  26  27
BRANCH  26  33
ATOM     33  C   UNL     1       3.860   6.086  17.481  0.00  0.00    +0.000 C 
ATOM     34  C   UNL     1       5.035   6.999  17.111  0.00  0.00    +0.000 C 
ATOM     35  C   UNL     1       5.891   6.169  16.156  0.00  0.00    +0.000 C 
ATOM     36  C   UNL     1       5.607   4.708  16.478  0.00  0.00    +0.000 C 
ATOM     37  C   UNL     1       4.513   4.700  17.537  0.00  0.00    +0.000 C 
ENDBRANCH  26  33
ENDBRANCH  23  26
ENDBRANCH   1  22
TORSDOF 7
ENDMDL
MODEL 2
REMARK VINA RESULT:      -7.9      0.487      1.150
REMARK  Name = 
REMARK  7 active torsions:
REMARK  status: ('A' for Active; 'I' for Inactive)
REMARK    1  A    between atoms: C_2  and  C_14
REMARK    2  A    between atoms: N_3  and  C_4
REMARK    3  A    between atoms: C_14  and  N_15
REMARK    4  A    between atoms: C_14  and  C_30
REMARK    5  A    between atoms: C_16  and  C_18
REMARK    6  A    between atoms: C_18  and  C_19
REMARK    7  A    between atoms: C_18  and  C_25
REMARK                            x       y       z     vdW  Elec       q    Type
REMARK                         _______ _______ _______ _____ _____    ______ ____
ROOT
ATOM      1  C   UNL     1       1.015   9.653  19.491  0.00  0.00    +0.000 C 
ENDROOT
BRANCH   1   2
ATOM      2  C   UNL     1       0.368   9.917  20.845  0.00  0.00    +0.000 A 
ATOM      3  C   UNL     1       0.739   9.227  22.003  0.00  0.00    +0.000 A 
ATOM      4  C   UNL     1       0.082   9.472  23.209  0.00  0.00    +0.000 A 
ATOM      5  C   UNL     1      -0.945  10.398  23.218  0.00  0.00    +0.000 A 
ATOM      6  N   UNL     1      -1.330  11.091  22.124  0.00  0.00    +0.000 NA
ATOM      7  C   UNL     1      -0.664  10.842  20.973  0.00  0.00    +0.000 A 
ENDBRANCH   1   2
BRANCH   1   9
ATOM      8  O   UNL     1       2.326  10.997  17.853  0.00  0.00    +0.000 OA
ATOM      9  C   UNL     1       1.652  10.965  18.879  0.00  0.00    +0.000 C 
ATOM     10  N   UNL     1       1.343  12.108  19.595  0.00  0.00    +0.000 N 
ATOM     11  H   UNL     1       0.445  12.049  20.079  0.00  0.00    +0.000 HD
BRANCH  10  12
ATOM     12  C   UNL     1       1.752  13.465  19.227  0.00  0.00    +0.000 C 
ATOM     13  C   UNL     1       3.209  13.788  19.609  0.00  0.00    +0.000 C 
ATOM     14  C   UNL     1       3.371  13.803  21.126  0.00  0.00    +0.000 C 
ATOM     15  C   UNL     1       2.537  14.926  21.737  0.00  0.00    +0.000 C 
ATOM     16  C   UNL     1       1.150  15.041  21.152  0.00  0.00    +0.000 A 
ATOM     17  C   UNL     1       0.202  15.829  21.823  0.00  0.00    +0.000 A 
ATOM     18  C   UNL     1      -1.073  16.012  21.294  0.00  0.00    +0.000 A 
ATOM     19  C   UNL     1      -1.411  15.424  20.077  0.00  0.00    +0.000 A 
ATOM     20  C   UNL     1      -0.480  14.639  19.399  0.00  0.00    +0.000 A 
ATOM     21  C   UNL     1       0.805  14.432  19.928  0.00  0.00    +0.000 A 
ENDBRANCH  10  12
ENDBRANCH   1   9
BRANCH   1  22
ATOM     22  N   UNL     1       1.959   8.520  19.606  0.00  0.00    +0.000 N 
ATOM     23  C   UNL     1       2.117   7.638  18.560  0.00  0.00    +0.000 C 
ATOM     24  O   UNL     1       1.509   7.796  17.493  0.00  0.00    +0.000 OA
ATOM     25  H   UNL     1       2.015   8.100  20.525  0.00  0.00    +0.000 HD
BRANCH  23  26
ATOM     26  C   UNL     1       3.094   6.465  18.795  0.00  0.00    +0.000 C 
BRANCH  26  27
ATOM     27  C   UNL     1       2.365   5.260  19.398  0.00  0.00    +0.000 A 
ATOM     28  C   UNL     1       2.464   4.961  20.768  0.00  0.00    +0.000 A 
ATOM     29  C   UNL     1       1.819   3.844  21.306  0.00  0.00    +0.000 A 
ATOM     30  C   UNL     1       1.061   3.013  20.486  0.00  0.00    +0.000 A 
ATOM     31  C   UNL     1       0.914   3.321  19.136  0.00  0.00    +0.000 A 
ATOM     32  C   UNL     1       1.552   4.443  18.596  0.00  0.00    +0.000 A 
ENDBRANCH  26  27
BRANCH  26  33
ATOM     33  C   UNL     1       3.819   6.073  17.478  0.00  0.00    +0.000 C 
ATOM     34  C   UNL     1       4.938   7.031  17.049  0.00  0.00    +0.000 C 
ATOM     35  C   UNL     1       5.814   6.211  16.102  0.00  0.00    +0.000 C 
ATOM     36  C   UNL     1       5.613   4.750  16.483  0.00  0.00    +0.000 C 
ATOM     37  C   UNL     1       4.544   4.725  17.566  0.00  0.00    +0.000 C 
ENDBRANCH  26  33
ENDBRANCH  23  26
ENDBRANCH   1  22
TORSDOF 7
ENDMDL
MODEL 3
REMARK VINA RESULT:      -7.8      2.459      3.327
REMARK  Name = 
REMARK  7 active torsions:
REMARK  status: ('A' for Active; 'I' for Inactive)
REMARK    1  A    between atoms: C_2  and  C_14
REMARK    2  A    between atoms: N_3  and  C_4
REMARK    3  A    between atoms: C_14  and  N_15
REMARK    4  A    between atoms: C_14  and  C_30
REMARK    5  A    between atoms: C_16  and  C_18
REMARK    6  A    between atoms: C_18  and  C_19
REMARK    7  A    between atoms: C_18  and  C_25
REMARK                            x       y       z     vdW  Elec       q    Type
REMARK                         _______ _______ _______ _____ _____    ______ ____
ROOT
ATOM      1  C   UNL     1       1.141   8.166  19.656  0.00  0.00    +0.000 C 
ENDROOT
BRANCH   1   2
ATOM      2  C   UNL     1       0.815   8.561  21.091  0.00  0.00    +0.000 A 
ATOM      3  C   UNL     1      -0.483   8.505  21.609  0.00  0.00    +0.000 A 
ATOM      4  C   UNL     1      -0.737   8.924  22.914  0.00  0.00    +0.000 A 
ATOM      5  C   UNL     1       0.321   9.402  23.666  0.00  0.00    +0.000 A 
ATOM      6  N   UNL     1       1.589   9.465  23.206  0.00  0.00    +0.000 NA
ATOM      7  C   UNL     1       1.806   9.039  21.942  0.00  0.00    +0.000 A 
ENDBRANCH   1   2
BRANCH   1   9
ATOM      8  O   UNL     1       1.798   9.572  17.705  0.00  0.00    +0.000 OA
ATOM      9  C   UNL     1       1.061   9.404  18.674  0.00  0.00    +0.000 C 
ATOM     10  N   UNL     1       0.039  10.282  18.985  0.00  0.00    +0.000 N 
ATOM     11  H   UNL     1      -0.755   9.831  19.443  0.00  0.00    +0.000 HD
BRANCH  10  12
ATOM     12  C   UNL     1      -0.300  11.482  18.216  0.00  0.00    +0.000 C 
ATOM     13  C   UNL     1      -0.038  12.792  18.982  0.00  0.00    +0.000 C 
ATOM     14  C   UNL     1      -0.975  12.905  20.180  0.00  0.00    +0.000 C 
ATOM     15  C   UNL     1      -2.425  12.994  19.714  0.00  0.00    +0.000 C 
ATOM     16  C   UNL     1      -2.770  12.025  18.609  0.00  0.00    +0.000 A 
ATOM     17  C   UNL     1      -4.123  11.809  18.303  0.00  0.00    +0.000 A 
ATOM     18  C   UNL     1      -4.490  10.968  17.255  0.00  0.00    +0.000 A 
ATOM     19  C   UNL     1      -3.508  10.346  16.488  0.00  0.00    +0.000 A 
ATOM     20  C   UNL     1      -2.160  10.550  16.780  0.00  0.00    +0.000 A 
ATOM     21  C   UNL     1      -1.774  11.383  17.843  0.00  0.00    +0.000 A 
ENDBRANCH  10  12
ENDBRANCH   1   9
BRANCH   1  22
ATOM     22  N   UNL     1       2.435   7.451  19.621  0.00  0.00    +0.000 N 
ATOM     23  C   UNL     1       2.641   6.431  18.719  0.00  0.00    +0.000 C 
ATOM     24  O   UNL     1       1.771   6.120  17.895  0.00  0.00    +0.000 OA
ATOM     25  H   UNL     1       2.873   7.313  20.523  0.00  0.00    +0.000 HD
BRANCH  23  26
ATOM     26  C   UNL     1       4.011   5.718  18.792  0.00  0.00    +0.000 C 
BRANCH  26  27
ATOM     27  C   UNL     1       3.837   4.197  18.731  0.00  0.00    +0.000 A 
ATOM     28  C   UNL     1       2.959   3.602  17.809  0.00  0.00    +0.000 A 
ATOM     29  C   UNL     1       2.784   2.216  17.778  0.00  0.00    +0.000 A 
ATOM     30  C   UNL     1       3.488   1.403  18.662  0.00  0.00    +0.000 A 
ATOM     31  C   UNL     1       4.397   1.972  19.549  0.00  0.00    +0.000 A 
ATOM     32  C   UNL     1       4.580   3.359  19.578  0.00  0.00    +0.000 A 
ENDBRANCH  26  27
BRANCH  26  33
ATOM     33  C   UNL     1       4.956   6.216  17.663  0.00  0.00    +0.000 C 
ATOM     34  C   UNL     1       6.450   6.169  18.009  0.00  0.00    +0.000 C 
ATOM     35  C   UNL     1       7.165   6.175  16.657  0.00  0.00    +0.000 C 
ATOM     36  C   UNL     1       6.183   5.598  15.646  0.00  0.00    +0.000 C 
ATOM     37  C   UNL     1       4.877   5.364  16.391  0.00  0.00    +0.000 C 
ENDBRANCH  26  33
ENDBRANCH  23  26
ENDBRANCH   1  22
TORSDOF 7
ENDMDL
MODEL 4
REMARK VINA RESULT:      -7.8      2.832      5.997
REMARK  Name = 
REMARK  7 active torsions:
REMARK  status: ('A' for Active; 'I' for Inactive)
REMARK    1  A    between atoms: C_2  and  C_14
REMARK    2  A    between atoms: N_3  and  C_4
REMARK    3  A    between atoms: C_14  and  N_15
REMARK    4  A    between atoms: C_14  and  C_30
REMARK    5  A    between atoms: C_16  and  C_18
REMARK    6  A    between atoms: C_18  and  C_19
REMARK    7  A    between atoms: C_18  and  C_25
REMARK                            x       y       z     vdW  Elec       q    Type
REMARK                         _______ _______ _______ _____ _____    ______ ____
ROOT
ATOM      1  C   UNL     1       1.968  13.960  20.075  0.00  0.00    +0.000 C 
ENDROOT
BRANCH   1   2
ATOM      2  C   UNL     1       3.293  14.526  19.580  0.00  0.00    +0.000 A 
ATOM      3  C   UNL     1       3.624  14.589  18.223  0.00  0.00    +0.000 A 
ATOM      4  C   UNL     1       4.870  15.071  17.825  0.00  0.00    +0.000 A 
ATOM      5  C   UNL     1       5.762  15.468  18.804  0.00  0.00    +0.000 A 
ATOM      6  N   UNL     1       5.480  15.430  20.125  0.00  0.00    +0.000 NA
ATOM      7  C   UNL     1       4.259  14.971  20.479  0.00  0.00    +0.000 A 
ENDBRANCH   1   2
BRANCH   1   9
ATOM      8  O   UNL     1       0.851  16.156  19.699  0.00  0.00    +0.000 OA
ATOM      9  C   UNL     1       0.901  15.100  20.327  0.00  0.00    +0.000 C 
ATOM     10  N   UNL     1      -0.017  14.783  21.311  0.00  0.00    +0.000 N 
ATOM     11  H   UNL     1      -0.185  13.779  21.396  0.00  0.00    +0.000 HD
BRANCH  10  12
ATOM     12  C   UNL     1      -1.144  15.627  21.712  0.00  0.00    +0.000 C 
ATOM     13  C   UNL     1      -0.777  16.665  22.789  0.00  0.00    +0.000 C 
ATOM     14  C   UNL     1      -0.417  15.969  24.098  0.00  0.00    +0.000 C 
ATOM     15  C   UNL     1      -1.627  15.224  24.653  0.00  0.00    +0.000 C 
ATOM     16  C   UNL     1      -2.400  14.455  23.609  0.00  0.00    +0.000 A 
ATOM     17  C   UNL     1      -3.344  13.508  24.035  0.00  0.00    +0.000 A 
ATOM     18  C   UNL     1      -4.122  12.814  23.111  0.00  0.00    +0.000 A 
ATOM     19  C   UNL     1      -3.979  13.072  21.750  0.00  0.00    +0.000 A 
ATOM     20  C   UNL     1      -3.046  14.009  21.312  0.00  0.00    +0.000 A 
ATOM     21  C   UNL     1      -2.242  14.706  22.230  0.00  0.00    +0.000 A 
ENDBRANCH  10  12
ENDBRANCH   1   9
BRANCH   1  22
ATOM     22  N   UNL     1       1.510  12.896  19.157  0.00  0.00    +0.000 N 
ATOM     23  C   UNL     1       0.777  11.833  19.635  0.00  0.00    +0.000 C 
ATOM     24  O   UNL     1       0.450  11.766  20.828  0.00  0.00    +0.000 OA
ATOM     25  H   UNL     1       2.157  12.663  18.414  0.00  0.00    +0.000 HD
BRANCH  23  26
ATOM     26  C   UNL     1       0.383  10.753  18.603  0.00  0.00    +0.000 C 
BRANCH  26  27
ATOM     27  C   UNL     1       1.165   9.458  18.844  0.00  0.00    +0.000 A 
ATOM     28  C   UNL     1       1.938   8.875  17.826  0.00  0.00    +0.000 A 
ATOM     29  C   UNL     1       2.626   7.679  18.044  0.00  0.00    +0.000 A 
ATOM     30  C   UNL     1       2.556   7.049  19.284  0.00  0.00    +0.000 A 
ATOM     31  C   UNL     1       1.833   7.636  20.318  0.00  0.00    +0.000 A 
ATOM     32  C   UNL     1       1.150   8.839  20.105  0.00  0.00    +0.000 A 
ENDBRANCH  26  27
BRANCH  26  33
ATOM     33  C   UNL     1      -1.149  10.490  18.631  0.00  0.00    +0.000 C 
ATOM     34  C   UNL     1      -2.020  11.751  18.565  0.00  0.00    +0.000 C 
ATOM     35  C   UNL     1      -3.383  11.261  18.078  0.00  0.00    +0.000 C 
ATOM     36  C   UNL     1      -3.129   9.978  17.299  0.00  0.00    +0.000 C 
ATOM     37  C   UNL     1      -1.643   9.675  17.430  0.00  0.00    +0.000 C 
ENDBRANCH  26  33
ENDBRANCH  23  26
ENDBRANCH   1  22
TORSDOF 7
ENDMDL
MODEL 5
REMARK VINA RESULT:      -7.8      5.151      8.339
REMARK  Name = 
REMARK  7 active torsions:
REMARK  status: ('A' for Active; 'I' for Inactive)
REMARK    1  A    between atoms: C_2  and  C_14
REMARK    2  A    between atoms: N_3  and  C_4
REMARK    3  A    between atoms: C_14  and  N_15
REMARK    4  A    between atoms: C_14  and  C_30
REMARK    5  A    between atoms: C_16  and  C_18
REMARK    6  A    between atoms: C_18  and  C_19
REMARK    7  A    between atoms: C_18  and  C_25
REMARK                            x       y       z     vdW  Elec       q    Type
REMARK                         _______ _______ _______ _____ _____    ______ ____
ROOT
ATOM      1  C   UNL     1      -3.606  13.154  22.643  0.00  0.00    +0.000 C 
ENDROOT
BRANCH   1   2
ATOM      2  C   UNL     1      -3.402  14.541  23.241  0.00  0.00    +0.000 A 
ATOM      3  C   UNL     1      -3.784  14.860  24.547  0.00  0.00    +0.000 A 
ATOM      4  C   UNL     1      -3.620  16.158  25.031  0.00  0.00    +0.000 A 
ATOM      5  C   UNL     1      -3.087  17.110  24.181  0.00  0.00    +0.000 A 
ATOM      6  N   UNL     1      -2.699  16.842  22.916  0.00  0.00    +0.000 NA
ATOM      7  C   UNL     1      -2.857  15.571  22.481  0.00  0.00    +0.000 A 
ENDBRANCH   1   2
BRANCH   1   9
ATOM      8  O   UNL     1      -5.888  12.366  23.262  0.00  0.00    +0.000 OA
ATOM      9  C   UNL     1      -5.138  12.836  22.409  0.00  0.00    +0.000 C 
ATOM     10  N   UNL     1      -5.580  13.177  21.144  0.00  0.00    +0.000 N 
ATOM     11  H   UNL     1      -5.063  13.956  20.733  0.00  0.00    +0.000 HD
BRANCH  10  12
ATOM     12  C   UNL     1      -6.960  13.043  20.673  0.00  0.00    +0.000 C 
ATOM     13  C   UNL     1      -7.476  11.592  20.699  0.00  0.00    +0.000 C 
ATOM     14  C   UNL     1      -6.710  10.736  19.696  0.00  0.00    +0.000 C 
ATOM     15  C   UNL     1      -6.966  11.228  18.274  0.00  0.00    +0.000 C 
ATOM     16  C   UNL     1      -6.921  12.730  18.133  0.00  0.00    +0.000 A 
ATOM     17  C   UNL     1      -6.849  13.281  16.844  0.00  0.00    +0.000 A 
ATOM     18  C   UNL     1      -6.863  14.662  16.659  0.00  0.00    +0.000 A 
ATOM     19  C   UNL     1      -6.967  15.509  17.760  0.00  0.00    +0.000 A 
ATOM     20  C   UNL     1      -7.039  14.977  19.046  0.00  0.00    +0.000 A 
ATOM     21  C   UNL     1      -7.011  13.586  19.250  0.00  0.00    +0.000 A 
ENDBRANCH  10  12
ENDBRANCH   1   9
BRANCH   1  22
ATOM     22  N   UNL     1      -2.767  13.007  21.435  0.00  0.00    +0.000 N 
ATOM     23  C   UNL     1      -1.721  12.112  21.419  0.00  0.00    +0.000 C 
ATOM     24  O   UNL     1      -1.487  11.385  22.394  0.00  0.00    +0.000 OA
ATOM     25  H   UNL     1      -2.598  13.864  20.923  0.00  0.00    +0.000 HD
BRANCH  23  26
ATOM     26  C   UNL     1      -0.879  12.065  20.125  0.00  0.00    +0.000 C 
BRANCH  26  27
ATOM     27  C   UNL     1      -1.677  11.434  18.979  0.00  0.00    +0.000 A 
ATOM     28  C   UNL     1      -1.182  10.323  18.275  0.00  0.00    +0.000 A 
ATOM     29  C   UNL     1      -1.901   9.770  17.212  0.00  0.00    +0.000 A 
ATOM     30  C   UNL     1      -3.128  10.315  16.840  0.00  0.00    +0.000 A 
ATOM     31  C   UNL     1      -3.654  11.386  17.557  0.00  0.00    +0.000 A 
ATOM     32  C   UNL     1      -2.940  11.936  18.627  0.00  0.00    +0.000 A 
ENDBRANCH  26  27
BRANCH  26  33
ATOM     33  C   UNL     1      -0.376  13.483  19.736  0.00  0.00    +0.000 C 
ATOM     34  C   UNL     1       0.397  14.217  20.840  0.00  0.00    +0.000 C 
ATOM     35  C   UNL     1       1.213  15.280  20.105  0.00  0.00    +0.000 C 
ATOM     36  C   UNL     1       1.413  14.768  18.685  0.00  0.00    +0.000 C 
ATOM     37  C   UNL     1       0.623  13.472  18.574  0.00  0.00    +0.000 C 
ENDBRANCH  26  33
ENDBRANCH  23  26
ENDBRANCH   1  22
TORSDOF 7
ENDMDL
MODEL 6
REMARK VINA RESULT:      -7.7      3.034      6.372
REMARK  Name = 
REMARK  7 active torsions:
REMARK  status: ('A' for Active; 'I' for Inactive)
REMARK    1  A    between atoms: C_2  and  C_14
REMARK    2  A    between atoms: N_3  and  C_4
REMARK    3  A    between atoms: C_14  and  N_15
REMARK    4  A    between atoms: C_14  and  C_30
REMARK    5  A    between atoms: C_16  and  C_18
REMARK    6  A    between atoms: C_18  and  C_19
REMARK    7  A    between atoms: C_18  and  C_25
REMARK                            x       y       z     vdW  Elec       q    Type
REMARK                         _______ _______ _______ _____ _____    ______ ____
ROOT
ATOM      1  C   UNL     1       1.097  14.353  19.834  0.00  0.00    +0.000 C 
ENDROOT
BRANCH   1   2
ATOM      2  C   UNL     1       2.246  15.134  19.209  0.00  0.00    +0.000 A 
ATOM      3  C   UNL     1       3.032  14.617  18.175  0.00  0.00    +0.000 A 
ATOM      4  C   UNL     1       4.104  15.353  17.671  0.00  0.00    +0.000 A 
ATOM      5  C   UNL     1       4.368  16.590  18.229  0.00  0.00    +0.000 A 
ATOM      6  N   UNL     1       3.630  17.129  19.223  0.00  0.00    +0.000 NA
ATOM      7  C   UNL     1       2.589  16.397  19.682  0.00  0.00    +0.000 A 
ENDBRANCH   1   2
BRANCH   1   9
ATOM      8  O   UNL     1      -0.685  16.033  19.369  0.00  0.00    +0.000 OA
ATOM      9  C   UNL     1      -0.131  15.290  20.177  0.00  0.00    +0.000 C 
ATOM     10  N   UNL     1      -0.562  15.169  21.485  0.00  0.00    +0.000 N 
ATOM     11  H   UNL     1      -0.388  14.245  21.883  0.00  0.00    +0.000 HD
BRANCH  10  12
ATOM     12  C   UNL     1      -1.709  15.875  22.060  0.00  0.00    +0.000 C 
ATOM     13  C   UNL     1      -1.337  16.780  23.249  0.00  0.00    +0.000 C 
ATOM     14  C   UNL     1      -0.856  15.939  24.427  0.00  0.00    +0.000 C 
ATOM     15  C   UNL     1      -1.983  15.047  24.938  0.00  0.00    +0.000 C 
ATOM     16  C   UNL     1      -2.773  14.376  23.841  0.00  0.00    +0.000 A 
ATOM     17  C   UNL     1      -3.632  13.320  24.181  0.00  0.00    +0.000 A 
ATOM     18  C   UNL     1      -4.425  12.707  23.213  0.00  0.00    +0.000 A 
ATOM     19  C   UNL     1      -4.382  13.156  21.895  0.00  0.00    +0.000 A 
ATOM     20  C   UNL     1      -3.535  14.204  21.542  0.00  0.00    +0.000 A 
ATOM     21  C   UNL     1      -2.717  14.822  22.504  0.00  0.00    +0.000 A 
ENDBRANCH  10  12
ENDBRANCH   1   9
BRANCH   1  22
ATOM     22  N   UNL     1       0.755  13.201  18.972  0.00  0.00    +0.000 N 
ATOM     23  C   UNL     1       0.225  12.055  19.522  0.00  0.00    +0.000 C 
ATOM     24  O   UNL     1      -0.016  11.979  20.735  0.00  0.00    +0.000 OA
ATOM     25  H   UNL     1       1.384  13.045  18.195  0.00  0.00    +0.000 HD
BRANCH  23  26
ATOM     26  C   UNL     1      -0.058  10.894  18.543  0.00  0.00    +0.000 C 
BRANCH  26  27
ATOM     27  C   UNL     1       0.779   9.662  18.903  0.00  0.00    +0.000 A 
ATOM     28  C   UNL     1       0.743   9.110  20.195  0.00  0.00    +0.000 A 
ATOM     29  C   UNL     1       1.531   8.005  20.525  0.00  0.00    +0.000 A 
ATOM     30  C   UNL     1       2.363   7.430  19.568  0.00  0.00    +0.000 A 
ATOM     31  C   UNL     1       2.377   7.935  18.271  0.00  0.00    +0.000 A 
ATOM     32  C   UNL     1       1.582   9.037  17.936  0.00  0.00    +0.000 A 
ENDBRANCH  26  27
BRANCH  26  33
ATOM     33  C   UNL     1      -1.573  10.546  18.516  0.00  0.00    +0.000 C 
ATOM     34  C   UNL     1      -2.512  11.756  18.606  0.00  0.00    +0.000 C 
ATOM     35  C   UNL     1      -3.843  11.260  18.041  0.00  0.00    +0.000 C 
ATOM     36  C   UNL     1      -3.513  10.108  17.102  0.00  0.00    +0.000 C 
ATOM     37  C   UNL     1      -2.013   9.872  17.211  0.00  0.00    +0.000 C 
ENDBRANCH  26  33
ENDBRANCH  23  26
ENDBRANCH   1  22
TORSDOF 7
ENDMDL
MODEL 7
REMARK VINA RESULT:      -7.7      2.823      6.066
REMARK  Name = 
REMARK  7 active torsions:
REMARK  status: ('A' for Active; 'I' for Inactive)
REMARK    1  A    between atoms: C_2  and  C_14
REMARK    2  A    between atoms: N_3  and  C_4
REMARK    3  A    between atoms: C_14  and  N_15
REMARK    4  A    between atoms: C_14  and  C_30
REMARK    5  A    between atoms: C_16  and  C_18
REMARK    6  A    between atoms: C_18  and  C_19
REMARK    7  A    between atoms: C_18  and  C_25
REMARK                            x       y       z     vdW  Elec       q    Type
REMARK                         _______ _______ _______ _____ _____    ______ ____
ROOT
ATOM      1  C   UNL     1       1.977  13.954  20.127  0.00  0.00    +0.000 C 
ENDROOT
BRANCH   1   2
ATOM      2  C   UNL     1       3.312  14.503  19.639  0.00  0.00    +0.000 A 
ATOM      3  C   UNL     1       4.243  15.092  20.501  0.00  0.00    +0.000 A 
ATOM      4  C   UNL     1       5.429  15.623  19.997  0.00  0.00    +0.000 A 
ATOM      5  C   UNL     1       5.646  15.562  18.633  0.00  0.00    +0.000 A 
ATOM      6  N   UNL     1       4.777  14.997  17.767  0.00  0.00    +0.000 NA
ATOM      7  C   UNL     1       3.642  14.478  18.288  0.00  0.00    +0.000 A 
ENDBRANCH   1   2
BRANCH   1   9
ATOM      8  O   UNL     1       0.942  16.201  19.825  0.00  0.00    +0.000 OA
ATOM      9  C   UNL     1       0.928  15.109  20.388  0.00  0.00    +0.000 C 
ATOM     10  N   UNL     1      -0.055  14.760  21.296  0.00  0.00    +0.000 N 
ATOM     11  H   UNL     1      -0.255  13.758  21.309  0.00  0.00    +0.000 HD
BRANCH  10  12
ATOM     12  C   UNL     1      -1.181  15.612  21.684  0.00  0.00    +0.000 C 
ATOM     13  C   UNL     1      -0.822  16.641  22.772  0.00  0.00    +0.000 C 
ATOM     14  C   UNL     1      -0.488  15.935  24.082  0.00  0.00    +0.000 C 
ATOM     15  C   UNL     1      -1.713  15.198  24.615  0.00  0.00    +0.000 C 
ATOM     16  C   UNL     1      -2.476  14.441  23.555  0.00  0.00    +0.000 A 
ATOM     17  C   UNL     1      -3.435  13.500  23.962  0.00  0.00    +0.000 A 
ATOM     18  C   UNL     1      -4.205  12.817  23.022  0.00  0.00    +0.000 A 
ATOM     19  C   UNL     1      -4.038  13.081  21.665  0.00  0.00    +0.000 A 
ATOM     20  C   UNL     1      -3.090  14.013  21.246  0.00  0.00    +0.000 A 
ATOM     21  C   UNL     1      -2.295  14.698  22.180  0.00  0.00    +0.000 A 
ENDBRANCH  10  12
ENDBRANCH   1   9
BRANCH   1  22
ATOM     22  N   UNL     1       1.503  12.906  19.198  0.00  0.00    +0.000 N 
ATOM     23  C   UNL     1       0.843  11.797  19.679  0.00  0.00    +0.000 C 
ATOM     24  O   UNL     1       0.594  11.675  20.886  0.00  0.00    +0.000 OA
ATOM     25  H   UNL     1       2.110  12.726  18.409  0.00  0.00    +0.000 HD
BRANCH  23  26
ATOM     26  C   UNL     1       0.427  10.740  18.632  0.00  0.00    +0.000 C 
BRANCH  26  27
ATOM     27  C   UNL     1       1.175   9.423  18.861  0.00  0.00    +0.000 A 
ATOM     28  C   UNL     1       1.118   8.761  20.099  0.00  0.00    +0.000 A 
ATOM     29  C   UNL     1       1.826   7.575  20.311  0.00  0.00    +0.000 A 
ATOM     30  C   UNL     1       2.596   7.029  19.287  0.00  0.00    +0.000 A 
ATOM     31  C   UNL     1       2.627   7.647  18.040  0.00  0.00    +0.000 A 
ATOM     32  C   UNL     1       1.912   8.830  17.823  0.00  0.00    +0.000 A 
ENDBRANCH  26  27
BRANCH  26  33
ATOM     33  C   UNL     1      -1.111  10.515  18.650  0.00  0.00    +0.000 C 
ATOM     34  C   UNL     1      -1.950  11.800  18.639  0.00  0.00    +0.000 C 
ATOM     35  C   UNL     1      -3.325  11.366  18.133  0.00  0.00    +0.000 C 
ATOM     36  C   UNL     1      -3.103  10.112  17.299  0.00  0.00    +0.000 C 
ATOM     37  C   UNL     1      -1.625   9.766  17.415  0.00  0.00    +0.000 C 
ENDBRANCH  26  33
ENDBRANCH  23  26
ENDBRANCH   1  22
TORSDOF 7
ENDMDL
MODEL 8
REMARK VINA RESULT:      -7.6      4.825      7.660
REMARK  Name = 
REMARK  7 active torsions:
REMARK  status: ('A' for Active; 'I' for Inactive)
REMARK    1  A    between atoms: C_2  and  C_14
REMARK    2  A    between atoms: N_3  and  C_4
REMARK    3  A    between atoms: C_14  and  N_15
REMARK    4  A    between atoms: C_14  and  C_30
REMARK    5  A    between atoms: C_16  and  C_18
REMARK    6  A    between atoms: C_18  and  C_19
REMARK    7  A    between atoms: C_18  and  C_25
REMARK                            x       y       z     vdW  Elec       q    Type
REMARK                         _______ _______ _______ _____ _____    ______ ____
ROOT
ATOM      1  C   UNL     1      -4.192  13.391  20.444  0.00  0.00    +0.000 C 
ENDROOT
BRANCH   1   2
ATOM      2  C   UNL     1      -5.298  13.123  19.432  0.00  0.00    +0.000 A 
ATOM      3  C   UNL     1      -5.224  12.090  18.492  0.00  0.00    +0.000 A 
ATOM      4  C   UNL     1      -6.242  11.917  17.555  0.00  0.00    +0.000 A 
ATOM      5  C   UNL     1      -7.308  12.797  17.578  0.00  0.00    +0.000 A 
ATOM      6  N   UNL     1      -7.423  13.802  18.473  0.00  0.00    +0.000 NA
ATOM      7  C   UNL     1      -6.426  13.936  19.377  0.00  0.00    +0.000 A 
ENDBRANCH   1   2
BRANCH   1   9
ATOM      8  O   UNL     1      -5.109  12.333  22.506  0.00  0.00    +0.000 OA
ATOM      9  C   UNL     1      -4.733  13.351  21.930  0.00  0.00    +0.000 C 
ATOM     10  N   UNL     1      -4.711  14.586  22.553  0.00  0.00    +0.000 N 
ATOM     11  H   UNL     1      -3.974  15.201  22.203  0.00  0.00    +0.000 HD
BRANCH  10  12
ATOM     12  C   UNL     1      -5.103  14.832  23.942  0.00  0.00    +0.000 C 
ATOM     13  C   UNL     1      -6.390  15.667  24.075  0.00  0.00    +0.000 C 
ATOM     14  C   UNL     1      -6.164  17.082  23.550  0.00  0.00    +0.000 C 
ATOM     15  C   UNL     1      -5.126  17.805  24.404  0.00  0.00    +0.000 C 
ATOM     16  C   UNL     1      -3.926  16.957  24.751  0.00  0.00    +0.000 A 
ATOM     17  C   UNL     1      -2.787  17.588  25.274  0.00  0.00    +0.000 A 
ATOM     18  C   UNL     1      -1.676  16.842  25.663  0.00  0.00    +0.000 A 
ATOM     19  C   UNL     1      -1.698  15.454  25.551  0.00  0.00    +0.000 A 
ATOM     20  C   UNL     1      -2.822  14.813  25.034  0.00  0.00    +0.000 A 
ATOM     21  C   UNL     1      -3.944  15.552  24.622  0.00  0.00    +0.000 A 
ENDBRANCH  10  12
ENDBRANCH   1   9
BRANCH   1  22
ATOM     22  N   UNL     1      -3.057  12.477  20.191  0.00  0.00    +0.000 N 
ATOM     23  C   UNL     1      -1.794  12.982  19.974  0.00  0.00    +0.000 C 
ATOM     24  O   UNL     1      -1.573  14.199  20.027  0.00  0.00    +0.000 OA
ATOM     25  H   UNL     1      -3.282  11.654  19.648  0.00  0.00    +0.000 HD
BRANCH  23  26
ATOM     26  C   UNL     1      -0.685  11.947  19.676  0.00  0.00    +0.000 C 
BRANCH  26  27
ATOM     27  C   UNL     1      -0.467  11.022  20.877  0.00  0.00    +0.000 A 
ATOM     28  C   UNL     1      -1.086  11.276  22.113  0.00  0.00    +0.000 A 
ATOM     29  C   UNL     1      -0.860  10.444  23.212  0.00  0.00    +0.000 A 
ATOM     30  C   UNL     1      -0.017   9.342  23.093  0.00  0.00    +0.000 A 
ATOM     31  C   UNL     1       0.568   9.049  21.864  0.00  0.00    +0.000 A 
ATOM     32  C   UNL     1       0.336   9.876  20.759  0.00  0.00    +0.000 A 
ENDBRANCH  26  27
BRANCH  26  33
ATOM     33  C   UNL     1      -1.018  11.129  18.397  0.00  0.00    +0.000 C 
ATOM     34  C   UNL     1      -2.040  10.003  18.601  0.00  0.00    +0.000 C 
ATOM     35  C   UNL     1      -2.590   9.716  17.205  0.00  0.00    +0.000 C 
ATOM     36  C   UNL     1      -2.410  10.994  16.397  0.00  0.00    +0.000 C 
ATOM     37  C   UNL     1      -1.662  11.973  17.291  0.00  0.00    +0.000 C 
ENDBRANCH  26  33
ENDBRANCH  23  26
ENDBRANCH   1  22
TORSDOF 7
ENDMDL
MODEL 9
REMARK VINA RESULT:      -7.5      4.454      7.657
REMARK  Name = 
REMARK  7 active torsions:
REMARK  status: ('A' for Active; 'I' for Inactive)
REMARK    1  A    between atoms: C_2  and  C_14
REMARK    2  A    between atoms: N_3  and  C_4
REMARK    3  A    between atoms: C_14  and  N_15
REMARK    4  A    between atoms: C_14  and  C_30
REMARK    5  A    between atoms: C_16  and  C_18
REMARK    6  A    between atoms: C_18  and  C_19
REMARK    7  A    between atoms: C_18  and  C_25
REMARK                            x       y       z     vdW  Elec       q    Type
REMARK                         _______ _______ _______ _____ _____    ______ ____
ROOT
ATOM      1  C   UNL     1      -0.244  16.046  19.974  0.00  0.00    +0.000 C 
ENDROOT
BRANCH   1   2
ATOM      2  C   UNL     1       0.141  16.926  18.791  0.00  0.00    +0.000 A 
ATOM      3  C   UNL     1      -0.808  17.498  17.939  0.00  0.00    +0.000 A 
ATOM      4  C   UNL     1      -0.402  18.256  16.841  0.00  0.00    +0.000 A 
ATOM      5  C   UNL     1       0.955  18.411  16.619  0.00  0.00    +0.000 A 
ATOM      6  N   UNL     1       1.903  17.881  17.421  0.00  0.00    +0.000 NA
ATOM      7  C   UNL     1       1.478  17.163  18.485  0.00  0.00    +0.000 A 
ENDBRANCH   1   2
BRANCH   1   9
ATOM      8  O   UNL     1      -1.568  17.834  21.098  0.00  0.00    +0.000 OA
ATOM      9  C   UNL     1      -1.461  16.650  20.783  0.00  0.00    +0.000 C 
ATOM     10  N   UNL     1      -2.439  15.718  21.077  0.00  0.00    +0.000 N 
ATOM     11  H   UNL     1      -2.494  14.961  20.393  0.00  0.00    +0.000 HD
BRANCH  10  12
ATOM     12  C   UNL     1      -3.697  16.010  21.768  0.00  0.00    +0.000 C 
ATOM     13  C   UNL     1      -3.920  15.146  23.024  0.00  0.00    +0.000 C 
ATOM     14  C   UNL     1      -4.099  13.682  22.638  0.00  0.00    +0.000 C 
ATOM     15  C   UNL     1      -5.361  13.504  21.799  0.00  0.00    +0.000 C 
ATOM     16  C   UNL     1      -5.540  14.563  20.738  0.00  0.00    +0.000 A 
ATOM     17  C   UNL     1      -6.491  14.347  19.728  0.00  0.00    +0.000 A 
ATOM     18  C   UNL     1      -6.733  15.319  18.760  0.00  0.00    +0.000 A 
ATOM     19  C   UNL     1      -6.042  16.527  18.801  0.00  0.00    +0.000 A 
ATOM     20  C   UNL     1      -5.095  16.756  19.797  0.00  0.00    +0.000 A 
ATOM     21  C   UNL     1      -4.828  15.780  20.772  0.00  0.00    +0.000 A 
ENDBRANCH  10  12
ENDBRANCH   1   9
BRANCH   1  22
ATOM     22  N   UNL     1      -0.457  14.658  19.510  0.00  0.00    +0.000 N 
ATOM     23  C   UNL     1       0.177  13.610  20.139  0.00  0.00    +0.000 C 
ATOM     24  O   UNL     1       0.900  13.799  21.127  0.00  0.00    +0.000 OA
ATOM     25  H   UNL     1      -0.557  14.551  18.508  0.00  0.00    +0.000 HD
BRANCH  23  26
ATOM     26  C   UNL     1      -0.077  12.203  19.552  0.00  0.00    +0.000 C 
BRANCH  26  27
ATOM     27  C   UNL     1      -0.178  11.157  20.667  0.00  0.00    +0.000 A 
ATOM     28  C   UNL     1       0.279   9.843  20.474  0.00  0.00    +0.000 A 
ATOM     29  C   UNL     1       0.159   8.886  21.485  0.00  0.00    +0.000 A 
ATOM     30  C   UNL     1      -0.415   9.229  22.706  0.00  0.00    +0.000 A 
ATOM     31  C   UNL     1      -0.831  10.538  22.931  0.00  0.00    +0.000 A 
ATOM     32  C   UNL     1      -0.704  11.501  21.923  0.00  0.00    +0.000 A 
ENDBRANCH  26  27
BRANCH  26  33
ATOM     33  C   UNL     1      -1.354  12.194  18.665  0.00  0.00    +0.000 C 
ATOM     34  C   UNL     1      -1.542  10.926  17.822  0.00  0.00    +0.000 C 
ATOM     35  C   UNL     1      -3.032  10.900  17.481  0.00  0.00    +0.000 C 
ATOM     36  C   UNL     1      -3.740  11.689  18.575  0.00  0.00    +0.000 C 
ATOM     37  C   UNL     1      -2.653  12.256  19.477  0.00  0.00    +0.000 C 
ENDBRANCH  26  33
ENDBRANCH  23  26
ENDBRANCH   1  22
TORSDOF 7
ENDMDL
