MODEL 1
REMARK VINA RESULT:      -6.8      0.000      0.000
REMARK  Name = 
REMARK  6 active torsions:
REMARK  status: ('A' for Active; 'I' for Inactive)
REMARK    1  A    between atoms: C_1  and  N_2
REMARK    2  A    between atoms: C_3  and  C_4
REMARK    3  A    between atoms: N_11  and  C_12
REMARK    4  A    between atoms: C_14  and  N_15
REMARK    5  A    between atoms: C_16  and  C_17
REMARK    6  A    between atoms: C_26  and  C_27
REMARK                            x       y       z     vdW  Elec       q    Type
REMARK                         _______ _______ _______ _____ _____    ______ ____
ROOT
ATOM      1  C   UNL     1      -0.472  13.071  21.737  0.00  0.00    +0.000 C 
ATOM      2  C   UNL     1      -0.447  14.612  21.829  0.00  0.00    +0.000 C 
ATOM      3  C   UNL     1      -0.844  15.380  20.557  0.00  0.00    +0.000 C 
ATOM      4  C   UNL     1      -0.377  14.660  19.243  0.00  0.00    +0.000 C 
ATOM      5  O   UNL     1      -0.369  13.223  19.293  0.00  0.00    +0.000 OA
ATOM      6  C   UNL     1       0.248  12.625  20.452  0.00  0.00    +0.000 C 
ENDROOT
BRANCH   1  14
ATOM      7  C   UNL     1      -5.981  13.923  21.088  0.00  0.00    +0.000 C 
ATOM      8  N   UNL     1      -5.292  13.142  22.084  0.00  0.00    +0.000 N 
ATOM      9  C   UNL     1      -5.700  12.803  23.371  0.00  0.00    +0.000 A 
ATOM     10  N   UNL     1      -4.672  12.350  24.096  0.00  0.00    +0.000 NA
ATOM     11  C   UNL     1      -3.642  12.318  23.226  0.00  0.00    +0.000 A 
ATOM     12  C   UNL     1      -4.015  12.712  21.986  0.00  0.00    +0.000 A 
ATOM     13  C   UNL     1      -2.917  12.757  21.030  0.00  0.00    +0.000 C 
ATOM     14  N   UNL     1      -1.772  12.446  21.916  0.00  0.00    +0.000 NA
ATOM     15  C   UNL     1      -2.189  12.127  23.318  0.00  0.00    +0.000 C 
BRANCH   9  16
ATOM     16  C   UNL     1      -7.040  12.925  23.923  0.00  0.00    +0.000 C 
ATOM     17  N   UNL     1      -7.273  14.129  24.530  0.00  0.00    +0.000 N 
ATOM     18  O   UNL     1      -7.915  12.064  23.904  0.00  0.00    +0.000 OA
ATOM     19  H   UNL     1      -6.507  14.795  24.587  0.00  0.00    +0.000 HD
ATOM     20  H   UNL     1      -8.140  14.291  25.010  0.00  0.00    +0.000 HD
ENDBRANCH   9  16
ENDBRANCH   1  14
BRANCH   4  21
ATOM     21  C   UNL     1       0.944  15.177  18.705  0.00  0.00    +0.000 A 
ATOM     22  C   UNL     1       2.086  14.369  18.588  0.00  0.00    +0.000 A 
ATOM     23  C   UNL     1       3.266  14.872  18.050  0.00  0.00    +0.000 A 
ATOM     24  F   UNL     1       4.319  14.057  17.919  0.00  0.00    +0.000 F 
ATOM     25  C   UNL     1       3.362  16.194  17.649  0.00  0.00    +0.000 A 
ATOM     26  C   UNL     1       2.254  17.031  17.787  0.00  0.00    +0.000 A 
ATOM     27  C   UNL     1       1.060  16.517  18.297  0.00  0.00    +0.000 A 
ATOM     28  F   UNL     1       0.015  17.344  18.414  0.00  0.00    +0.000 F 
ENDBRANCH   4  21
BRANCH   6  29
ATOM     29  C   UNL     1       0.394  11.090  20.344  0.00  0.00    +0.000 C 
ATOM     30  F   UNL     1       0.685  10.492  21.520  0.00  0.00    +0.000 F 
ATOM     31  F   UNL     1      -0.705  10.492  19.835  0.00  0.00    +0.000 F 
ATOM     32  F   UNL     1       1.428  10.793  19.509  0.00  0.00    +0.000 F 
ENDBRANCH   6  29
BRANCH   3  33
ATOM     33  N   UNL     1      -2.273  15.755  20.603  0.00  0.00    +0.000 NA
ATOM     34  H   UNL     1      -2.404  16.747  20.403  0.00  0.00    +0.000 HD
ATOM     35  H   UNL     1      -2.686  15.567  21.515  0.00  0.00    +0.000 HD
ENDBRANCH   3  33
TORSDOF 5
ENDMDL
MODEL 2
REMARK VINA RESULT:      -6.8      3.717      7.815
REMARK  Name = 
REMARK  6 active torsions:
REMARK  status: ('A' for Active; 'I' for Inactive)
REMARK    1  A    between atoms: C_1  and  N_2
REMARK    2  A    between atoms: C_3  and  C_4
REMARK    3  A    between atoms: N_11  and  C_12
REMARK    4  A    between atoms: C_14  and  N_15
REMARK    5  A    between atoms: C_16  and  C_17
REMARK    6  A    between atoms: C_26  and  C_27
REMARK                            x       y       z     vdW  Elec       q    Type
REMARK                         _______ _______ _______ _____ _____    ______ ____
ROOT
ATOM      1  C   UNL     1      -0.798  10.813  20.304  0.00  0.00    +0.000 C 
ATOM      2  C   UNL     1      -1.497  10.621  18.940  0.00  0.00    +0.000 C 
ATOM      3  C   UNL     1      -2.303  11.818  18.411  0.00  0.00    +0.000 C 
ATOM      4  C   UNL     1      -3.012  12.626  19.554  0.00  0.00    +0.000 C 
ATOM      5  O   UNL     1      -2.306  12.679  20.806  0.00  0.00    +0.000 OA
ATOM      6  C   UNL     1      -1.793  11.426  21.305  0.00  0.00    +0.000 C 
ENDROOT
BRANCH   1  14
ATOM      7  C   UNL     1       1.559  15.870  19.694  0.00  0.00    +0.000 C 
ATOM      8  N   UNL     1       2.062  14.578  19.302  0.00  0.00    +0.000 N 
ATOM      9  C   UNL     1       2.966  14.257  18.293  0.00  0.00    +0.000 A 
ATOM     10  N   UNL     1       2.940  12.947  18.025  0.00  0.00    +0.000 NA
ATOM     11  C   UNL     1       2.086  12.440  18.937  0.00  0.00    +0.000 A 
ATOM     12  C   UNL     1       1.609  13.394  19.770  0.00  0.00    +0.000 A 
ATOM     13  C   UNL     1       0.631  12.899  20.729  0.00  0.00    +0.000 C 
ATOM     14  N   UNL     1       0.482  11.500  20.269  0.00  0.00    +0.000 NA
ATOM     15  C   UNL     1       1.414  11.151  19.150  0.00  0.00    +0.000 C 
BRANCH   9  16
ATOM     16  C   UNL     1       3.831  15.176  17.571  0.00  0.00    +0.000 C 
ATOM     17  N   UNL     1       5.154  14.830  17.617  0.00  0.00    +0.000 N 
ATOM     18  O   UNL     1       3.479  16.193  16.980  0.00  0.00    +0.000 OA
ATOM     19  H   UNL     1       5.421  14.020  18.170  0.00  0.00    +0.000 HD
ATOM     20  H   UNL     1       5.847  15.435  17.214  0.00  0.00    +0.000 HD
ENDBRANCH   9  16
ENDBRANCH   1  14
BRANCH   4  21
ATOM     21  C   UNL     1      -4.456  12.219  19.779  0.00  0.00    +0.000 A 
ATOM     22  C   UNL     1      -5.162  11.396  18.888  0.00  0.00    +0.000 A 
ATOM     23  C   UNL     1      -6.473  11.013  19.154  0.00  0.00    +0.000 A 
ATOM     24  F   UNL     1      -7.096  10.195  18.298  0.00  0.00    +0.000 F 
ATOM     25  C   UNL     1      -7.133  11.462  20.286  0.00  0.00    +0.000 A 
ATOM     26  C   UNL     1      -6.468  12.311  21.171  0.00  0.00    +0.000 A 
ATOM     27  C   UNL     1      -5.143  12.668  20.921  0.00  0.00    +0.000 A 
ATOM     28  F   UNL     1      -4.532  13.481  21.790  0.00  0.00    +0.000 F 
ENDBRANCH   4  21
BRANCH   6  29
ATOM     29  C   UNL     1      -1.223  11.527  22.738  0.00  0.00    +0.000 C 
ATOM     30  F   UNL     1      -0.188  10.688  22.966  0.00  0.00    +0.000 F 
ATOM     31  F   UNL     1      -0.821  12.776  23.057  0.00  0.00    +0.000 F 
ATOM     32  F   UNL     1      -2.188  11.181  23.634  0.00  0.00    +0.000 F 
ENDBRANCH   6  29
BRANCH   3  33
ATOM     33  N   UNL     1      -1.486  12.622  17.477  0.00  0.00    +0.000 NA
ATOM     34  H   UNL     1      -0.533  12.739  17.823  0.00  0.00    +0.000 HD
ATOM     35  H   UNL     1      -1.877  13.550  17.332  0.00  0.00    +0.000 HD
ENDBRANCH   3  33
TORSDOF 5
ENDMDL
MODEL 3
REMARK VINA RESULT:      -6.8      5.128      8.038
REMARK  Name = 
REMARK  6 active torsions:
REMARK  status: ('A' for Active; 'I' for Inactive)
REMARK    1  A    between atoms: C_1  and  N_2
REMARK    2  A    between atoms: C_3  and  C_4
REMARK    3  A    between atoms: N_11  and  C_12
REMARK    4  A    between atoms: C_14  and  N_15
REMARK    5  A    between atoms: C_16  and  C_17
REMARK    6  A    between atoms: C_26  and  C_27
REMARK                            x       y       z     vdW  Elec       q    Type
REMARK                         _______ _______ _______ _____ _____    ______ ____
ROOT
ATOM      1  C   UNL     1       0.190   9.299  20.151  0.00  0.00    +0.000 C 
ATOM      2  C   UNL     1       0.135  10.019  18.786  0.00  0.00    +0.000 C 
ATOM      3  C   UNL     1       1.013  11.273  18.638  0.00  0.00    +0.000 C 
ATOM      4  C   UNL     1       1.113  12.104  19.965  0.00  0.00    +0.000 C 
ATOM      5  O   UNL     1       1.081  11.337  21.181  0.00  0.00    +0.000 OA
ATOM      6  C   UNL     1       0.048  10.335  21.280  0.00  0.00    +0.000 C 
ENDROOT
BRANCH   1  14
ATOM      7  C   UNL     1       3.701   5.878  17.418  0.00  0.00    +0.000 C 
ATOM      8  N   UNL     1       3.170   5.761  18.752  0.00  0.00    +0.000 N 
ATOM      9  C   UNL     1       2.977   4.618  19.523  0.00  0.00    +0.000 A 
ATOM     10  N   UNL     1       2.177   4.872  20.564  0.00  0.00    +0.000 NA
ATOM     11  C   UNL     1       1.953   6.200  20.493  0.00  0.00    +0.000 A 
ATOM     12  C   UNL     1       2.611   6.769  19.456  0.00  0.00    +0.000 A 
ATOM     13  C   UNL     1       2.343   8.193  19.303  0.00  0.00    +0.000 C 
ATOM     14  N   UNL     1       1.306   8.388  20.342  0.00  0.00    +0.000 NA
ATOM     15  C   UNL     1       1.048   7.153  21.149  0.00  0.00    +0.000 C 
BRANCH   9  16
ATOM     16  C   UNL     1       3.518   3.292  19.270  0.00  0.00    +0.000 C 
ATOM     17  N   UNL     1       4.876   3.219  19.419  0.00  0.00    +0.000 N 
ATOM     18  O   UNL     1       2.880   2.299  18.929  0.00  0.00    +0.000 OA
ATOM     19  H   UNL     1       5.383   4.074  19.637  0.00  0.00    +0.000 HD
ATOM     20  H   UNL     1       5.362   2.369  19.197  0.00  0.00    +0.000 HD
ENDBRANCH   9  16
ENDBRANCH   1  14
BRANCH   4  21
ATOM     21  C   UNL     1       0.123  13.251  20.040  0.00  0.00    +0.000 A 
ATOM     22  C   UNL     1      -1.068  13.181  20.780  0.00  0.00    +0.000 A 
ATOM     23  C   UNL     1      -1.928  14.271  20.854  0.00  0.00    +0.000 A 
ATOM     24  F   UNL     1      -3.033  14.176  21.604  0.00  0.00    +0.000 F 
ATOM     25  C   UNL     1      -1.656  15.445  20.171  0.00  0.00    +0.000 A 
ATOM     26  C   UNL     1      -0.498  15.531  19.398  0.00  0.00    +0.000 A 
ATOM     27  C   UNL     1       0.381  14.448  19.349  0.00  0.00    +0.000 A 
ATOM     28  F   UNL     1       1.485  14.563  18.602  0.00  0.00    +0.000 F 
ENDBRANCH   4  21
BRANCH   6  29
ATOM     29  C   UNL     1      -0.047   9.691  22.682  0.00  0.00    +0.000 C 
ATOM     30  F   UNL     1      -0.824   8.585  22.716  0.00  0.00    +0.000 F 
ATOM     31  F   UNL     1       1.160   9.364  23.193  0.00  0.00    +0.000 F 
ATOM     32  F   UNL     1      -0.617  10.574  23.548  0.00  0.00    +0.000 F 
ENDBRANCH   6  29
BRANCH   3  33
ATOM     33  N   UNL     1       2.303  10.930  18.004  0.00  0.00    +0.000 NA
ATOM     34  H   UNL     1       2.452  11.465  17.148  0.00  0.00    +0.000 HD
ATOM     35  H   UNL     1       2.357   9.942  17.763  0.00  0.00    +0.000 HD
ENDBRANCH   3  33
TORSDOF 5
ENDMDL
MODEL 4
REMARK VINA RESULT:      -6.6      3.656      6.113
REMARK  Name = 
REMARK  6 active torsions:
REMARK  status: ('A' for Active; 'I' for Inactive)
REMARK    1  A    between atoms: C_1  and  N_2
REMARK    2  A    between atoms: C_3  and  C_4
REMARK    3  A    between atoms: N_11  and  C_12
REMARK    4  A    between atoms: C_14  and  N_15
REMARK    5  A    between atoms: C_16  and  C_17
REMARK    6  A    between atoms: C_26  and  C_27
REMARK                            x       y       z     vdW  Elec       q    Type
REMARK                         _______ _______ _______ _____ _____    ______ ____
ROOT
ATOM      1  C   UNL     1      -1.608  10.925  20.029  0.00  0.00    +0.000 C 
ATOM      2  C   UNL     1      -0.655  10.592  21.197  0.00  0.00    +0.000 C 
ATOM      3  C   UNL     1       0.851  10.703  20.904  0.00  0.00    +0.000 C 
ATOM      4  C   UNL     1       1.218  10.275  19.440  0.00  0.00    +0.000 C 
ATOM      5  O   UNL     1       0.224  10.568  18.441  0.00  0.00    +0.000 OA
ATOM      6  C   UNL     1      -1.133  10.197  18.759  0.00  0.00    +0.000 C 
ENDROOT
BRANCH   1  14
ATOM      7  C   UNL     1       0.701  16.031  20.328  0.00  0.00    +0.000 C 
ATOM      8  N   UNL     1      -0.666  15.636  20.549  0.00  0.00    +0.000 N 
ATOM      9  C   UNL     1      -1.644  16.253  21.324  0.00  0.00    +0.000 A 
ATOM     10  N   UNL     1      -2.677  15.431  21.537  0.00  0.00    +0.000 NA
ATOM     11  C   UNL     1      -2.381  14.334  20.810  0.00  0.00    +0.000 A 
ATOM     12  C   UNL     1      -1.213  14.471  20.140  0.00  0.00    +0.000 A 
ATOM     13  C   UNL     1      -0.823  13.282  19.394  0.00  0.00    +0.000 C 
ATOM     14  N   UNL     1      -1.881  12.336  19.817  0.00  0.00    +0.000 NA
ATOM     15  C   UNL     1      -2.916  12.971  20.693  0.00  0.00    +0.000 C 
BRANCH   9  16
ATOM     16  C   UNL     1      -1.599  17.596  21.881  0.00  0.00    +0.000 C 
ATOM     17  N   UNL     1      -1.114  17.640  23.160  0.00  0.00    +0.000 N 
ATOM     18  O   UNL     1      -1.967  18.626  21.324  0.00  0.00    +0.000 OA
ATOM     19  H   UNL     1      -0.881  16.762  23.617  0.00  0.00    +0.000 HD
ATOM     20  H   UNL     1      -1.109  18.507  23.667  0.00  0.00    +0.000 HD
ENDBRANCH   9  16
ENDBRANCH   1  14
BRANCH   4  21
ATOM     21  C   UNL     1       1.672   8.832  19.325  0.00  0.00    +0.000 A 
ATOM     22  C   UNL     1       1.591   7.922  20.390  0.00  0.00    +0.000 A 
ATOM     23  C   UNL     1       1.981   6.597  20.229  0.00  0.00    +0.000 A 
ATOM     24  F   UNL     1       1.850   5.752  21.259  0.00  0.00    +0.000 F 
ATOM     25  C   UNL     1       2.497   6.144  19.026  0.00  0.00    +0.000 A 
ATOM     26  C   UNL     1       2.623   7.036  17.960  0.00  0.00    +0.000 A 
ATOM     27  C   UNL     1       2.201   8.357  18.112  0.00  0.00    +0.000 A 
ATOM     28  F   UNL     1       2.332   9.187  17.070  0.00  0.00    +0.000 F 
ENDBRANCH   4  21
BRANCH   6  29
ATOM     29  C   UNL     1      -2.106  10.360  17.570  0.00  0.00    +0.000 C 
ATOM     30  F   UNL     1      -3.406  10.221  17.914  0.00  0.00    +0.000 F 
ATOM     31  F   UNL     1      -1.970  11.546  16.938  0.00  0.00    +0.000 F 
ATOM     32  F   UNL     1      -1.859   9.389  16.647  0.00  0.00    +0.000 F 
ENDBRANCH   6  29
BRANCH   3  33
ATOM     33  N   UNL     1       1.365  12.022  21.329  0.00  0.00    +0.000 NA
ATOM     34  H   UNL     1       2.111  11.927  22.018  0.00  0.00    +0.000 HD
ATOM     35  H   UNL     1       0.635  12.599  21.743  0.00  0.00    +0.000 HD
ENDBRANCH   3  33
TORSDOF 5
ENDMDL
MODEL 5
REMARK VINA RESULT:      -6.6      3.598      7.837
REMARK  Name = 
REMARK  6 active torsions:
REMARK  status: ('A' for Active; 'I' for Inactive)
REMARK    1  A    between atoms: C_1  and  N_2
REMARK    2  A    between atoms: C_3  and  C_4
REMARK    3  A    between atoms: N_11  and  C_12
REMARK    4  A    between atoms: C_14  and  N_15
REMARK    5  A    between atoms: C_16  and  C_17
REMARK    6  A    between atoms: C_26  and  C_27
REMARK                            x       y       z     vdW  Elec       q    Type
REMARK                         _______ _______ _______ _____ _____    ______ ____
ROOT
ATOM      1  C   UNL     1      -1.094  11.750  21.005  0.00  0.00    +0.000 C 
ATOM      2  C   UNL     1      -1.385  11.105  19.632  0.00  0.00    +0.000 C 
ATOM      3  C   UNL     1      -2.222  11.939  18.648  0.00  0.00    +0.000 C 
ATOM      4  C   UNL     1      -3.322  12.799  19.364  0.00  0.00    +0.000 C 
ATOM      5  O   UNL     1      -2.973  13.288  20.671  0.00  0.00    +0.000 OA
ATOM      6  C   UNL     1      -2.398  12.329  21.582  0.00  0.00    +0.000 C 
ENDROOT
BRANCH   1  14
ATOM      7  C   UNL     1       0.815  16.540  18.790  0.00  0.00    +0.000 C 
ATOM      8  N   UNL     1       1.554  15.395  19.255  0.00  0.00    +0.000 N 
ATOM      9  C   UNL     1       2.816  14.949  18.871  0.00  0.00    +0.000 A 
ATOM     10  N   UNL     1       3.025  13.693  19.280  0.00  0.00    +0.000 NA
ATOM     11  C   UNL     1       1.927  13.393  20.003  0.00  0.00    +0.000 A 
ATOM     12  C   UNL     1       1.065  14.435  20.070  0.00  0.00    +0.000 A 
ATOM     13  C   UNL     1      -0.167  14.131  20.786  0.00  0.00    +0.000 C 
ATOM     14  N   UNL     1       0.018  12.684  21.044  0.00  0.00    +0.000 NA
ATOM     15  C   UNL     1       1.352  12.176  20.592  0.00  0.00    +0.000 C 
BRANCH   9  16
ATOM     16  C   UNL     1       3.808  15.688  18.107  0.00  0.00    +0.000 C 
ATOM     17  N   UNL     1       4.744  14.888  17.510  0.00  0.00    +0.000 N 
ATOM     18  O   UNL     1       3.873  16.908  17.988  0.00  0.00    +0.000 OA
ATOM     19  H   UNL     1       4.701  13.886  17.683  0.00  0.00    +0.000 HD
ATOM     20  H   UNL     1       5.518  15.298  17.020  0.00  0.00    +0.000 HD
ENDBRANCH   9  16
ENDBRANCH   1  14
BRANCH   4  21
ATOM     21  C   UNL     1      -4.686  12.136  19.396  0.00  0.00    +0.000 A 
ATOM     22  C   UNL     1      -5.470  12.064  20.559  0.00  0.00    +0.000 A 
ATOM     23  C   UNL     1      -6.733  11.482  20.535  0.00  0.00    +0.000 A 
ATOM     24  F   UNL     1      -7.464  11.470  21.656  0.00  0.00    +0.000 F 
ATOM     25  C   UNL     1      -7.240  10.923  19.374  0.00  0.00    +0.000 A 
ATOM     26  C   UNL     1      -6.469  10.948  18.212  0.00  0.00    +0.000 A 
ATOM     27  C   UNL     1      -5.215  11.560  18.228  0.00  0.00    +0.000 A 
ATOM     28  F   UNL     1      -4.501  11.570  17.097  0.00  0.00    +0.000 F 
ENDBRANCH   4  21
BRANCH   6  29
ATOM     29  C   UNL     1      -2.233  12.873  23.019  0.00  0.00    +0.000 C 
ATOM     30  F   UNL     1      -1.057  12.534  23.592  0.00  0.00    +0.000 F 
ATOM     31  F   UNL     1      -2.354  14.217  23.090  0.00  0.00    +0.000 F 
ATOM     32  F   UNL     1      -3.202  12.346  23.817  0.00  0.00    +0.000 F 
ENDBRANCH   6  29
BRANCH   3  33
ATOM     33  N   UNL     1      -1.344  12.678  17.717  0.00  0.00    +0.000 NA
ATOM     34  H   UNL     1      -1.294  13.668  17.958  0.00  0.00    +0.000 HD
ATOM     35  H   UNL     1      -1.669  12.612  16.755  0.00  0.00    +0.000 HD
ENDBRANCH   3  33
TORSDOF 5
ENDMDL
MODEL 6
REMARK VINA RESULT:      -6.5      3.749      6.950
REMARK  Name = 
REMARK  6 active torsions:
REMARK  status: ('A' for Active; 'I' for Inactive)
REMARK    1  A    between atoms: C_1  and  N_2
REMARK    2  A    between atoms: C_3  and  C_4
REMARK    3  A    between atoms: N_11  and  C_12
REMARK    4  A    between atoms: C_14  and  N_15
REMARK    5  A    between atoms: C_16  and  C_17
REMARK    6  A    between atoms: C_26  and  C_27
REMARK                            x       y       z     vdW  Elec       q    Type
REMARK                         _______ _______ _______ _____ _____    ______ ____
ROOT
ATOM      1  C   UNL     1      -0.716   9.893  21.129  0.00  0.00    +0.000 C 
ATOM      2  C   UNL     1      -0.137   8.881  22.141  0.00  0.00    +0.000 C 
ATOM      3  C   UNL     1       1.369   8.587  22.029  0.00  0.00    +0.000 C 
ATOM      4  C   UNL     1       1.881   8.601  20.546  0.00  0.00    +0.000 C 
ATOM      5  O   UNL     1       1.221   9.531  19.671  0.00  0.00    +0.000 OA
ATOM      6  C   UNL     1      -0.221   9.540  19.715  0.00  0.00    +0.000 C 
ENDROOT
BRANCH   1  14
ATOM      7  C   UNL     1      -3.187  14.921  20.789  0.00  0.00    +0.000 C 
ATOM      8  N   UNL     1      -1.785  14.592  20.758  0.00  0.00    +0.000 N 
ATOM      9  C   UNL     1      -0.731  15.294  20.180  0.00  0.00    +0.000 A 
ATOM     10  N   UNL     1       0.359  14.526  20.079  0.00  0.00    +0.000 NA
ATOM     11  C   UNL     1       0.008  13.373  20.685  0.00  0.00    +0.000 A 
ATOM     12  C   UNL     1      -1.253  13.422  21.175  0.00  0.00    +0.000 A 
ATOM     13  C   UNL     1      -1.696  12.172  21.778  0.00  0.00    +0.000 C 
ATOM     14  N   UNL     1      -0.544  11.296  21.467  0.00  0.00    +0.000 NA
ATOM     15  C   UNL     1       0.581  12.025  20.799  0.00  0.00    +0.000 C 
BRANCH   9  16
ATOM     16  C   UNL     1      -0.753  16.668  19.706  0.00  0.00    +0.000 C 
ATOM     17  N   UNL     1      -0.876  16.775  18.347  0.00  0.00    +0.000 N 
ATOM     18  O   UNL     1      -0.651  17.678  20.397  0.00  0.00    +0.000 OA
ATOM     19  H   UNL     1      -0.891  15.920  17.797  0.00  0.00    +0.000 HD
ATOM     20  H   UNL     1      -0.827  17.676  17.906  0.00  0.00    +0.000 HD
ENDBRANCH   9  16
ENDBRANCH   1  14
BRANCH   4  21
ATOM     21  C   UNL     1       1.936   7.225  19.909  0.00  0.00    +0.000 A 
ATOM     22  C   UNL     1       1.493   6.066  20.565  0.00  0.00    +0.000 A 
ATOM     23  C   UNL     1       1.522   4.829  19.929  0.00  0.00    +0.000 A 
ATOM     24  F   UNL     1       1.053   3.755  20.575  0.00  0.00    +0.000 F 
ATOM     25  C   UNL     1       2.024   4.698  18.644  0.00  0.00    +0.000 A 
ATOM     26  C   UNL     1       2.504   5.827  17.982  0.00  0.00    +0.000 A 
ATOM     27  C   UNL     1       2.445   7.073  18.608  0.00  0.00    +0.000 A 
ATOM     28  F   UNL     1       2.910   8.137  17.945  0.00  0.00    +0.000 F 
ENDBRANCH   4  21
BRANCH   6  29
ATOM     29  C   UNL     1      -0.861  10.417  18.615  0.00  0.00    +0.000 C 
ATOM     30  F   UNL     1      -2.062  10.929  18.965  0.00  0.00    +0.000 F 
ATOM     31  F   UNL     1      -0.070  11.443  18.234  0.00  0.00    +0.000 F 
ATOM     32  F   UNL     1      -1.087   9.659  17.507  0.00  0.00    +0.000 F 
ENDBRANCH   6  29
BRANCH   3  33
ATOM     33  N   UNL     1       2.133   9.428  22.974  0.00  0.00    +0.000 NA
ATOM     34  H   UNL     1       1.763   9.355  23.922  0.00  0.00    +0.000 HD
ATOM     35  H   UNL     1       2.111  10.411  22.710  0.00  0.00    +0.000 HD
ENDBRANCH   3  33
TORSDOF 5
ENDMDL
MODEL 7
REMARK VINA RESULT:      -6.5      1.002      1.141
REMARK  Name = 
REMARK  6 active torsions:
REMARK  status: ('A' for Active; 'I' for Inactive)
REMARK    1  A    between atoms: C_1  and  N_2
REMARK    2  A    between atoms: C_3  and  C_4
REMARK    3  A    between atoms: N_11  and  C_12
REMARK    4  A    between atoms: C_14  and  N_15
REMARK    5  A    between atoms: C_16  and  C_17
REMARK    6  A    between atoms: C_26  and  C_27
REMARK                            x       y       z     vdW  Elec       q    Type
REMARK                         _______ _______ _______ _____ _____    ______ ____
ROOT
ATOM      1  C   UNL     1      -0.259  13.870  21.671  0.00  0.00    +0.000 C 
ATOM      2  C   UNL     1      -0.496  15.386  21.845  0.00  0.00    +0.000 C 
ATOM      3  C   UNL     1      -1.237  16.098  20.701  0.00  0.00    +0.000 C 
ATOM      4  C   UNL     1      -0.881  15.512  19.289  0.00  0.00    +0.000 C 
ATOM      5  O   UNL     1      -0.607  14.100  19.256  0.00  0.00    +0.000 OA
ATOM      6  C   UNL     1       0.297  13.599  20.262  0.00  0.00    +0.000 C 
ENDROOT
BRANCH   1  14
ATOM      7  C   UNL     1      -5.784  13.176  20.965  0.00  0.00    +0.000 C 
ATOM      8  N   UNL     1      -4.964  12.849  22.103  0.00  0.00    +0.000 N 
ATOM      9  C   UNL     1      -5.324  12.739  23.443  0.00  0.00    +0.000 A 
ATOM     10  N   UNL     1      -4.244  12.736  24.232  0.00  0.00    +0.000 NA
ATOM     11  C   UNL     1      -3.206  12.748  23.371  0.00  0.00    +0.000 A 
ATOM     12  C   UNL     1      -3.618  12.731  22.081  0.00  0.00    +0.000 A 
ATOM     13  C   UNL     1      -2.528  12.811  21.117  0.00  0.00    +0.000 C 
ATOM     14  N   UNL     1      -1.375  13.010  22.025  0.00  0.00    +0.000 NA
ATOM     15  C   UNL     1      -1.754  12.944  23.473  0.00  0.00    +0.000 C 
BRANCH   9  16
ATOM     16  C   UNL     1      -6.673  12.660  23.981  0.00  0.00    +0.000 C 
ATOM     17  N   UNL     1      -7.112  13.834  24.529  0.00  0.00    +0.000 N 
ATOM     18  O   UNL     1      -7.392  11.664  23.998  0.00  0.00    +0.000 OA
ATOM     19  H   UNL     1      -6.469  14.621  24.559  0.00  0.00    +0.000 HD
ATOM     20  H   UNL     1      -8.001  13.871  24.995  0.00  0.00    +0.000 HD
ENDBRANCH   9  16
ENDBRANCH   1  14
BRANCH   4  21
ATOM     21  C   UNL     1       0.213  16.279  18.571  0.00  0.00    +0.000 A 
ATOM     22  C   UNL     1       1.564  15.905  18.625  0.00  0.00    +0.000 A 
ATOM     23  C   UNL     1       2.531  16.613  17.917  0.00  0.00    +0.000 A 
ATOM     24  F   UNL     1       3.803  16.199  17.963  0.00  0.00    +0.000 F 
ATOM     25  C   UNL     1       2.195  17.729  17.170  0.00  0.00    +0.000 A 
ATOM     26  C   UNL     1       0.864  18.146  17.127  0.00  0.00    +0.000 A 
ATOM     27  C   UNL     1      -0.110  17.416  17.811  0.00  0.00    +0.000 A 
ATOM     28  F   UNL     1      -1.378  17.839  17.748  0.00  0.00    +0.000 F 
ENDBRANCH   4  21
BRANCH   6  29
ATOM     29  C   UNL     1       0.696  12.122  20.045  0.00  0.00    +0.000 C 
ATOM     30  F   UNL     1       1.035  11.481  21.185  0.00  0.00    +0.000 F 
ATOM     31  F   UNL     1      -0.271  11.400  19.437  0.00  0.00    +0.000 F 
ATOM     32  F   UNL     1       1.795  12.063  19.243  0.00  0.00    +0.000 F 
ENDBRANCH   6  29
BRANCH   3  33
ATOM     33  N   UNL     1      -2.680  16.199  21.002  0.00  0.00    +0.000 NA
ATOM     34  H   UNL     1      -3.045  17.123  20.771  0.00  0.00    +0.000 HD
ATOM     35  H   UNL     1      -2.876  16.027  21.986  0.00  0.00    +0.000 HD
ENDBRANCH   3  33
TORSDOF 5
ENDMDL
MODEL 8
REMARK VINA RESULT:      -6.5      5.501      8.673
REMARK  Name = 
REMARK  6 active torsions:
REMARK  status: ('A' for Active; 'I' for Inactive)
REMARK    1  A    between atoms: C_1  and  N_2
REMARK    2  A    between atoms: C_3  and  C_4
REMARK    3  A    between atoms: N_11  and  C_12
REMARK    4  A    between atoms: C_14  and  N_15
REMARK    5  A    between atoms: C_16  and  C_17
REMARK    6  A    between atoms: C_26  and  C_27
REMARK                            x       y       z     vdW  Elec       q    Type
REMARK                         _______ _______ _______ _____ _____    ______ ____
ROOT
ATOM      1  C   UNL     1       1.831   9.048  20.676  0.00  0.00    +0.000 C 
ATOM      2  C   UNL     1       1.499   9.177  22.179  0.00  0.00    +0.000 C 
ATOM      3  C   UNL     1       0.023   9.425  22.534  0.00  0.00    +0.000 C 
ATOM      4  C   UNL     1      -0.710  10.331  21.483  0.00  0.00    +0.000 C 
ATOM      5  O   UNL     1      -0.270  10.182  20.122  0.00  0.00    +0.000 OA
ATOM      6  C   UNL     1       1.156  10.196  19.905  0.00  0.00    +0.000 C 
ENDROOT
BRANCH   1  14
ATOM      7  C   UNL     1       2.141   3.542  21.715  0.00  0.00    +0.000 C 
ATOM      8  N   UNL     1       2.331   4.246  20.473  0.00  0.00    +0.000 N 
ATOM      9  C   UNL     1       3.077   3.873  19.358  0.00  0.00    +0.000 A 
ATOM     10  N   UNL     1       3.272   4.914  18.542  0.00  0.00    +0.000 NA
ATOM     11  C   UNL     1       2.562   5.914  19.105  0.00  0.00    +0.000 A 
ATOM     12  C   UNL     1       1.919   5.508  20.225  0.00  0.00    +0.000 A 
ATOM     13  C   UNL     1       1.194   6.575  20.903  0.00  0.00    +0.000 C 
ATOM     14  N   UNL     1       1.599   7.742  20.086  0.00  0.00    +0.000 NA
ATOM     15  C   UNL     1       2.444   7.364  18.908  0.00  0.00    +0.000 C 
BRANCH   9  16
ATOM     16  C   UNL     1       3.623   2.556  19.072  0.00  0.00    +0.000 C 
ATOM     17  N   UNL     1       4.869   2.355  19.600  0.00  0.00    +0.000 N 
ATOM     18  O   UNL     1       3.084   1.675  18.408  0.00  0.00    +0.000 OA
ATOM     19  H   UNL     1       5.315   3.127  20.088  0.00  0.00    +0.000 HD
ATOM     20  H   UNL     1       5.370   1.507  19.401  0.00  0.00    +0.000 HD
ENDBRANCH   9  16
ENDBRANCH   1  14
BRANCH   4  21
ATOM     21  C   UNL     1      -0.749  11.798  21.868  0.00  0.00    +0.000 A 
ATOM     22  C   UNL     1       0.012  12.776  21.210  0.00  0.00    +0.000 A 
ATOM     23  C   UNL     1      -0.085  14.117  21.568  0.00  0.00    +0.000 A 
ATOM     24  F   UNL     1       0.628  15.023  20.888  0.00  0.00    +0.000 F 
ATOM     25  C   UNL     1      -0.905  14.522  22.608  0.00  0.00    +0.000 A 
ATOM     26  C   UNL     1      -1.646  13.566  23.303  0.00  0.00    +0.000 A 
ATOM     27  C   UNL     1      -1.574  12.226  22.923  0.00  0.00    +0.000 A 
ATOM     28  F   UNL     1      -2.299  11.334  23.608  0.00  0.00    +0.000 F 
ENDBRANCH   4  21
BRANCH   6  29
ATOM     29  C   UNL     1       1.546  10.229  18.410  0.00  0.00    +0.000 C 
ATOM     30  F   UNL     1       2.804   9.797  18.171  0.00  0.00    +0.000 F 
ATOM     31  F   UNL     1       0.707   9.512  17.631  0.00  0.00    +0.000 F 
ATOM     32  F   UNL     1       1.502  11.514  17.959  0.00  0.00    +0.000 F 
ENDBRANCH   6  29
BRANCH   3  33
ATOM     33  N   UNL     1      -0.653   8.151  22.858  0.00  0.00    +0.000 NA
ATOM     34  H   UNL     1      -1.213   7.817  22.073  0.00  0.00    +0.000 HD
ATOM     35  H   UNL     1      -1.271   8.243  23.661  0.00  0.00    +0.000 HD
ENDBRANCH   3  33
TORSDOF 5
ENDMDL
MODEL 9
REMARK VINA RESULT:      -6.4      0.776      1.030
REMARK  Name = 
REMARK  6 active torsions:
REMARK  status: ('A' for Active; 'I' for Inactive)
REMARK    1  A    between atoms: C_1  and  N_2
REMARK    2  A    between atoms: C_3  and  C_4
REMARK    3  A    between atoms: N_11  and  C_12
REMARK    4  A    between atoms: C_14  and  N_15
REMARK    5  A    between atoms: C_16  and  C_17
REMARK    6  A    between atoms: C_26  and  C_27
REMARK                            x       y       z     vdW  Elec       q    Type
REMARK                         _______ _______ _______ _____ _____    ______ ____
ROOT
ATOM      1  C   UNL     1      -0.004  12.810  21.451  0.00  0.00    +0.000 C 
ATOM      2  C   UNL     1       0.164  14.309  21.781  0.00  0.00    +0.000 C 
ATOM      3  C   UNL     1      -0.280  15.302  20.694  0.00  0.00    +0.000 C 
ATOM      4  C   UNL     1      -0.001  14.778  19.241  0.00  0.00    +0.000 C 
ATOM      5  O   UNL     1      -0.114  13.355  19.064  0.00  0.00    +0.000 OA
ATOM      6  C   UNL     1       0.552  12.532  20.043  0.00  0.00    +0.000 C 
ENDROOT
BRANCH   1  14
ATOM      7  C   UNL     1      -5.472  13.955  20.920  0.00  0.00    +0.000 C 
ATOM      8  N   UNL     1      -4.804  13.147  21.907  0.00  0.00    +0.000 N 
ATOM      9  C   UNL     1      -5.199  12.842  23.206  0.00  0.00    +0.000 A 
ATOM     10  N   UNL     1      -4.181  12.340  23.912  0.00  0.00    +0.000 NA
ATOM     11  C   UNL     1      -3.175  12.244  23.019  0.00  0.00    +0.000 A 
ATOM     12  C   UNL     1      -3.555  12.647  21.784  0.00  0.00    +0.000 A 
ATOM     13  C   UNL     1      -2.478  12.623  20.803  0.00  0.00    +0.000 C 
ATOM     14  N   UNL     1      -1.331  12.259  21.666  0.00  0.00    +0.000 NA
ATOM     15  C   UNL     1      -1.732  11.974  23.080  0.00  0.00    +0.000 C 
BRANCH   9  16
ATOM     16  C   UNL     1      -6.517  13.041  23.788  0.00  0.00    +0.000 C 
ATOM     17  N   UNL     1      -7.275  11.903  23.824  0.00  0.00    +0.000 N 
ATOM     18  O   UNL     1      -6.977  14.102  24.200  0.00  0.00    +0.000 OA
ATOM     19  H   UNL     1      -6.892  11.055  23.414  0.00  0.00    +0.000 HD
ATOM     20  H   UNL     1      -8.229  11.943  24.138  0.00  0.00    +0.000 HD
ENDBRANCH   9  16
ENDBRANCH   1  14
BRANCH   4  21
ATOM     21  C   UNL     1       1.304  15.280  18.654  0.00  0.00    +0.000 A 
ATOM     22  C   UNL     1       2.446  14.473  18.537  0.00  0.00    +0.000 A 
ATOM     23  C   UNL     1       3.611  14.962  17.954  0.00  0.00    +0.000 A 
ATOM     24  F   UNL     1       4.664  14.146  17.825  0.00  0.00    +0.000 F 
ATOM     25  C   UNL     1       3.692  16.270  17.508  0.00  0.00    +0.000 A 
ATOM     26  C   UNL     1       2.584  17.107  17.645  0.00  0.00    +0.000 A 
ATOM     27  C   UNL     1       1.405  16.607  18.200  0.00  0.00    +0.000 A 
ATOM     28  F   UNL     1       0.360  17.433  18.315  0.00  0.00    +0.000 F 
ENDBRANCH   4  21
BRANCH   6  29
ATOM     29  C   UNL     1       0.554  11.029  19.681  0.00  0.00    +0.000 C 
ATOM     30  F   UNL     1      -0.618  10.598  19.165  0.00  0.00    +0.000 F 
ATOM     31  F   UNL     1       1.535  10.699  18.813  0.00  0.00    +0.000 F 
ATOM     32  F   UNL     1       0.758  10.293  20.808  0.00  0.00    +0.000 F 
ENDBRANCH   6  29
BRANCH   3  33
ATOM     33  N   UNL     1      -1.660  15.766  20.948  0.00  0.00    +0.000 NA
ATOM     34  H   UNL     1      -1.879  15.757  21.945  0.00  0.00    +0.000 HD
ATOM     35  H   UNL     1      -2.350  15.183  20.477  0.00  0.00    +0.000 HD
ENDBRANCH   3  33
TORSDOF 5
ENDMDL
