MODEL 1
REMARK VINA RESULT:      -8.9      0.000      0.000
REMARK  Name = 
REMARK  3 active torsions:
REMARK  status: ('A' for Active; 'I' for Inactive)
REMARK    1  A    between atoms: C_2  and  C_3
REMARK    2  A    between atoms: C_2  and  C_8
REMARK    3  A    between atoms: C_9  and  C_10
REMARK                            x       y       z     vdW  Elec       q    Type
REMARK                         _______ _______ _______ _____ _____    ______ ____
ROOT
ATOM      1  C   UNL     1       5.103   4.768  18.140  0.00  0.00    +0.000 A 
ATOM      2  C   UNL     1       4.322   5.927  17.998  0.00  0.00    +0.000 A 
ATOM      3  N   UNL     1       3.171   6.067  18.751  0.00  0.00    +0.000 N 
ATOM      4  O   UNL     1       2.498   7.142  18.715  0.00  0.00    +0.000 OA
ATOM      5  C   UNL     1       2.734   5.009  19.581  0.00  0.00    +0.000 A 
ATOM      6  C   UNL     1       1.535   5.102  20.328  0.00  0.00    +0.000 A 
ATOM      7  C   UNL     1       1.107   4.049  21.140  0.00  0.00    +0.000 A 
ATOM      8  C   UNL     1       1.869   2.895  21.219  0.00  0.00    +0.000 A 
ATOM      9  F   UNL     1       1.455   1.879  21.986  0.00  0.00    +0.000 F 
ATOM     10  C   UNL     1       3.058   2.782  20.516  0.00  0.00    +0.000 A 
ATOM     11  C   UNL     1       3.506   3.841  19.691  0.00  0.00    +0.000 A 
ATOM     12  N   UNL     1       4.734   3.749  19.014  0.00  0.00    +0.000 N 
ATOM     13  O   UNL     1       5.500   2.767  19.278  0.00  0.00    +0.000 OA
ENDROOT
BRANCH   2  14
ATOM     14  C   UNL     1       4.631   7.087  17.121  0.00  0.00    +0.000 C 
ATOM     15  F   UNL     1       4.629   6.788  15.792  0.00  0.00    +0.000 F 
ATOM     16  F   UNL     1       3.711   8.090  17.214  0.00  0.00    +0.000 F 
ATOM     17  F   UNL     1       5.844   7.642  17.378  0.00  0.00    +0.000 F 
ENDBRANCH   2  14
BRANCH   1  19
ATOM     18  O   UNL     1       7.378   4.603  18.330  0.00  0.00    +0.000 OA
ATOM     19  C   UNL     1       6.440   4.628  17.534  0.00  0.00    +0.000 C 
BRANCH  19  20
ATOM     20  C   UNL     1       6.583   4.448  16.106  0.00  0.00    +0.000 A 
ATOM     21  C   UNL     1       5.913   3.607  15.239  0.00  0.00    +0.000 A 
ATOM     22  C   UNL     1       6.305   3.975  13.930  0.00  0.00    +0.000 A 
ATOM     23  C   UNL     1       7.245   4.967  14.079  0.00  0.00    +0.000 A 
ATOM     24  O   UNL     1       7.450   5.240  15.396  0.00  0.00    +0.000 OA
ENDBRANCH  19  20
ENDBRANCH   1  19
TORSDOF 3
ENDMDL
MODEL 2
REMARK VINA RESULT:      -8.1      2.388      3.337
REMARK  Name = 
REMARK  3 active torsions:
REMARK  status: ('A' for Active; 'I' for Inactive)
REMARK    1  A    between atoms: C_2  and  C_3
REMARK    2  A    between atoms: C_2  and  C_8
REMARK    3  A    between atoms: C_9  and  C_10
REMARK                            x       y       z     vdW  Elec       q    Type
REMARK                         _______ _______ _______ _____ _____    ______ ____
ROOT
ATOM      1  C   UNL     1       6.164   4.455  17.816  0.00  0.00    +0.000 A 
ATOM      2  C   UNL     1       5.530   4.236  16.581  0.00  0.00    +0.000 A 
ATOM      3  N   UNL     1       4.189   3.907  16.555  0.00  0.00    +0.000 N 
ATOM      4  O   UNL     1       3.567   3.798  15.454  0.00  0.00    +0.000 OA
ATOM      5  C   UNL     1       3.487   3.696  17.764  0.00  0.00    +0.000 A 
ATOM      6  C   UNL     1       2.124   3.312  17.770  0.00  0.00    +0.000 A 
ATOM      7  C   UNL     1       1.440   3.098  18.970  0.00  0.00    +0.000 A 
ATOM      8  C   UNL     1       2.104   3.267  20.174  0.00  0.00    +0.000 A 
ATOM      9  F   UNL     1       1.456   3.051  21.325  0.00  0.00    +0.000 F 
ATOM     10  C   UNL     1       3.432   3.663  20.200  0.00  0.00    +0.000 A 
ATOM     11  C   UNL     1       4.138   3.886  18.994  0.00  0.00    +0.000 A 
ATOM     12  N   UNL     1       5.469   4.333  19.017  0.00  0.00    +0.000 N 
ATOM     13  O   UNL     1       5.974   4.678  20.134  0.00  0.00    +0.000 OA
ENDROOT
BRANCH   2  14
ATOM     14  C   UNL     1       6.161   4.366  15.241  0.00  0.00    +0.000 C 
ATOM     15  F   UNL     1       7.520   4.450  15.278  0.00  0.00    +0.000 F 
ATOM     16  F   UNL     1       5.941   3.285  14.438  0.00  0.00    +0.000 F 
ATOM     17  F   UNL     1       5.736   5.458  14.555  0.00  0.00    +0.000 F 
ENDBRANCH   2  14
BRANCH   1  19
ATOM     18  O   UNL     1       8.430   4.170  17.969  0.00  0.00    +0.000 OA
ATOM     19  C   UNL     1       7.527   5.005  17.927  0.00  0.00    +0.000 C 
BRANCH  19  20
ATOM     20  C   UNL     1       7.746   6.435  17.896  0.00  0.00    +0.000 A 
ATOM     21  C   UNL     1       7.230   7.400  17.054  0.00  0.00    +0.000 A 
ATOM     22  C   UNL     1       7.616   8.654  17.587  0.00  0.00    +0.000 A 
ATOM     23  C   UNL     1       8.403   8.377  18.679  0.00  0.00    +0.000 A 
ATOM     24  O   UNL     1       8.520   7.033  18.858  0.00  0.00    +0.000 OA
ENDBRANCH  19  20
ENDBRANCH   1  19
TORSDOF 3
ENDMDL
MODEL 3
REMARK VINA RESULT:      -8.0      0.563      1.107
REMARK  Name = 
REMARK  3 active torsions:
REMARK  status: ('A' for Active; 'I' for Inactive)
REMARK    1  A    between atoms: C_2  and  C_3
REMARK    2  A    between atoms: C_2  and  C_8
REMARK    3  A    between atoms: C_9  and  C_10
REMARK                            x       y       z     vdW  Elec       q    Type
REMARK                         _______ _______ _______ _____ _____    ______ ____
ROOT
ATOM      1  C   UNL     1       5.067   4.750  18.184  0.00  0.00    +0.000 A 
ATOM      2  C   UNL     1       4.297   5.922  18.106  0.00  0.00    +0.000 A 
ATOM      3  N   UNL     1       3.174   6.052  18.899  0.00  0.00    +0.000 N 
ATOM      4  O   UNL     1       2.514   7.135  18.920  0.00  0.00    +0.000 OA
ATOM      5  C   UNL     1       2.750   4.974  19.709  0.00  0.00    +0.000 A 
ATOM      6  C   UNL     1       1.577   5.058  20.498  0.00  0.00    +0.000 A 
ATOM      7  C   UNL     1       1.161   3.984  21.290  0.00  0.00    +0.000 A 
ATOM      8  C   UNL     1       1.909   2.818  21.307  0.00  0.00    +0.000 A 
ATOM      9  F   UNL     1       1.508   1.783  22.054  0.00  0.00    +0.000 F 
ATOM     10  C   UNL     1       3.073   2.714  20.562  0.00  0.00    +0.000 A 
ATOM     11  C   UNL     1       3.509   3.793  19.757  0.00  0.00    +0.000 A 
ATOM     12  N   UNL     1       4.713   3.708  19.038  0.00  0.00    +0.000 N 
ATOM     13  O   UNL     1       5.474   2.709  19.245  0.00  0.00    +0.000 OA
ENDROOT
BRANCH   2  14
ATOM     14  C   UNL     1       4.593   7.106  17.256  0.00  0.00    +0.000 C 
ATOM     15  F   UNL     1       3.799   8.183  17.516  0.00  0.00    +0.000 F 
ATOM     16  F   UNL     1       5.851   7.599  17.443  0.00  0.00    +0.000 F 
ATOM     17  F   UNL     1       4.462   6.856  15.928  0.00  0.00    +0.000 F 
ENDBRANCH   2  14
BRANCH   1  19
ATOM     18  O   UNL     1       7.338   4.482  18.295  0.00  0.00    +0.000 OA
ATOM     19  C   UNL     1       6.382   4.613  17.531  0.00  0.00    +0.000 C 
BRANCH  19  20
ATOM     20  C   UNL     1       6.482   4.554  16.089  0.00  0.00    +0.000 A 
ATOM     21  C   UNL     1       7.341   5.204  15.225  0.00  0.00    +0.000 A 
ATOM     22  C   UNL     1       7.136   4.637  13.944  0.00  0.00    +0.000 A 
ATOM     23  C   UNL     1       6.115   3.728  14.089  0.00  0.00    +0.000 A 
ATOM     24  O   UNL     1       5.684   3.693  15.379  0.00  0.00    +0.000 OA
ENDBRANCH  19  20
ENDBRANCH   1  19
TORSDOF 3
ENDMDL
MODEL 4
REMARK VINA RESULT:      -7.7      2.539      4.435
REMARK  Name = 
REMARK  3 active torsions:
REMARK  status: ('A' for Active; 'I' for Inactive)
REMARK    1  A    between atoms: C_2  and  C_3
REMARK    2  A    between atoms: C_2  and  C_8
REMARK    3  A    between atoms: C_9  and  C_10
REMARK                            x       y       z     vdW  Elec       q    Type
REMARK                         _______ _______ _______ _____ _____    ______ ____
ROOT
ATOM      1  C   UNL     1       3.446   4.707  18.506  0.00  0.00    +0.000 A 
ATOM      2  C   UNL     1       2.976   4.058  19.660  0.00  0.00    +0.000 A 
ATOM      3  N   UNL     1       2.181   4.749  20.553  0.00  0.00    +0.000 N 
ATOM      4  O   UNL     1       1.665   4.164  21.552  0.00  0.00    +0.000 OA
ATOM      5  C   UNL     1       1.926   6.126  20.355  0.00  0.00    +0.000 A 
ATOM      6  C   UNL     1       1.155   6.875  21.277  0.00  0.00    +0.000 A 
ATOM      7  C   UNL     1       0.913   8.236  21.077  0.00  0.00    +0.000 A 
ATOM      8  C   UNL     1       1.435   8.865  19.959  0.00  0.00    +0.000 A 
ATOM      9  F   UNL     1       1.217  10.173  19.771  0.00  0.00    +0.000 F 
ATOM     10  C   UNL     1       2.176   8.154  19.028  0.00  0.00    +0.000 A 
ATOM     11  C   UNL     1       2.427   6.775  19.214  0.00  0.00    +0.000 A 
ATOM     12  N   UNL     1       3.137   6.040  18.250  0.00  0.00    +0.000 N 
ATOM     13  O   UNL     1       3.415   6.604  17.142  0.00  0.00    +0.000 OA
ENDROOT
BRANCH   2  14
ATOM     14  C   UNL     1       3.217   2.635  20.020  0.00  0.00    +0.000 C 
ATOM     15  F   UNL     1       4.406   2.146  19.568  0.00  0.00    +0.000 F 
ATOM     16  F   UNL     1       3.291   2.429  21.367  0.00  0.00    +0.000 F 
ATOM     17  F   UNL     1       2.261   1.795  19.545  0.00  0.00    +0.000 F 
ENDBRANCH   2  14
BRANCH   1  19
ATOM     18  O   UNL     1       3.391   3.305  16.696  0.00  0.00    +0.000 OA
ATOM     19  C   UNL     1       4.123   3.993  17.408  0.00  0.00    +0.000 C 
BRANCH  19  20
ATOM     20  C   UNL     1       5.537   4.187  17.168  0.00  0.00    +0.000 A 
ATOM     21  C   UNL     1       6.227   4.367  15.986  0.00  0.00    +0.000 A 
ATOM     22  C   UNL     1       7.556   4.705  16.337  0.00  0.00    +0.000 A 
ATOM     23  C   UNL     1       7.615   4.639  17.709  0.00  0.00    +0.000 A 
ATOM     24  O   UNL     1       6.405   4.291  18.225  0.00  0.00    +0.000 OA
ENDBRANCH  19  20
ENDBRANCH   1  19
TORSDOF 3
ENDMDL
MODEL 5
REMARK VINA RESULT:      -7.6      2.466      5.939
REMARK  Name = 
REMARK  3 active torsions:
REMARK  status: ('A' for Active; 'I' for Inactive)
REMARK    1  A    between atoms: C_2  and  C_3
REMARK    2  A    between atoms: C_2  and  C_8
REMARK    3  A    between atoms: C_9  and  C_10
REMARK                            x       y       z     vdW  Elec       q    Type
REMARK                         _______ _______ _______ _____ _____    ______ ____
ROOT
ATOM      1  C   UNL     1       5.563   4.299  17.737  0.00  0.00    +0.000 A 
ATOM      2  C   UNL     1       6.633   5.206  17.666  0.00  0.00    +0.000 A 
ATOM      3  N   UNL     1       7.157   5.545  16.434  0.00  0.00    +0.000 N 
ATOM      4  O   UNL     1       8.058   6.432  16.332  0.00  0.00    +0.000 OA
ATOM      5  C   UNL     1       6.684   4.909  15.263  0.00  0.00    +0.000 A 
ATOM      6  C   UNL     1       7.232   5.199  13.991  0.00  0.00    +0.000 A 
ATOM      7  C   UNL     1       6.763   4.560  12.840  0.00  0.00    +0.000 A 
ATOM      8  C   UNL     1       5.744   3.627  12.944  0.00  0.00    +0.000 A 
ATOM      9  F   UNL     1       5.301   3.003  11.846  0.00  0.00    +0.000 F 
ATOM     10  C   UNL     1       5.173   3.338  14.173  0.00  0.00    +0.000 A 
ATOM     11  C   UNL     1       5.635   3.979  15.347  0.00  0.00    +0.000 A 
ATOM     12  N   UNL     1       5.027   3.723  16.588  0.00  0.00    +0.000 N 
ATOM     13  O   UNL     1       3.962   3.026  16.609  0.00  0.00    +0.000 OA
ENDROOT
BRANCH   2  14
ATOM     14  C   UNL     1       7.264   5.903  18.818  0.00  0.00    +0.000 C 
ATOM     15  F   UNL     1       6.506   5.894  19.950  0.00  0.00    +0.000 F 
ATOM     16  F   UNL     1       8.430   5.322  19.224  0.00  0.00    +0.000 F 
ATOM     17  F   UNL     1       7.543   7.208  18.565  0.00  0.00    +0.000 F 
ENDBRANCH   2  14
BRANCH   1  19
ATOM     18  O   UNL     1       5.265   3.138  19.687  0.00  0.00    +0.000 OA
ATOM     19  C   UNL     1       4.816   4.041  18.982  0.00  0.00    +0.000 C 
BRANCH  19  20
ATOM     20  C   UNL     1       3.692   4.875  19.349  0.00  0.00    +0.000 A 
ATOM     21  C   UNL     1       2.693   4.671  20.281  0.00  0.00    +0.000 A 
ATOM     22  C   UNL     1       1.967   5.882  20.372  0.00  0.00    +0.000 A 
ATOM     23  C   UNL     1       2.519   6.728  19.439  0.00  0.00    +0.000 A 
ATOM     24  O   UNL     1       3.544   6.117  18.785  0.00  0.00    +0.000 OA
ENDBRANCH  19  20
ENDBRANCH   1  19
TORSDOF 3
ENDMDL
MODEL 6
REMARK VINA RESULT:      -7.5      0.989      1.060
REMARK  Name = 
REMARK  3 active torsions:
REMARK  status: ('A' for Active; 'I' for Inactive)
REMARK    1  A    between atoms: C_2  and  C_3
REMARK    2  A    between atoms: C_2  and  C_8
REMARK    3  A    between atoms: C_9  and  C_10
REMARK                            x       y       z     vdW  Elec       q    Type
REMARK                         _______ _______ _______ _____ _____    ______ ____
ROOT
ATOM      1  C   UNL     1       4.740   5.574  18.081  0.00  0.00    +0.000 A 
ATOM      2  C   UNL     1       3.640   6.446  18.129  0.00  0.00    +0.000 A 
ATOM      3  N   UNL     1       2.615   6.199  19.023  0.00  0.00    +0.000 N 
ATOM      4  O   UNL     1       1.656   7.019  19.155  0.00  0.00    +0.000 OA
ATOM      5  C   UNL     1       2.630   5.025  19.811  0.00  0.00    +0.000 A 
ATOM      6  C   UNL     1       1.572   4.719  20.701  0.00  0.00    +0.000 A 
ATOM      7  C   UNL     1       1.591   3.553  21.470  0.00  0.00    +0.000 A 
ATOM      8  C   UNL     1       2.663   2.682  21.363  0.00  0.00    +0.000 A 
ATOM      9  F   UNL     1       2.678   1.557  22.089  0.00  0.00    +0.000 F 
ATOM     10  C   UNL     1       3.722   2.965  20.516  0.00  0.00    +0.000 A 
ATOM     11  C   UNL     1       3.719   4.143  19.732  0.00  0.00    +0.000 A 
ATOM     12  N   UNL     1       4.813   4.456  18.909  0.00  0.00    +0.000 N 
ATOM     13  O   UNL     1       5.864   3.743  18.998  0.00  0.00    +0.000 OA
ENDROOT
BRANCH   2  14
ATOM     14  C   UNL     1       3.468   7.681  17.319  0.00  0.00    +0.000 C 
ATOM     15  F   UNL     1       4.049   7.617  16.088  0.00  0.00    +0.000 F 
ATOM     16  F   UNL     1       2.164   7.955  17.029  0.00  0.00    +0.000 F 
ATOM     17  F   UNL     1       3.979   8.787  17.917  0.00  0.00    +0.000 F 
ENDBRANCH   2  14
BRANCH   1  19
ATOM     18  O   UNL     1       6.747   6.651  17.850  0.00  0.00    +0.000 OA
ATOM     19  C   UNL     1       5.962   5.872  17.311  0.00  0.00    +0.000 C 
BRANCH  19  20
ATOM     20  C   UNL     1       6.216   5.203  16.053  0.00  0.00    +0.000 A 
ATOM     21  C   UNL     1       5.500   4.218  15.403  0.00  0.00    +0.000 A 
ATOM     22  C   UNL     1       6.084   4.067  14.123  0.00  0.00    +0.000 A 
ATOM     23  C   UNL     1       7.166   4.915  14.096  0.00  0.00    +0.000 A 
ATOM     24  O   UNL     1       7.279   5.585  15.274  0.00  0.00    +0.000 OA
ENDBRANCH  19  20
ENDBRANCH   1  19
TORSDOF 3
ENDMDL
MODEL 7
REMARK VINA RESULT:      -7.3      2.166      2.856
REMARK  Name = 
REMARK  3 active torsions:
REMARK  status: ('A' for Active; 'I' for Inactive)
REMARK    1  A    between atoms: C_2  and  C_3
REMARK    2  A    between atoms: C_2  and  C_8
REMARK    3  A    between atoms: C_9  and  C_10
REMARK                            x       y       z     vdW  Elec       q    Type
REMARK                         _______ _______ _______ _____ _____    ______ ____
ROOT
ATOM      1  C   UNL     1       5.153   5.333  16.721  0.00  0.00    +0.000 A 
ATOM      2  C   UNL     1       6.019   5.605  17.793  0.00  0.00    +0.000 A 
ATOM      3  N   UNL     1       5.864   4.919  18.982  0.00  0.00    +0.000 N 
ATOM      4  O   UNL     1       6.688   5.074  19.935  0.00  0.00    +0.000 OA
ATOM      5  C   UNL     1       4.782   4.024  19.148  0.00  0.00    +0.000 A 
ATOM      6  C   UNL     1       4.568   3.342  20.370  0.00  0.00    +0.000 A 
ATOM      7  C   UNL     1       3.492   2.465  20.528  0.00  0.00    +0.000 A 
ATOM      8  C   UNL     1       2.620   2.257  19.472  0.00  0.00    +0.000 A 
ATOM      9  F   UNL     1       1.580   1.427  19.623  0.00  0.00    +0.000 F 
ATOM     10  C   UNL     1       2.816   2.894  18.257  0.00  0.00    +0.000 A 
ATOM     11  C   UNL     1       3.902   3.783  18.080  0.00  0.00    +0.000 A 
ATOM     12  N   UNL     1       4.132   4.394  16.836  0.00  0.00    +0.000 N 
ATOM     13  O   UNL     1       3.438   4.016  15.838  0.00  0.00    +0.000 OA
ENDROOT
BRANCH   2  14
ATOM     14  C   UNL     1       7.158   6.561  17.776  0.00  0.00    +0.000 C 
ATOM     15  F   UNL     1       7.959   6.484  18.876  0.00  0.00    +0.000 F 
ATOM     16  F   UNL     1       8.027   6.341  16.747  0.00  0.00    +0.000 F 
ATOM     17  F   UNL     1       6.765   7.858  17.688  0.00  0.00    +0.000 F 
ENDBRANCH   2  14
BRANCH   1  19
ATOM     18  O   UNL     1       4.980   7.016  15.178  0.00  0.00    +0.000 OA
ATOM     19  C   UNL     1       5.373   5.865  15.363  0.00  0.00    +0.000 C 
BRANCH  19  20
ATOM     20  C   UNL     1       6.086   5.083  14.376  0.00  0.00    +0.000 A 
ATOM     21  C   UNL     1       5.711   3.936  13.703  0.00  0.00    +0.000 A 
ATOM     22  C   UNL     1       6.696   3.704  12.714  0.00  0.00    +0.000 A 
ATOM     23  C   UNL     1       7.650   4.678  12.891  0.00  0.00    +0.000 A 
ATOM     24  O   UNL     1       7.310   5.501  13.920  0.00  0.00    +0.000 OA
ENDBRANCH  19  20
ENDBRANCH   1  19
TORSDOF 3
ENDMDL
MODEL 8
REMARK VINA RESULT:      -7.2      2.546      4.833
REMARK  Name = 
REMARK  3 active torsions:
REMARK  status: ('A' for Active; 'I' for Inactive)
REMARK    1  A    between atoms: C_2  and  C_3
REMARK    2  A    between atoms: C_2  and  C_8
REMARK    3  A    between atoms: C_9  and  C_10
REMARK                            x       y       z     vdW  Elec       q    Type
REMARK                         _______ _______ _______ _____ _____    ______ ____
ROOT
ATOM      1  C   UNL     1       3.383   5.535  18.427  0.00  0.00    +0.000 A 
ATOM      2  C   UNL     1       2.689   5.281  19.622  0.00  0.00    +0.000 A 
ATOM      3  N   UNL     1       1.912   6.278  20.181  0.00  0.00    +0.000 N 
ATOM      4  O   UNL     1       1.199   6.049  21.205  0.00  0.00    +0.000 OA
ATOM      5  C   UNL     1       1.895   7.570  19.607  0.00  0.00    +0.000 A 
ATOM      6  C   UNL     1       1.147   8.625  20.183  0.00  0.00    +0.000 A 
ATOM      7  C   UNL     1       1.143   9.901  19.613  0.00  0.00    +0.000 A 
ATOM      8  C   UNL     1       1.881  10.139  18.465  0.00  0.00    +0.000 A 
ATOM      9  F   UNL     1       1.890  11.363  17.924  0.00  0.00    +0.000 F 
ATOM     10  C   UNL     1       2.606   9.120  17.867  0.00  0.00    +0.000 A 
ATOM     11  C   UNL     1       2.619   7.822  18.430  0.00  0.00    +0.000 A 
ATOM     12  N   UNL     1       3.314   6.777  17.801  0.00  0.00    +0.000 N 
ATOM     13  O   UNL     1       3.802   6.983  16.643  0.00  0.00    +0.000 OA
ENDROOT
BRANCH   2  14
ATOM     14  C   UNL     1       2.664   3.991  20.361  0.00  0.00    +0.000 C 
ATOM     15  F   UNL     1       3.807   3.260  20.231  0.00  0.00    +0.000 F 
ATOM     16  F   UNL     1       2.551   4.149  21.711  0.00  0.00    +0.000 F 
ATOM     17  F   UNL     1       1.651   3.174  19.974  0.00  0.00    +0.000 F 
ENDBRANCH   2  14
BRANCH   1  19
ATOM     18  O   UNL     1       3.321   3.686  17.079  0.00  0.00    +0.000 OA
ATOM     19  C   UNL     1       4.064   4.476  17.660  0.00  0.00    +0.000 C 
BRANCH  19  20
ATOM     20  C   UNL     1       5.507   4.460  17.555  0.00  0.00    +0.000 A 
ATOM     21  C   UNL     1       6.323   4.404  16.442  0.00  0.00    +0.000 A 
ATOM     22  C   UNL     1       7.647   4.613  16.895  0.00  0.00    +0.000 A 
ATOM     23  C   UNL     1       7.569   4.710  18.265  0.00  0.00    +0.000 A 
ATOM     24  O   UNL     1       6.280   4.583  18.682  0.00  0.00    +0.000 OA
ENDBRANCH  19  20
ENDBRANCH   1  19
TORSDOF 3
ENDMDL
MODEL 9
REMARK VINA RESULT:      -7.2      2.552      3.816
REMARK  Name = 
REMARK  3 active torsions:
REMARK  status: ('A' for Active; 'I' for Inactive)
REMARK    1  A    between atoms: C_2  and  C_3
REMARK    2  A    between atoms: C_2  and  C_8
REMARK    3  A    between atoms: C_9  and  C_10
REMARK                            x       y       z     vdW  Elec       q    Type
REMARK                         _______ _______ _______ _____ _____    ______ ____
ROOT
ATOM      1  C   UNL     1       4.801   5.612  17.129  0.00  0.00    +0.000 A 
ATOM      2  C   UNL     1       5.135   4.327  16.670  0.00  0.00    +0.000 A 
ATOM      3  N   UNL     1       4.341   3.252  17.021  0.00  0.00    +0.000 N 
ATOM      4  O   UNL     1       4.562   2.097  16.546  0.00  0.00    +0.000 OA
ATOM      5  C   UNL     1       3.259   3.432  17.915  0.00  0.00    +0.000 A 
ATOM      6  C   UNL     1       2.456   2.343  18.332  0.00  0.00    +0.000 A 
ATOM      7  C   UNL     1       1.394   2.529  19.220  0.00  0.00    +0.000 A 
ATOM      8  C   UNL     1       1.120   3.799  19.701  0.00  0.00    +0.000 A 
ATOM      9  F   UNL     1       0.112   3.979  20.563  0.00  0.00    +0.000 F 
ATOM     10  C   UNL     1       1.876   4.887  19.295  0.00  0.00    +0.000 A 
ATOM     11  C   UNL     1       2.953   4.716  18.394  0.00  0.00    +0.000 A 
ATOM     12  N   UNL     1       3.691   5.823  17.943  0.00  0.00    +0.000 N 
ATOM     13  O   UNL     1       3.277   6.990  18.240  0.00  0.00    +0.000 OA
ENDROOT
BRANCH   2  14
ATOM     14  C   UNL     1       6.274   3.987  15.777  0.00  0.00    +0.000 C 
ATOM     15  F   UNL     1       6.153   2.774  15.167  0.00  0.00    +0.000 F 
ATOM     16  F   UNL     1       6.407   4.847  14.727  0.00  0.00    +0.000 F 
ATOM     17  F   UNL     1       7.469   3.964  16.421  0.00  0.00    +0.000 F 
ENDBRANCH   2  14
BRANCH   1  19
ATOM     18  O   UNL     1       4.965   7.343  15.640  0.00  0.00    +0.000 OA
ATOM     19  C   UNL     1       5.469   6.832  16.640  0.00  0.00    +0.000 C 
BRANCH  19  20
ATOM     20  C   UNL     1       6.581   7.402  17.369  0.00  0.00    +0.000 A 
ATOM     21  C   UNL     1       7.477   6.811  18.238  0.00  0.00    +0.000 A 
ATOM     22  C   UNL     1       8.476   7.776  18.511  0.00  0.00    +0.000 A 
ATOM     23  C   UNL     1       8.092   8.919  17.851  0.00  0.00    +0.000 A 
ATOM     24  O   UNL     1       6.924   8.717  17.182  0.00  0.00    +0.000 OA
ENDBRANCH  19  20
ENDBRANCH   1  19
TORSDOF 3
ENDMDL
