MODEL 1
REMARK VINA RESULT:      -7.3      0.000      0.000
REMARK  Name = 
REMARK  8 active torsions:
REMARK  status: ('A' for Active; 'I' for Inactive)
REMARK    1  A    between atoms: C_1  and  N_2
REMARK    2  A    between atoms: N_2  and  C_3
REMARK    3  A    between atoms: N_2  and  C_4
REMARK    4  A    between atoms: C_4  and  C_5
REMARK    5  A    between atoms: C_5  and  C_6
REMARK    6  A    between atoms: C_6  and  C_7
REMARK    7  A    between atoms: C_7  and  C_8
REMARK    8  A    between atoms: C_7  and  C_14
REMARK                            x       y       z     vdW  Elec       q    Type
REMARK                         _______ _______ _______ _____ _____    ______ ____
ROOT
ATOM      1  C   UNL     1       3.017   6.662  18.891  0.00  0.00    +0.000 C 
ENDROOT
BRANCH   1   2
ATOM      2  C   UNL     1       2.312   5.307  18.983  0.00  0.00    +0.000 A 
ATOM      3  C   UNL     1       1.862   4.608  17.850  0.00  0.00    +0.000 A 
ATOM      4  C   UNL     1       1.255   3.356  17.964  0.00  0.00    +0.000 A 
ATOM      5  C   UNL     1       1.106   2.764  19.218  0.00  0.00    +0.000 A 
ATOM      6  C   UNL     1       1.570   3.431  20.348  0.00  0.00    +0.000 A 
ATOM      7 CL   UNL     1       1.436   2.678  21.891  0.00  0.00    +0.000 Cl
ATOM      8  C   UNL     1       2.159   4.692  20.239  0.00  0.00    +0.000 A 
ENDBRANCH   1   2
BRANCH   1   9
ATOM      9  C   UNL     1       2.095   7.875  19.014  0.00  0.00    +0.000 A 
ATOM     10  C   UNL     1       1.786   8.704  17.928  0.00  0.00    +0.000 A 
ATOM     11  C   UNL     1       1.017   9.840  18.137  0.00  0.00    +0.000 A 
ATOM     12  N   UNL     1       0.551  10.222  19.343  0.00  0.00    +0.000 NA
ATOM     13  C   UNL     1       0.858   9.422  20.383  0.00  0.00    +0.000 A 
ATOM     14  C   UNL     1       1.605   8.256  20.270  0.00  0.00    +0.000 A 
ENDBRANCH   1   9
BRANCH   1  15
ATOM     15  C   UNL     1       3.911   6.742  17.630  0.00  0.00    +0.000 C 
BRANCH  15  16
ATOM     16  C   UNL     1       5.293   6.083  17.786  0.00  0.00    +0.000 C 
BRANCH  16  17
ATOM     17  C   UNL     1       6.330   6.490  16.725  0.00  0.00    +0.000 C 
BRANCH  17  19
ATOM     18  C   UNL     1       7.574   4.624  17.661  0.00  0.00    +0.000 C 
ATOM     19  N   UNL     1       7.365   5.473  16.484  0.00  0.00    +0.000 NA
ATOM     20  C   UNL     1       7.000   4.641  15.335  0.00  0.00    +0.000 C 
ENDBRANCH  17  19
ENDBRANCH  16  17
ENDBRANCH  15  16
ENDBRANCH   1  15
TORSDOF 6
ENDMDL
MODEL 2
REMARK VINA RESULT:      -7.3      2.450      5.849
REMARK  Name = 
REMARK  8 active torsions:
REMARK  status: ('A' for Active; 'I' for Inactive)
REMARK    1  A    between atoms: C_1  and  N_2
REMARK    2  A    between atoms: N_2  and  C_3
REMARK    3  A    between atoms: N_2  and  C_4
REMARK    4  A    between atoms: C_4  and  C_5
REMARK    5  A    between atoms: C_5  and  C_6
REMARK    6  A    between atoms: C_6  and  C_7
REMARK    7  A    between atoms: C_7  and  C_8
REMARK    8  A    between atoms: C_7  and  C_14
REMARK                            x       y       z     vdW  Elec       q    Type
REMARK                         _______ _______ _______ _____ _____    ______ ____
ROOT
ATOM      1  C   UNL     1       3.728   4.728  18.085  0.00  0.00    +0.000 C 
ENDROOT
BRANCH   1   2
ATOM      2  C   UNL     1       3.153   6.117  18.370  0.00  0.00    +0.000 A 
ATOM      3  C   UNL     1       3.172   7.154  17.422  0.00  0.00    +0.000 A 
ATOM      4  C   UNL     1       2.607   8.401  17.701  0.00  0.00    +0.000 A 
ATOM      5  C   UNL     1       1.988   8.628  18.929  0.00  0.00    +0.000 A 
ATOM      6  C   UNL     1       1.938   7.603  19.869  0.00  0.00    +0.000 A 
ATOM      7 CL   UNL     1       1.126   7.865  21.365  0.00  0.00    +0.000 Cl
ATOM      8  C   UNL     1       2.520   6.363  19.602  0.00  0.00    +0.000 A 
ENDBRANCH   1   2
BRANCH   1   9
ATOM      9  C   UNL     1       5.146   4.724  17.514  0.00  0.00    +0.000 A 
ATOM     10  C   UNL     1       5.419   4.472  16.163  0.00  0.00    +0.000 A 
ATOM     11  C   UNL     1       6.737   4.393  15.739  0.00  0.00    +0.000 A 
ATOM     12  N   UNL     1       7.800   4.525  16.556  0.00  0.00    +0.000 NA
ATOM     13  C   UNL     1       7.529   4.762  17.855  0.00  0.00    +0.000 A 
ATOM     14  C   UNL     1       6.245   4.876  18.371  0.00  0.00    +0.000 A 
ENDBRANCH   1   9
BRANCH   1  15
ATOM     15  C   UNL     1       2.756   3.888  17.221  0.00  0.00    +0.000 C 
BRANCH  15  16
ATOM     16  C   UNL     1       2.169   2.658  17.936  0.00  0.00    +0.000 C 
BRANCH  16  17
ATOM     17  C   UNL     1       2.787   2.349  19.310  0.00  0.00    +0.000 C 
BRANCH  17  19
ATOM     18  C   UNL     1       2.431   2.985  21.629  0.00  0.00    +0.000 C 
ATOM     19  N   UNL     1       1.826   2.412  20.422  0.00  0.00    +0.000 NA
ATOM     20  C   UNL     1       0.655   3.205  20.036  0.00  0.00    +0.000 C 
ENDBRANCH  17  19
ENDBRANCH  16  17
ENDBRANCH  15  16
ENDBRANCH   1  15
TORSDOF 6
ENDMDL
MODEL 3
REMARK VINA RESULT:      -7.3      0.251      1.075
REMARK  Name = 
REMARK  8 active torsions:
REMARK  status: ('A' for Active; 'I' for Inactive)
REMARK    1  A    between atoms: C_1  and  N_2
REMARK    2  A    between atoms: N_2  and  C_3
REMARK    3  A    between atoms: N_2  and  C_4
REMARK    4  A    between atoms: C_4  and  C_5
REMARK    5  A    between atoms: C_5  and  C_6
REMARK    6  A    between atoms: C_6  and  C_7
REMARK    7  A    between atoms: C_7  and  C_8
REMARK    8  A    between atoms: C_7  and  C_14
REMARK                            x       y       z     vdW  Elec       q    Type
REMARK                         _______ _______ _______ _____ _____    ______ ____
ROOT
ATOM      1  C   UNL     1       3.126   6.396  18.919  0.00  0.00    +0.000 C 
ENDROOT
BRANCH   1   2
ATOM      2  C   UNL     1       2.319   5.101  19.031  0.00  0.00    +0.000 A 
ATOM      3  C   UNL     1       1.768   4.453  17.913  0.00  0.00    +0.000 A 
ATOM      4  C   UNL     1       1.066   3.252  18.044  0.00  0.00    +0.000 A 
ATOM      5  C   UNL     1       0.921   2.662  19.299  0.00  0.00    +0.000 A 
ATOM      6  C   UNL     1       1.482   3.278  20.413  0.00  0.00    +0.000 A 
ATOM      7 CL   UNL     1       1.350   2.523  21.955  0.00  0.00    +0.000 Cl
ATOM      8  C   UNL     1       2.167   4.488  20.288  0.00  0.00    +0.000 A 
ENDBRANCH   1   2
BRANCH   1   9
ATOM      9  C   UNL     1       2.304   7.679  19.038  0.00  0.00    +0.000 A 
ATOM     10  C   UNL     1       1.700   8.083  20.236  0.00  0.00    +0.000 A 
ATOM     11  C   UNL     1       0.892   9.211  20.243  0.00  0.00    +0.000 A 
ATOM     12  N   UNL     1       0.625   9.953  19.150  0.00  0.00    +0.000 NA
ATOM     13  C   UNL     1       1.205   9.553  18.001  0.00  0.00    +0.000 A 
ATOM     14  C   UNL     1       2.043   8.451  17.898  0.00  0.00    +0.000 A 
ENDBRANCH   1   9
BRANCH   1  15
ATOM     15  C   UNL     1       4.012   6.394  17.649  0.00  0.00    +0.000 C 
BRANCH  15  16
ATOM     16  C   UNL     1       5.496   6.082  17.908  0.00  0.00    +0.000 C 
BRANCH  16  17
ATOM     17  C   UNL     1       6.446   6.438  16.751  0.00  0.00    +0.000 C 
BRANCH  17  19
ATOM     18  C   UNL     1       7.713   4.530  17.564  0.00  0.00    +0.000 C 
ATOM     19  N   UNL     1       7.387   5.363  16.402  0.00  0.00    +0.000 NA
ATOM     20  C   UNL     1       6.827   4.524  15.338  0.00  0.00    +0.000 C 
ENDBRANCH  17  19
ENDBRANCH  16  17
ENDBRANCH  15  16
ENDBRANCH   1  15
TORSDOF 6
ENDMDL
MODEL 4
REMARK VINA RESULT:      -7.2      0.739      1.590
REMARK  Name = 
REMARK  8 active torsions:
REMARK  status: ('A' for Active; 'I' for Inactive)
REMARK    1  A    between atoms: C_1  and  N_2
REMARK    2  A    between atoms: N_2  and  C_3
REMARK    3  A    between atoms: N_2  and  C_4
REMARK    4  A    between atoms: C_4  and  C_5
REMARK    5  A    between atoms: C_5  and  C_6
REMARK    6  A    between atoms: C_6  and  C_7
REMARK    7  A    between atoms: C_7  and  C_8
REMARK    8  A    between atoms: C_7  and  C_14
REMARK                            x       y       z     vdW  Elec       q    Type
REMARK                         _______ _______ _______ _____ _____    ______ ____
ROOT
ATOM      1  C   UNL     1       3.116   6.556  18.923  0.00  0.00    +0.000 C 
ENDROOT
BRANCH   1   2
ATOM      2  C   UNL     1       2.351   5.233  19.011  0.00  0.00    +0.000 A 
ATOM      3  C   UNL     1       1.837   4.579  17.879  0.00  0.00    +0.000 A 
ATOM      4  C   UNL     1       1.174   3.354  17.989  0.00  0.00    +0.000 A 
ATOM      5  C   UNL     1       1.033   2.746  19.236  0.00  0.00    +0.000 A 
ATOM      6  C   UNL     1       1.560   3.368  20.364  0.00  0.00    +0.000 A 
ATOM      7 CL   UNL     1       1.434   2.593  21.896  0.00  0.00    +0.000 Cl
ATOM      8  C   UNL     1       2.204   4.602  20.260  0.00  0.00    +0.000 A 
ENDBRANCH   1   2
BRANCH   1   9
ATOM      9  C   UNL     1       2.250   7.809  19.048  0.00  0.00    +0.000 A 
ATOM     10  C   UNL     1       1.660   8.206  20.255  0.00  0.00    +0.000 A 
ATOM     11  C   UNL     1       0.812   9.303  20.269  0.00  0.00    +0.000 A 
ATOM     12  N   UNL     1       0.491  10.021  19.174  0.00  0.00    +0.000 NA
ATOM     13  C   UNL     1       1.058   9.628  18.016  0.00  0.00    +0.000 A 
ATOM     14  C   UNL     1       1.933   8.556  17.905  0.00  0.00    +0.000 A 
ENDBRANCH   1   9
BRANCH   1  15
ATOM     15  C   UNL     1       4.015   6.598  17.663  0.00  0.00    +0.000 C 
BRANCH  15  16
ATOM     16  C   UNL     1       5.285   5.735  17.757  0.00  0.00    +0.000 C 
BRANCH  16  17
ATOM     17  C   UNL     1       6.412   6.131  16.789  0.00  0.00    +0.000 C 
BRANCH  17  19
ATOM     18  C   UNL     1       7.722   8.024  17.568  0.00  0.00    +0.000 C 
ATOM     19  N   UNL     1       7.648   6.563  17.459  0.00  0.00    +0.000 NA
ATOM     20  C   UNL     1       7.737   5.966  18.794  0.00  0.00    +0.000 C 
ENDBRANCH  17  19
ENDBRANCH  16  17
ENDBRANCH  15  16
ENDBRANCH   1  15
TORSDOF 6
ENDMDL
MODEL 5
REMARK VINA RESULT:      -7.2      0.910      1.615
REMARK  Name = 
REMARK  8 active torsions:
REMARK  status: ('A' for Active; 'I' for Inactive)
REMARK    1  A    between atoms: C_1  and  N_2
REMARK    2  A    between atoms: N_2  and  C_3
REMARK    3  A    between atoms: N_2  and  C_4
REMARK    4  A    between atoms: C_4  and  C_5
REMARK    5  A    between atoms: C_5  and  C_6
REMARK    6  A    between atoms: C_6  and  C_7
REMARK    7  A    between atoms: C_7  and  C_8
REMARK    8  A    between atoms: C_7  and  C_14
REMARK                            x       y       z     vdW  Elec       q    Type
REMARK                         _______ _______ _______ _____ _____    ______ ____
ROOT
ATOM      1  C   UNL     1       3.099   6.446  19.020  0.00  0.00    +0.000 C 
ENDROOT
BRANCH   1   2
ATOM      2  C   UNL     1       2.287   5.152  19.113  0.00  0.00    +0.000 A 
ATOM      3  C   UNL     1       1.714   4.535  17.988  0.00  0.00    +0.000 A 
ATOM      4  C   UNL     1       1.007   3.335  18.102  0.00  0.00    +0.000 A 
ATOM      5  C   UNL     1       0.879   2.715  19.344  0.00  0.00    +0.000 A 
ATOM      6  C   UNL     1       1.463   3.300  20.463  0.00  0.00    +0.000 A 
ATOM      7 CL   UNL     1       1.353   2.507  21.988  0.00  0.00    +0.000 Cl
ATOM      8  C   UNL     1       2.152   4.509  20.357  0.00  0.00    +0.000 A 
ENDBRANCH   1   2
BRANCH   1   9
ATOM      9  C   UNL     1       2.273   7.730  19.082  0.00  0.00    +0.000 A 
ATOM     10  C   UNL     1       1.691   8.200  20.267  0.00  0.00    +0.000 A 
ATOM     11  C   UNL     1       0.878   9.323  20.227  0.00  0.00    +0.000 A 
ATOM     12  N   UNL     1       0.586  10.000  19.098  0.00  0.00    +0.000 NA
ATOM     13  C   UNL     1       1.145   9.538  17.963  0.00  0.00    +0.000 A 
ATOM     14  C   UNL     1       1.987   8.435  17.905  0.00  0.00    +0.000 A 
ENDBRANCH   1   9
BRANCH   1  15
ATOM     15  C   UNL     1       4.042   6.425  17.792  0.00  0.00    +0.000 C 
BRANCH  15  16
ATOM     16  C   UNL     1       5.079   5.287  17.803  0.00  0.00    +0.000 C 
BRANCH  16  17
ATOM     17  C   UNL     1       5.959   5.224  19.063  0.00  0.00    +0.000 C 
BRANCH  17  19
ATOM     18  C   UNL     1       7.691   4.498  17.520  0.00  0.00    +0.000 C 
ATOM     19  N   UNL     1       7.402   5.192  18.779  0.00  0.00    +0.000 NA
ATOM     20  C   UNL     1       7.938   6.555  18.723  0.00  0.00    +0.000 C 
ENDBRANCH  17  19
ENDBRANCH  16  17
ENDBRANCH  15  16
ENDBRANCH   1  15
TORSDOF 6
ENDMDL
MODEL 6
REMARK VINA RESULT:      -7.1      2.464      5.649
REMARK  Name = 
REMARK  8 active torsions:
REMARK  status: ('A' for Active; 'I' for Inactive)
REMARK    1  A    between atoms: C_1  and  N_2
REMARK    2  A    between atoms: N_2  and  C_3
REMARK    3  A    between atoms: N_2  and  C_4
REMARK    4  A    between atoms: C_4  and  C_5
REMARK    5  A    between atoms: C_5  and  C_6
REMARK    6  A    between atoms: C_6  and  C_7
REMARK    7  A    between atoms: C_7  and  C_8
REMARK    8  A    between atoms: C_7  and  C_14
REMARK                            x       y       z     vdW  Elec       q    Type
REMARK                         _______ _______ _______ _____ _____    ______ ____
ROOT
ATOM      1  C   UNL     1       3.496   5.475  18.206  0.00  0.00    +0.000 C 
ENDROOT
BRANCH   1   2
ATOM      2  C   UNL     1       2.821   6.816  18.505  0.00  0.00    +0.000 A 
ATOM      3  C   UNL     1       2.629   7.803  17.525  0.00  0.00    +0.000 A 
ATOM      4  C   UNL     1       1.977   9.003  17.822  0.00  0.00    +0.000 A 
ATOM      5  C   UNL     1       1.481   9.229  19.105  0.00  0.00    +0.000 A 
ATOM      6  C   UNL     1       1.640   8.249  20.081  0.00  0.00    +0.000 A 
ATOM      7 CL   UNL     1       0.981   8.504  21.651  0.00  0.00    +0.000 Cl
ATOM      8  C   UNL     1       2.309   7.058  19.793  0.00  0.00    +0.000 A 
ENDBRANCH   1   2
BRANCH   1   9
ATOM      9  C   UNL     1       4.855   5.580  17.515  0.00  0.00    +0.000 A 
ATOM     10  C   UNL     1       5.951   6.233  18.094  0.00  0.00    +0.000 A 
ATOM     11  C   UNL     1       7.124   6.368  17.367  0.00  0.00    +0.000 A 
ATOM     12  N   UNL     1       7.284   5.921  16.105  0.00  0.00    +0.000 NA
ATOM     13  C   UNL     1       6.223   5.299  15.553  0.00  0.00    +0.000 A 
ATOM     14  C   UNL     1       5.014   5.100  16.208  0.00  0.00    +0.000 A 
ENDBRANCH   1   9
BRANCH   1  15
ATOM     15  C   UNL     1       2.537   4.524  17.450  0.00  0.00    +0.000 C 
BRANCH  15  16
ATOM     16  C   UNL     1       1.453   3.879  18.333  0.00  0.00    +0.000 C 
BRANCH  16  17
ATOM     17  C   UNL     1       1.748   2.435  18.772  0.00  0.00    +0.000 C 
BRANCH  17  19
ATOM     18  C   UNL     1       3.525   2.551  20.425  0.00  0.00    +0.000 C 
ATOM     19  N   UNL     1       2.098   2.305  20.194  0.00  0.00    +0.000 NA
ATOM     20  C   UNL     1       1.302   3.235  20.999  0.00  0.00    +0.000 C 
ENDBRANCH  17  19
ENDBRANCH  16  17
ENDBRANCH  15  16
ENDBRANCH   1  15
TORSDOF 6
ENDMDL
MODEL 7
REMARK VINA RESULT:      -7.1      1.158      5.584
REMARK  Name = 
REMARK  8 active torsions:
REMARK  status: ('A' for Active; 'I' for Inactive)
REMARK    1  A    between atoms: C_1  and  N_2
REMARK    2  A    between atoms: N_2  and  C_3
REMARK    3  A    between atoms: N_2  and  C_4
REMARK    4  A    between atoms: C_4  and  C_5
REMARK    5  A    between atoms: C_5  and  C_6
REMARK    6  A    between atoms: C_6  and  C_7
REMARK    7  A    between atoms: C_7  and  C_8
REMARK    8  A    between atoms: C_7  and  C_14
REMARK                            x       y       z     vdW  Elec       q    Type
REMARK                         _______ _______ _______ _____ _____    ______ ____
ROOT
ATOM      1  C   UNL     1       3.537   6.184  17.496  0.00  0.00    +0.000 C 
ENDROOT
BRANCH   1   2
ATOM      2  C   UNL     1       2.780   5.405  18.574  0.00  0.00    +0.000 A 
ATOM      3  C   UNL     1       2.682   5.851  19.902  0.00  0.00    +0.000 A 
ATOM      4  C   UNL     1       1.952   5.135  20.855  0.00  0.00    +0.000 A 
ATOM      5  C   UNL     1       1.285   3.967  20.490  0.00  0.00    +0.000 A 
ATOM      6  C   UNL     1       1.350   3.526  19.171  0.00  0.00    +0.000 A 
ATOM      7 CL   UNL     1       0.481   2.113  18.707  0.00  0.00    +0.000 Cl
ATOM      8  C   UNL     1       2.095   4.227  18.222  0.00  0.00    +0.000 A 
ENDBRANCH   1   2
BRANCH   1   9
ATOM      9  C   UNL     1       4.976   5.725  17.263  0.00  0.00    +0.000 A 
ATOM     10  C   UNL     1       5.494   5.476  15.985  0.00  0.00    +0.000 A 
ATOM     11  C   UNL     1       6.781   4.973  15.859  0.00  0.00    +0.000 A 
ATOM     12  N   UNL     1       7.581   4.682  16.905  0.00  0.00    +0.000 NA
ATOM     13  C   UNL     1       7.072   4.918  18.130  0.00  0.00    +0.000 A 
ATOM     14  C   UNL     1       5.804   5.438  18.356  0.00  0.00    +0.000 A 
ENDBRANCH   1   9
BRANCH   1  15
ATOM     15  C   UNL     1       3.451   7.709  17.745  0.00  0.00    +0.000 C 
BRANCH  15  16
ATOM     16  C   UNL     1       2.017   8.265  17.806  0.00  0.00    +0.000 C 
BRANCH  16  17
ATOM     17  C   UNL     1       1.919   9.792  17.966  0.00  0.00    +0.000 C 
BRANCH  17  19
ATOM     18  C   UNL     1      -0.430  10.267  18.371  0.00  0.00    +0.000 C 
ATOM     19  N   UNL     1       0.915  10.223  18.952  0.00  0.00    +0.000 NA
ATOM     20  C   UNL     1       0.922   9.325  20.109  0.00  0.00    +0.000 C 
ENDBRANCH  17  19
ENDBRANCH  16  17
ENDBRANCH  15  16
ENDBRANCH   1  15
TORSDOF 6
ENDMDL
MODEL 8
REMARK VINA RESULT:      -7.1      1.236      5.629
REMARK  Name = 
REMARK  8 active torsions:
REMARK  status: ('A' for Active; 'I' for Inactive)
REMARK    1  A    between atoms: C_1  and  N_2
REMARK    2  A    between atoms: N_2  and  C_3
REMARK    3  A    between atoms: N_2  and  C_4
REMARK    4  A    between atoms: C_4  and  C_5
REMARK    5  A    between atoms: C_5  and  C_6
REMARK    6  A    between atoms: C_6  and  C_7
REMARK    7  A    between atoms: C_7  and  C_8
REMARK    8  A    between atoms: C_7  and  C_14
REMARK                            x       y       z     vdW  Elec       q    Type
REMARK                         _______ _______ _______ _____ _____    ______ ____
ROOT
ATOM      1  C   UNL     1       3.477   6.132  17.504  0.00  0.00    +0.000 C 
ENDROOT
BRANCH   1   2
ATOM      2  C   UNL     1       2.711   5.358  18.579  0.00  0.00    +0.000 A 
ATOM      3  C   UNL     1       2.593   5.816  19.903  0.00  0.00    +0.000 A 
ATOM      4  C   UNL     1       1.856   5.104  20.853  0.00  0.00    +0.000 A 
ATOM      5  C   UNL     1       1.200   3.928  20.490  0.00  0.00    +0.000 A 
ATOM      6  C   UNL     1       1.286   3.475  19.176  0.00  0.00    +0.000 A 
ATOM      7 CL   UNL     1       0.432   2.053  18.714  0.00  0.00    +0.000 Cl
ATOM      8  C   UNL     1       2.038   4.173  18.230  0.00  0.00    +0.000 A 
ENDBRANCH   1   2
BRANCH   1   9
ATOM      9  C   UNL     1       4.896   5.630  17.239  0.00  0.00    +0.000 A 
ATOM     10  C   UNL     1       6.020   6.161  17.885  0.00  0.00    +0.000 A 
ATOM     11  C   UNL     1       7.284   5.718  17.524  0.00  0.00    +0.000 A 
ATOM     12  N   UNL     1       7.515   4.805  16.559  0.00  0.00    +0.000 NA
ATOM     13  C   UNL     1       6.428   4.304  15.939  0.00  0.00    +0.000 A 
ATOM     14  C   UNL     1       5.123   4.671  16.243  0.00  0.00    +0.000 A 
ENDBRANCH   1   9
BRANCH   1  15
ATOM     15  C   UNL     1       3.446   7.655  17.783  0.00  0.00    +0.000 C 
BRANCH  15  16
ATOM     16  C   UNL     1       2.059   8.303  17.627  0.00  0.00    +0.000 C 
BRANCH  16  17
ATOM     17  C   UNL     1       1.995   9.795  17.995  0.00  0.00    +0.000 C 
BRANCH  17  19
ATOM     18  C   UNL     1       0.878   9.390  20.115  0.00  0.00    +0.000 C 
ATOM     19  N   UNL     1       0.858  10.147  18.859  0.00  0.00    +0.000 NA
ATOM     20  C   UNL     1       0.869  11.583  19.151  0.00  0.00    +0.000 C 
ENDBRANCH  17  19
ENDBRANCH  16  17
ENDBRANCH  15  16
ENDBRANCH   1  15
TORSDOF 6
ENDMDL
MODEL 9
REMARK VINA RESULT:      -7.0      1.081      5.420
REMARK  Name = 
REMARK  8 active torsions:
REMARK  status: ('A' for Active; 'I' for Inactive)
REMARK    1  A    between atoms: C_1  and  N_2
REMARK    2  A    between atoms: N_2  and  C_3
REMARK    3  A    between atoms: N_2  and  C_4
REMARK    4  A    between atoms: C_4  and  C_5
REMARK    5  A    between atoms: C_5  and  C_6
REMARK    6  A    between atoms: C_6  and  C_7
REMARK    7  A    between atoms: C_7  and  C_8
REMARK    8  A    between atoms: C_7  and  C_14
REMARK                            x       y       z     vdW  Elec       q    Type
REMARK                         _______ _______ _______ _____ _____    ______ ____
ROOT
ATOM      1  C   UNL     1       3.657   5.511  17.505  0.00  0.00    +0.000 C 
ENDROOT
BRANCH   1   2
ATOM      2  C   UNL     1       2.966   4.286  18.109  0.00  0.00    +0.000 A 
ATOM      3  C   UNL     1       2.682   3.131  17.362  0.00  0.00    +0.000 A 
ATOM      4  C   UNL     1       2.083   2.015  17.952  0.00  0.00    +0.000 A 
ATOM      5  C   UNL     1       1.776   2.025  19.312  0.00  0.00    +0.000 A 
ATOM      6  C   UNL     1       2.075   3.152  20.072  0.00  0.00    +0.000 A 
ATOM      7 CL   UNL     1       1.747   3.145  21.762  0.00  0.00    +0.000 Cl
ATOM      8  C   UNL     1       2.655   4.276  19.481  0.00  0.00    +0.000 A 
ENDBRANCH   1   2
BRANCH   1   9
ATOM      9  C   UNL     1       5.100   5.280  17.058  0.00  0.00    +0.000 A 
ATOM     10  C   UNL     1       5.487   5.288  15.711  0.00  0.00    +0.000 A 
ATOM     11  C   UNL     1       6.797   4.979  15.379  0.00  0.00    +0.000 A 
ATOM     12  N   UNL     1       7.744   4.645  16.279  0.00  0.00    +0.000 NA
ATOM     13  C   UNL     1       7.362   4.634  17.571  0.00  0.00    +0.000 A 
ATOM     14  C   UNL     1       6.080   4.947  18.003  0.00  0.00    +0.000 A 
ENDBRANCH   1   9
BRANCH   1  15
ATOM     15  C   UNL     1       3.530   6.740  18.438  0.00  0.00    +0.000 C 
BRANCH  15  16
ATOM     16  C   UNL     1       3.094   8.035  17.730  0.00  0.00    +0.000 C 
BRANCH  16  17
ATOM     17  C   UNL     1       1.618   8.420  17.934  0.00  0.00    +0.000 C 
BRANCH  17  19
ATOM     18  C   UNL     1       0.294  10.359  18.558  0.00  0.00    +0.000 C 
ATOM     19  N   UNL     1       1.413   9.486  18.927  0.00  0.00    +0.000 NA
ATOM     20  C   UNL     1       1.168   8.906  20.250  0.00  0.00    +0.000 C 
ENDBRANCH  17  19
ENDBRANCH  16  17
ENDBRANCH  15  16
ENDBRANCH   1  15
TORSDOF 6
ENDMDL
