MODEL 1
REMARK VINA RESULT:      -9.0      0.000      0.000
REMARK  Name = 
REMARK  6 active torsions:
REMARK  status: ('A' for Active; 'I' for Inactive)
REMARK    1  A    between atoms: C_2  and  C_25
REMARK    2  A    between atoms: N_3  and  C_4
REMARK    3  A    between atoms: C_6  and  C_7
REMARK    4  A    between atoms: C_11  and  N_12
REMARK    5  A    between atoms: N_12  and  S_13
REMARK    6  A    between atoms: S_13  and  C_16
REMARK                            x       y       z     vdW  Elec       q    Type
REMARK                         _______ _______ _______ _____ _____    ______ ____
ROOT
ATOM      1  C   UNL     1       6.644   5.644  17.164  0.00  0.00    +0.000 A 
ATOM      2  C   UNL     1       6.776   5.279  15.815  0.00  0.00    +0.000 A 
ATOM      3  C   UNL     1       6.086   4.176  15.311  0.00  0.00    +0.000 A 
ATOM      4  C   UNL     1       5.262   3.426  16.150  0.00  0.00    +0.000 A 
ATOM      5  C   UNL     1       5.104   3.800  17.483  0.00  0.00    +0.000 A 
ATOM      6  C   UNL     1       5.783   4.905  17.988  0.00  0.00    +0.000 A 
ENDROOT
BRANCH   1   9
ATOM      7  C   UNL     1       8.346   8.751  18.072  0.00  0.00    +0.000 A 
ATOM      8  C   UNL     1       7.568   8.062  17.175  0.00  0.00    +0.000 A 
ATOM      9  C   UNL     1       7.399   6.763  17.724  0.00  0.00    +0.000 A 
ATOM     10  N   UNL     1       8.075   6.651  18.880  0.00  0.00    +0.000 NA
ATOM     11  N   UNL     1       8.641   7.851  19.058  0.00  0.00    +0.000 N 
ATOM     12  H   UNL     1       9.190   7.991  19.898  0.00  0.00    +0.000 HD
BRANCH   7  15
ATOM     13  O   UNL     1       9.421  10.204  20.253  0.00  0.00    +0.000 OA
ATOM     14  C   UNL     1       9.282  10.762  19.177  0.00  0.00    +0.000 C 
ATOM     15  N   UNL     1       8.768  10.072  18.025  0.00  0.00    +0.000 N 
ATOM     16  H   UNL     1       8.815  10.528  17.124  0.00  0.00    +0.000 HD
BRANCH  14  17
ATOM     17  C   UNL     1       9.727  12.151  18.949  0.00  0.00    +0.000 A 
ATOM     18  C   UNL     1      11.021  12.360  18.457  0.00  0.00    +0.000 A 
ATOM     19  C   UNL     1      11.463  13.657  18.201  0.00  0.00    +0.000 A 
ATOM     20  C   UNL     1      10.621  14.738  18.447  0.00  0.00    +0.000 A 
ATOM     21  C   UNL     1       9.337  14.533  18.957  0.00  0.00    +0.000 A 
ATOM     22  C   UNL     1       8.885  13.238  19.212  0.00  0.00    +0.000 A 
ENDBRANCH  14  17
ENDBRANCH   7  15
ENDBRANCH   1   9
BRANCH   5  23
ATOM     23  N   UNL     1       4.272   3.021  18.329  0.00  0.00    +0.000 N 
ATOM     24  H   UNL     1       4.515   2.040  18.455  0.00  0.00    +0.000 HD
BRANCH  23  25
ATOM     25  S   UNL     1       2.602   3.273  18.299  0.00  0.00    +0.000 S 
ATOM     26  O   UNL     1       2.217   3.257  16.903  0.00  0.00    +0.000 OA
ATOM     27  O   UNL     1       1.967   2.399  19.263  0.00  0.00    +0.000 OA
BRANCH  25  28
ATOM     28  C   UNL     1       2.413   4.950  18.874  0.00  0.00    +0.000 A 
ATOM     29  C   UNL     1       2.452   6.005  17.954  0.00  0.00    +0.000 A 
ATOM     30  C   UNL     1       2.272   7.315  18.399  0.00  0.00    +0.000 A 
ATOM     31  C   UNL     1       2.044   7.568  19.753  0.00  0.00    +0.000 A 
ATOM     32  C   UNL     1       1.985   6.512  20.664  0.00  0.00    +0.000 A 
ATOM     33  C   UNL     1       2.159   5.198  20.227  0.00  0.00    +0.000 A 
ENDBRANCH  25  28
ENDBRANCH  23  25
ENDBRANCH   5  23
TORSDOF 6
ENDMDL
MODEL 2
REMARK VINA RESULT:      -8.7      1.243      1.717
REMARK  Name = 
REMARK  6 active torsions:
REMARK  status: ('A' for Active; 'I' for Inactive)
REMARK    1  A    between atoms: C_2  and  C_25
REMARK    2  A    between atoms: N_3  and  C_4
REMARK    3  A    between atoms: C_6  and  C_7
REMARK    4  A    between atoms: C_11  and  N_12
REMARK    5  A    between atoms: N_12  and  S_13
REMARK    6  A    between atoms: S_13  and  C_16
REMARK                            x       y       z     vdW  Elec       q    Type
REMARK                         _______ _______ _______ _____ _____    ______ ____
ROOT
ATOM      1  C   UNL     1       6.566   6.061  17.248  0.00  0.00    +0.000 A 
ATOM      2  C   UNL     1       7.085   5.066  16.403  0.00  0.00    +0.000 A 
ATOM      3  C   UNL     1       6.261   4.043  15.929  0.00  0.00    +0.000 A 
ATOM      4  C   UNL     1       4.917   4.003  16.298  0.00  0.00    +0.000 A 
ATOM      5  C   UNL     1       4.390   5.004  17.112  0.00  0.00    +0.000 A 
ATOM      6  C   UNL     1       5.205   6.030  17.580  0.00  0.00    +0.000 A 
ENDROOT
BRANCH   1   9
ATOM      7  C   UNL     1       8.480   9.035  18.181  0.00  0.00    +0.000 A 
ATOM      8  C   UNL     1       7.580   8.441  17.330  0.00  0.00    +0.000 A 
ATOM      9  C   UNL     1       7.423   7.109  17.798  0.00  0.00    +0.000 A 
ATOM     10  N   UNL     1       8.218   6.887  18.859  0.00  0.00    +0.000 NA
ATOM     11  N   UNL     1       8.847   8.052  19.058  0.00  0.00    +0.000 N 
ATOM     12  H   UNL     1       9.491   8.110  19.838  0.00  0.00    +0.000 HD
BRANCH   7  15
ATOM     13  O   UNL     1       9.352  10.458  20.470  0.00  0.00    +0.000 OA
ATOM     14  C   UNL     1       9.350  11.018  19.386  0.00  0.00    +0.000 C 
ATOM     15  N   UNL     1       8.946  10.341  18.183  0.00  0.00    +0.000 N 
ATOM     16  H   UNL     1       9.107  10.794  17.293  0.00  0.00    +0.000 HD
BRANCH  14  17
ATOM     17  C   UNL     1       9.861  12.392  19.211  0.00  0.00    +0.000 A 
ATOM     18  C   UNL     1       9.460  13.109  18.077  0.00  0.00    +0.000 A 
ATOM     19  C   UNL     1       9.899  14.420  17.897  0.00  0.00    +0.000 A 
ATOM     20  C   UNL     1      10.744  15.004  18.838  0.00  0.00    +0.000 A 
ATOM     21  C   UNL     1      11.161  14.283  19.959  0.00  0.00    +0.000 A 
ATOM     22  C   UNL     1      10.723  12.972  20.149  0.00  0.00    +0.000 A 
ENDBRANCH  14  17
ENDBRANCH   7  15
ENDBRANCH   1   9
BRANCH   5  23
ATOM     23  N   UNL     1       3.023   4.944  17.489  0.00  0.00    +0.000 N 
ATOM     24  H   UNL     1       2.360   5.495  16.946  0.00  0.00    +0.000 HD
BRANCH  23  25
ATOM     25  S   UNL     1       2.625   4.888  19.130  0.00  0.00    +0.000 S 
ATOM     26  O   UNL     1       1.479   4.010  19.236  0.00  0.00    +0.000 OA
ATOM     27  O   UNL     1       3.824   4.656  19.907  0.00  0.00    +0.000 OA
BRANCH  25  28
ATOM     28  C   UNL     1       2.053   6.538  19.486  0.00  0.00    +0.000 A 
ATOM     29  C   UNL     1       1.568   6.841  20.764  0.00  0.00    +0.000 A 
ATOM     30  C   UNL     1       1.151   8.141  21.052  0.00  0.00    +0.000 A 
ATOM     31  C   UNL     1       1.228   9.134  20.074  0.00  0.00    +0.000 A 
ATOM     32  C   UNL     1       1.733   8.834  18.807  0.00  0.00    +0.000 A 
ATOM     33  C   UNL     1       2.156   7.537  18.511  0.00  0.00    +0.000 A 
ENDBRANCH  25  28
ENDBRANCH  23  25
ENDBRANCH   5  23
TORSDOF 6
ENDMDL
MODEL 3
REMARK VINA RESULT:      -8.7      5.228      7.057
REMARK  Name = 
REMARK  6 active torsions:
REMARK  status: ('A' for Active; 'I' for Inactive)
REMARK    1  A    between atoms: C_2  and  C_25
REMARK    2  A    between atoms: N_3  and  C_4
REMARK    3  A    between atoms: C_6  and  C_7
REMARK    4  A    between atoms: C_11  and  N_12
REMARK    5  A    between atoms: N_12  and  S_13
REMARK    6  A    between atoms: S_13  and  C_16
REMARK                            x       y       z     vdW  Elec       q    Type
REMARK                         _______ _______ _______ _____ _____    ______ ____
ROOT
ATOM      1  C   UNL     1       3.970   6.493  17.639  0.00  0.00    +0.000 A 
ATOM      2  C   UNL     1       4.615   6.505  16.391  0.00  0.00    +0.000 A 
ATOM      3  C   UNL     1       5.545   5.516  16.067  0.00  0.00    +0.000 A 
ATOM      4  C   UNL     1       5.841   4.510  16.987  0.00  0.00    +0.000 A 
ATOM      5  C   UNL     1       5.183   4.476  18.214  0.00  0.00    +0.000 A 
ATOM      6  C   UNL     1       4.249   5.455  18.539  0.00  0.00    +0.000 A 
ENDROOT
BRANCH   1   9
ATOM      7  C   UNL     1       1.567   8.823  19.111  0.00  0.00    +0.000 A 
ATOM      8  C   UNL     1       2.287   7.659  19.221  0.00  0.00    +0.000 A 
ATOM      9  C   UNL     1       3.034   7.549  18.019  0.00  0.00    +0.000 A 
ATOM     10  N   UNL     1       2.755   8.575  17.197  0.00  0.00    +0.000 NA
ATOM     11  N   UNL     1       1.866   9.315  17.870  0.00  0.00    +0.000 N 
ATOM     12  H   UNL     1       1.532  10.163  17.430  0.00  0.00    +0.000 HD
BRANCH   7  15
ATOM     13  O   UNL     1       0.502  11.442  18.922  0.00  0.00    +0.000 OA
ATOM     14  C   UNL     1       0.223  10.754  19.891  0.00  0.00    +0.000 C 
ATOM     15  N   UNL     1       0.708   9.407  20.030  0.00  0.00    +0.000 N 
ATOM     16  H   UNL     1       0.328   8.827  20.767  0.00  0.00    +0.000 HD
BRANCH  14  17
ATOM     17  C   UNL     1      -0.717  11.211  20.934  0.00  0.00    +0.000 A 
ATOM     18  C   UNL     1      -0.595  10.669  22.219  0.00  0.00    +0.000 A 
ATOM     19  C   UNL     1      -1.446  11.102  23.236  0.00  0.00    +0.000 A 
ATOM     20  C   UNL     1      -2.419  12.060  22.964  0.00  0.00    +0.000 A 
ATOM     21  C   UNL     1      -2.555  12.587  21.678  0.00  0.00    +0.000 A 
ATOM     22  C   UNL     1      -1.706  12.163  20.656  0.00  0.00    +0.000 A 
ENDBRANCH  14  17
ENDBRANCH   7  15
ENDBRANCH   1   9
BRANCH   5  23
ATOM     23  N   UNL     1       5.504   3.453  19.146  0.00  0.00    +0.000 N 
ATOM     24  H   UNL     1       6.489   3.284  19.338  0.00  0.00    +0.000 HD
BRANCH  23  25
ATOM     25  S   UNL     1       4.591   2.032  19.153  0.00  0.00    +0.000 S 
ATOM     26  O   UNL     1       4.497   1.607  17.773  0.00  0.00    +0.000 OA
ATOM     27  O   UNL     1       5.094   1.144  20.181  0.00  0.00    +0.000 OA
BRANCH  25  28
ATOM     28  C   UNL     1       2.965   2.573  19.646  0.00  0.00    +0.000 A 
ATOM     29  C   UNL     1       2.756   3.034  20.951  0.00  0.00    +0.000 A 
ATOM     30  C   UNL     1       1.491   3.488  21.328  0.00  0.00    +0.000 A 
ATOM     31  C   UNL     1       0.445   3.491  20.403  0.00  0.00    +0.000 A 
ATOM     32  C   UNL     1       0.663   3.051  19.096  0.00  0.00    +0.000 A 
ATOM     33  C   UNL     1       1.926   2.599  18.709  0.00  0.00    +0.000 A 
ENDBRANCH  25  28
ENDBRANCH  23  25
ENDBRANCH   5  23
TORSDOF 6
ENDMDL
MODEL 4
REMARK VINA RESULT:      -8.6      5.108      7.420
REMARK  Name = 
REMARK  6 active torsions:
REMARK  status: ('A' for Active; 'I' for Inactive)
REMARK    1  A    between atoms: C_2  and  C_25
REMARK    2  A    between atoms: N_3  and  C_4
REMARK    3  A    between atoms: C_6  and  C_7
REMARK    4  A    between atoms: C_11  and  N_12
REMARK    5  A    between atoms: N_12  and  S_13
REMARK    6  A    between atoms: S_13  and  C_16
REMARK                            x       y       z     vdW  Elec       q    Type
REMARK                         _______ _______ _______ _____ _____    ______ ____
ROOT
ATOM      1  C   UNL     1       2.987   5.839  18.793  0.00  0.00    +0.000 A 
ATOM      2  C   UNL     1       2.271   4.775  18.222  0.00  0.00    +0.000 A 
ATOM      3  C   UNL     1       2.904   3.559  17.956  0.00  0.00    +0.000 A 
ATOM      4  C   UNL     1       4.257   3.399  18.254  0.00  0.00    +0.000 A 
ATOM      5  C   UNL     1       4.966   4.441  18.848  0.00  0.00    +0.000 A 
ATOM      6  C   UNL     1       4.337   5.652  19.122  0.00  0.00    +0.000 A 
ENDROOT
BRANCH   1   9
ATOM      7  C   UNL     1       1.319   8.880  19.953  0.00  0.00    +0.000 A 
ATOM      8  C   UNL     1       1.754   7.606  20.226  0.00  0.00    +0.000 A 
ATOM      9  C   UNL     1       2.357   7.136  19.029  0.00  0.00    +0.000 A 
ATOM     10  N   UNL     1       2.259   8.061  18.060  0.00  0.00    +0.000 NA
ATOM     11  N   UNL     1       1.624   9.089  18.636  0.00  0.00    +0.000 N 
ATOM     12  H   UNL     1       1.462   9.915  18.074  0.00  0.00    +0.000 HD
BRANCH   7  15
ATOM     13  O   UNL     1       1.344  11.694  19.632  0.00  0.00    +0.000 OA
ATOM     14  C   UNL     1       0.769  11.210  20.593  0.00  0.00    +0.000 C 
ATOM     15  N   UNL     1       0.697   9.788  20.797  0.00  0.00    +0.000 N 
ATOM     16  H   UNL     1       0.083   9.431  21.517  0.00  0.00    +0.000 HD
BRANCH  14  17
ATOM     17  C   UNL     1       0.016  12.037  21.557  0.00  0.00    +0.000 A 
ATOM     18  C   UNL     1       0.302  13.406  21.620  0.00  0.00    +0.000 A 
ATOM     19  C   UNL     1      -0.412  14.222  22.496  0.00  0.00    +0.000 A 
ATOM     20  C   UNL     1      -1.396  13.670  23.312  0.00  0.00    +0.000 A 
ATOM     21  C   UNL     1      -1.668  12.301  23.265  0.00  0.00    +0.000 A 
ATOM     22  C   UNL     1      -0.962  11.478  22.388  0.00  0.00    +0.000 A 
ENDBRANCH  14  17
ENDBRANCH   7  15
ENDBRANCH   1   9
BRANCH   5  23
ATOM     23  N   UNL     1       6.346   4.268  19.134  0.00  0.00    +0.000 N 
ATOM     24  H   UNL     1       6.632   4.307  20.111  0.00  0.00    +0.000 HD
BRANCH  23  25
ATOM     25  S   UNL     1       7.493   4.950  18.098  0.00  0.00    +0.000 S 
ATOM     26  O   UNL     1       7.646   6.327  18.516  0.00  0.00    +0.000 OA
ATOM     27  O   UNL     1       8.633   4.064  17.996  0.00  0.00    +0.000 OA
BRANCH  25  28
ATOM     28  C   UNL     1       6.675   4.973  16.514  0.00  0.00    +0.000 A 
ATOM     29  C   UNL     1       6.775   3.861  15.668  0.00  0.00    +0.000 A 
ATOM     30  C   UNL     1       6.108   3.865  14.442  0.00  0.00    +0.000 A 
ATOM     31  C   UNL     1       5.338   4.969  14.069  0.00  0.00    +0.000 A 
ATOM     32  C   UNL     1       5.223   6.066  14.924  0.00  0.00    +0.000 A 
ATOM     33  C   UNL     1       5.883   6.069  16.154  0.00  0.00    +0.000 A 
ENDBRANCH  25  28
ENDBRANCH  23  25
ENDBRANCH   5  23
TORSDOF 6
ENDMDL
MODEL 5
REMARK VINA RESULT:      -8.6      5.099      7.807
REMARK  Name = 
REMARK  6 active torsions:
REMARK  status: ('A' for Active; 'I' for Inactive)
REMARK    1  A    between atoms: C_2  and  C_25
REMARK    2  A    between atoms: N_3  and  C_4
REMARK    3  A    between atoms: C_6  and  C_7
REMARK    4  A    between atoms: C_11  and  N_12
REMARK    5  A    between atoms: N_12  and  S_13
REMARK    6  A    between atoms: S_13  and  C_16
REMARK                            x       y       z     vdW  Elec       q    Type
REMARK                         _______ _______ _______ _____ _____    ______ ____
ROOT
ATOM      1  C   UNL     1       2.985   6.023  18.718  0.00  0.00    +0.000 A 
ATOM      2  C   UNL     1       2.266   4.909  18.257  0.00  0.00    +0.000 A 
ATOM      3  C   UNL     1       2.894   3.670  18.121  0.00  0.00    +0.000 A 
ATOM      4  C   UNL     1       4.245   3.535  18.440  0.00  0.00    +0.000 A 
ATOM      5  C   UNL     1       4.957   4.630  18.927  0.00  0.00    +0.000 A 
ATOM      6  C   UNL     1       4.332   5.865  19.072  0.00  0.00    +0.000 A 
ENDROOT
BRANCH   1   9
ATOM      7  C   UNL     1       1.309   9.167  19.544  0.00  0.00    +0.000 A 
ATOM      8  C   UNL     1       1.723   7.921  19.945  0.00  0.00    +0.000 A 
ATOM      9  C   UNL     1       2.360   7.341  18.816  0.00  0.00    +0.000 A 
ATOM     10  N   UNL     1       2.304   8.175  17.764  0.00  0.00    +0.000 NA
ATOM     11  N   UNL     1       1.660   9.255  18.225  0.00  0.00    +0.000 N 
ATOM     12  H   UNL     1       1.525  10.029  17.586  0.00  0.00    +0.000 HD
BRANCH   7  15
ATOM     13  O   UNL     1      -1.270  10.204  18.998  0.00  0.00    +0.000 OA
ATOM     14  C   UNL     1      -0.633  10.655  19.936  0.00  0.00    +0.000 C 
ATOM     15  N   UNL     1       0.669  10.152  20.281  0.00  0.00    +0.000 N 
ATOM     16  H   UNL     1       1.089  10.447  21.153  0.00  0.00    +0.000 HD
BRANCH  14  17
ATOM     17  C   UNL     1      -1.193  11.673  20.848  0.00  0.00    +0.000 A 
ATOM     18  C   UNL     1      -0.997  11.508  22.224  0.00  0.00    +0.000 A 
ATOM     19  C   UNL     1      -1.485  12.466  23.112  0.00  0.00    +0.000 A 
ATOM     20  C   UNL     1      -2.175  13.574  22.626  0.00  0.00    +0.000 A 
ATOM     21  C   UNL     1      -2.389  13.729  21.255  0.00  0.00    +0.000 A 
ATOM     22  C   UNL     1      -1.900  12.778  20.359  0.00  0.00    +0.000 A 
ENDBRANCH  14  17
ENDBRANCH   7  15
ENDBRANCH   1   9
BRANCH   5  23
ATOM     23  N   UNL     1       6.334   4.481  19.236  0.00  0.00    +0.000 N 
ATOM     24  H   UNL     1       6.618   4.634  20.203  0.00  0.00    +0.000 HD
BRANCH  23  25
ATOM     25  S   UNL     1       7.489   5.026  18.130  0.00  0.00    +0.000 S 
ATOM     26  O   UNL     1       7.727   6.417  18.449  0.00  0.00    +0.000 OA
ATOM     27  O   UNL     1       8.577   4.072  18.066  0.00  0.00    +0.000 OA
BRANCH  25  28
ATOM     28  C   UNL     1       6.633   4.986  16.567  0.00  0.00    +0.000 A 
ATOM     29  C   UNL     1       5.901   6.104  16.151  0.00  0.00    +0.000 A 
ATOM     30  C   UNL     1       5.258   6.085  14.912  0.00  0.00    +0.000 A 
ATOM     31  C   UNL     1       5.355   4.960  14.091  0.00  0.00    +0.000 A 
ATOM     32  C   UNL     1       6.103   3.855  14.500  0.00  0.00    +0.000 A 
ATOM     33  C   UNL     1       6.754   3.867  15.735  0.00  0.00    +0.000 A 
ENDBRANCH  25  28
ENDBRANCH  23  25
ENDBRANCH   5  23
TORSDOF 6
ENDMDL
MODEL 6
REMARK VINA RESULT:      -8.5      4.320      7.427
REMARK  Name = 
REMARK  6 active torsions:
REMARK  status: ('A' for Active; 'I' for Inactive)
REMARK    1  A    between atoms: C_2  and  C_25
REMARK    2  A    between atoms: N_3  and  C_4
REMARK    3  A    between atoms: C_6  and  C_7
REMARK    4  A    between atoms: C_11  and  N_12
REMARK    5  A    between atoms: N_12  and  S_13
REMARK    6  A    between atoms: S_13  and  C_16
REMARK                            x       y       z     vdW  Elec       q    Type
REMARK                         _______ _______ _______ _____ _____    ______ ____
ROOT
ATOM      1  C   UNL     1       3.020   5.098  18.688  0.00  0.00    +0.000 A 
ATOM      2  C   UNL     1       2.939   3.719  18.940  0.00  0.00    +0.000 A 
ATOM      3  C   UNL     1       3.497   2.804  18.046  0.00  0.00    +0.000 A 
ATOM      4  C   UNL     1       4.135   3.257  16.892  0.00  0.00    +0.000 A 
ATOM      5  C   UNL     1       4.245   4.625  16.651  0.00  0.00    +0.000 A 
ATOM      6  C   UNL     1       3.698   5.542  17.544  0.00  0.00    +0.000 A 
ENDROOT
BRANCH   1   9
ATOM      7  C   UNL     1       1.607   7.942  20.501  0.00  0.00    +0.000 A 
ATOM      8  C   UNL     1       2.276   7.473  19.397  0.00  0.00    +0.000 A 
ATOM      9  C   UNL     1       2.396   6.070  19.583  0.00  0.00    +0.000 A 
ATOM     10  N   UNL     1       1.863   5.705  20.761  0.00  0.00    +0.000 NA
ATOM     11  N   UNL     1       1.409   6.846  21.294  0.00  0.00    +0.000 N 
ATOM     12  H   UNL     1       0.943   6.792  22.191  0.00  0.00    +0.000 HD
BRANCH   7  15
ATOM     13  O   UNL     1      -0.621   8.644  22.104  0.00  0.00    +0.000 OA
ATOM     14  C   UNL     1       0.046   9.528  21.591  0.00  0.00    +0.000 C 
ATOM     15  N   UNL     1       1.204   9.237  20.790  0.00  0.00    +0.000 N 
ATOM     16  H   UNL     1       1.810  10.000  20.517  0.00  0.00    +0.000 HD
BRANCH  14  17
ATOM     17  C   UNL     1      -0.222  10.959  21.841  0.00  0.00    +0.000 A 
ATOM     18  C   UNL     1      -1.128  11.296  22.853  0.00  0.00    +0.000 A 
ATOM     19  C   UNL     1      -1.380  12.638  23.137  0.00  0.00    +0.000 A 
ATOM     20  C   UNL     1      -0.740  13.634  22.404  0.00  0.00    +0.000 A 
ATOM     21  C   UNL     1       0.149  13.298  21.380  0.00  0.00    +0.000 A 
ATOM     22  C   UNL     1       0.410  11.959  21.092  0.00  0.00    +0.000 A 
ENDBRANCH  14  17
ENDBRANCH   7  15
ENDBRANCH   1   9
BRANCH   5  23
ATOM     23  N   UNL     1       4.887   5.072  15.467  0.00  0.00    +0.000 N 
ATOM     24  H   UNL     1       4.392   4.944  14.586  0.00  0.00    +0.000 HD
BRANCH  23  25
ATOM     25  S   UNL     1       6.556   4.862  15.306  0.00  0.00    +0.000 S 
ATOM     26  O   UNL     1       6.795   3.440  15.417  0.00  0.00    +0.000 OA
ATOM     27  O   UNL     1       7.026   5.617  14.162  0.00  0.00    +0.000 OA
BRANCH  25  28
ATOM     28  C   UNL     1       7.224   5.622  16.774  0.00  0.00    +0.000 A 
ATOM     29  C   UNL     1       7.351   7.015  16.834  0.00  0.00    +0.000 A 
ATOM     30  C   UNL     1       7.844   7.612  17.996  0.00  0.00    +0.000 A 
ATOM     31  C   UNL     1       8.197   6.823  19.092  0.00  0.00    +0.000 A 
ATOM     32  C   UNL     1       8.047   5.436  19.036  0.00  0.00    +0.000 A 
ATOM     33  C   UNL     1       7.551   4.831  17.880  0.00  0.00    +0.000 A 
ENDBRANCH  25  28
ENDBRANCH  23  25
ENDBRANCH   5  23
TORSDOF 6
ENDMDL
MODEL 7
REMARK VINA RESULT:      -8.5      5.461      7.088
REMARK  Name = 
REMARK  6 active torsions:
REMARK  status: ('A' for Active; 'I' for Inactive)
REMARK    1  A    between atoms: C_2  and  C_25
REMARK    2  A    between atoms: N_3  and  C_4
REMARK    3  A    between atoms: C_6  and  C_7
REMARK    4  A    between atoms: C_11  and  N_12
REMARK    5  A    between atoms: N_12  and  S_13
REMARK    6  A    between atoms: S_13  and  C_16
REMARK                            x       y       z     vdW  Elec       q    Type
REMARK                         _______ _______ _______ _____ _____    ______ ____
ROOT
ATOM      1  C   UNL     1       3.853   6.155  17.786  0.00  0.00    +0.000 A 
ATOM      2  C   UNL     1       4.256   5.922  16.462  0.00  0.00    +0.000 A 
ATOM      3  C   UNL     1       5.084   4.840  16.156  0.00  0.00    +0.000 A 
ATOM      4  C   UNL     1       5.520   3.988  17.170  0.00  0.00    +0.000 A 
ATOM      5  C   UNL     1       5.100   4.197  18.482  0.00  0.00    +0.000 A 
ATOM      6  C   UNL     1       4.267   5.269  18.790  0.00  0.00    +0.000 A 
ENDROOT
BRANCH   1   9
ATOM      7  C   UNL     1       1.728   8.775  19.200  0.00  0.00    +0.000 A 
ATOM      8  C   UNL     1       2.346   7.558  19.354  0.00  0.00    +0.000 A 
ATOM      9  C   UNL     1       3.031   7.313  18.135  0.00  0.00    +0.000 A 
ATOM     10  N   UNL     1       2.811   8.311  17.263  0.00  0.00    +0.000 NA
ATOM     11  N   UNL     1       2.019   9.166  17.923  0.00  0.00    +0.000 N 
ATOM     12  H   UNL     1       1.744  10.015  17.444  0.00  0.00    +0.000 HD
BRANCH   7  15
ATOM     13  O   UNL     1      -0.450  10.464  18.547  0.00  0.00    +0.000 OA
ATOM     14  C   UNL     1      -0.115  10.349  19.715  0.00  0.00    +0.000 C 
ATOM     15  N   UNL     1       0.964   9.486  20.113  0.00  0.00    +0.000 N 
ATOM     16  H   UNL     1       1.103   9.305  21.099  0.00  0.00    +0.000 HD
BRANCH  14  17
ATOM     17  C   UNL     1      -0.857  11.001  20.812  0.00  0.00    +0.000 A 
ATOM     18  C   UNL     1      -1.742  12.037  20.489  0.00  0.00    +0.000 A 
ATOM     19  C   UNL     1      -2.483  12.653  21.498  0.00  0.00    +0.000 A 
ATOM     20  C   UNL     1      -2.329  12.244  22.820  0.00  0.00    +0.000 A 
ATOM     21  C   UNL     1      -1.432  11.224  23.145  0.00  0.00    +0.000 A 
ATOM     22  C   UNL     1      -0.691  10.599  22.143  0.00  0.00    +0.000 A 
ENDBRANCH  14  17
ENDBRANCH   7  15
ENDBRANCH   1   9
BRANCH   5  23
ATOM     23  N   UNL     1       5.560   3.329  19.507  0.00  0.00    +0.000 N 
ATOM     24  H   UNL     1       6.560   3.136  19.546  0.00  0.00    +0.000 HD
BRANCH  23  25
ATOM     25  S   UNL     1       4.626   1.986  19.928  0.00  0.00    +0.000 S 
ATOM     26  O   UNL     1       4.749   1.050  18.831  0.00  0.00    +0.000 OA
ATOM     27  O   UNL     1       4.935   1.595  21.288  0.00  0.00    +0.000 OA
BRANCH  25  28
ATOM     28  C   UNL     1       2.955   2.605  19.903  0.00  0.00    +0.000 A 
ATOM     29  C   UNL     1       2.104   2.255  18.848  0.00  0.00    +0.000 A 
ATOM     30  C   UNL     1       0.785   2.713  18.845  0.00  0.00    +0.000 A 
ATOM     31  C   UNL     1       0.318   3.506  19.894  0.00  0.00    +0.000 A 
ATOM     32  C   UNL     1       1.163   3.835  20.956  0.00  0.00    +0.000 A 
ATOM     33  C   UNL     1       2.482   3.378  20.969  0.00  0.00    +0.000 A 
ENDBRANCH  25  28
ENDBRANCH  23  25
ENDBRANCH   5  23
TORSDOF 6
ENDMDL
MODEL 8
REMARK VINA RESULT:      -8.5      4.966      7.008
REMARK  Name = 
REMARK  6 active torsions:
REMARK  status: ('A' for Active; 'I' for Inactive)
REMARK    1  A    between atoms: C_2  and  C_25
REMARK    2  A    between atoms: N_3  and  C_4
REMARK    3  A    between atoms: C_6  and  C_7
REMARK    4  A    between atoms: C_11  and  N_12
REMARK    5  A    between atoms: N_12  and  S_13
REMARK    6  A    between atoms: S_13  and  C_16
REMARK                            x       y       z     vdW  Elec       q    Type
REMARK                         _______ _______ _______ _____ _____    ______ ____
ROOT
ATOM      1  C   UNL     1       2.873   5.656  19.015  0.00  0.00    +0.000 A 
ATOM      2  C   UNL     1       2.150   4.699  18.284  0.00  0.00    +0.000 A 
ATOM      3  C   UNL     1       2.781   3.548  17.810  0.00  0.00    +0.000 A 
ATOM      4  C   UNL     1       4.139   3.345  18.057  0.00  0.00    +0.000 A 
ATOM      5  C   UNL     1       4.855   4.276  18.807  0.00  0.00    +0.000 A 
ATOM      6  C   UNL     1       4.228   5.422  19.289  0.00  0.00    +0.000 A 
ENDROOT
BRANCH   1   9
ATOM      7  C   UNL     1       1.445   8.970  19.609  0.00  0.00    +0.000 A 
ATOM      8  C   UNL     1       2.115   8.117  18.766  0.00  0.00    +0.000 A 
ATOM      9  C   UNL     1       2.245   6.893  19.473  0.00  0.00    +0.000 A 
ATOM     10  N   UNL     1       1.717   7.003  20.704  0.00  0.00    +0.000 NA
ATOM     11  N   UNL     1       1.256   8.259  20.762  0.00  0.00    +0.000 N 
ATOM     12  H   UNL     1       0.793   8.550  21.614  0.00  0.00    +0.000 HD
BRANCH   7  15
ATOM     13  O   UNL     1       1.170  10.967  21.599  0.00  0.00    +0.000 OA
ATOM     14  C   UNL     1       0.889  11.236  20.442  0.00  0.00    +0.000 C 
ATOM     15  N   UNL     1       1.035  10.275  19.383  0.00  0.00    +0.000 N 
ATOM     16  H   UNL     1       0.938  10.588  18.426  0.00  0.00    +0.000 HD
BRANCH  14  17
ATOM     17  C   UNL     1       0.484  12.595  20.029  0.00  0.00    +0.000 A 
ATOM     18  C   UNL     1      -0.762  13.072  20.452  0.00  0.00    +0.000 A 
ATOM     19  C   UNL     1      -1.162  14.362  20.106  0.00  0.00    +0.000 A 
ATOM     20  C   UNL     1      -0.327  15.163  19.331  0.00  0.00    +0.000 A 
ATOM     21  C   UNL     1       0.908  14.681  18.892  0.00  0.00    +0.000 A 
ATOM     22  C   UNL     1       1.318  13.393  19.237  0.00  0.00    +0.000 A 
ENDBRANCH  14  17
ENDBRANCH   7  15
ENDBRANCH   1   9
BRANCH   5  23
ATOM     23  N   UNL     1       6.239   4.063  19.041  0.00  0.00    +0.000 N 
ATOM     24  H   UNL     1       6.541   3.958  20.008  0.00  0.00    +0.000 HD
BRANCH  23  25
ATOM     25  S   UNL     1       7.369   4.890  18.097  0.00  0.00    +0.000 S 
ATOM     26  O   UNL     1       7.404   6.245  18.604  0.00  0.00    +0.000 OA
ATOM     27  O   UNL     1       8.576   4.096  17.990  0.00  0.00    +0.000 OA
BRANCH  25  28
ATOM     28  C   UNL     1       6.612   4.954  16.485  0.00  0.00    +0.000 A 
ATOM     29  C   UNL     1       6.769   3.877  15.604  0.00  0.00    +0.000 A 
ATOM     30  C   UNL     1       6.150   3.912  14.354  0.00  0.00    +0.000 A 
ATOM     31  C   UNL     1       5.370   5.012  13.991  0.00  0.00    +0.000 A 
ATOM     32  C   UNL     1       5.197   6.074  14.880  0.00  0.00    +0.000 A 
ATOM     33  C   UNL     1       5.810   6.045  16.134  0.00  0.00    +0.000 A 
ENDBRANCH  25  28
ENDBRANCH  23  25
ENDBRANCH   5  23
TORSDOF 6
ENDMDL
MODEL 9
REMARK VINA RESULT:      -8.5      6.471      9.521
REMARK  Name = 
REMARK  6 active torsions:
REMARK  status: ('A' for Active; 'I' for Inactive)
REMARK    1  A    between atoms: C_2  and  C_25
REMARK    2  A    between atoms: N_3  and  C_4
REMARK    3  A    between atoms: C_6  and  C_7
REMARK    4  A    between atoms: C_11  and  N_12
REMARK    5  A    between atoms: N_12  and  S_13
REMARK    6  A    between atoms: S_13  and  C_16
REMARK                            x       y       z     vdW  Elec       q    Type
REMARK                         _______ _______ _______ _____ _____    ______ ____
ROOT
ATOM      1  C   UNL     1      -0.065  10.193  19.601  0.00  0.00    +0.000 A 
ATOM      2  C   UNL     1      -0.281  10.828  20.835  0.00  0.00    +0.000 A 
ATOM      3  C   UNL     1      -1.249  11.827  20.954  0.00  0.00    +0.000 A 
ATOM      4  C   UNL     1      -2.004  12.203  19.844  0.00  0.00    +0.000 A 
ATOM      5  C   UNL     1      -1.814  11.556  18.624  0.00  0.00    +0.000 A 
ATOM      6  C   UNL     1      -0.856  10.554  18.502  0.00  0.00    +0.000 A 
ENDROOT
BRANCH   1   9
ATOM      7  C   UNL     1       2.583   7.867  18.625  0.00  0.00    +0.000 A 
ATOM      8  C   UNL     1       1.717   8.872  18.269  0.00  0.00    +0.000 A 
ATOM      9  C   UNL     1       0.979   9.183  19.442  0.00  0.00    +0.000 A 
ATOM     10  N   UNL     1       1.347   8.381  20.455  0.00  0.00    +0.000 NA
ATOM     11  N   UNL     1       2.299   7.596  19.935  0.00  0.00    +0.000 N 
ATOM     12  H   UNL     1       2.734   6.918  20.548  0.00  0.00    +0.000 HD
BRANCH   7  15
ATOM     13  O   UNL     1       3.427   5.182  18.944  0.00  0.00    +0.000 OA
ATOM     14  C   UNL     1       3.951   5.872  18.085  0.00  0.00    +0.000 C 
ATOM     15  N   UNL     1       3.547   7.233  17.856  0.00  0.00    +0.000 N 
ATOM     16  H   UNL     1       3.899   7.713  17.037  0.00  0.00    +0.000 HD
BRANCH  14  17
ATOM     17  C   UNL     1       4.959   5.333  17.150  0.00  0.00    +0.000 A 
ATOM     18  C   UNL     1       6.186   5.999  17.043  0.00  0.00    +0.000 A 
ATOM     19  C   UNL     1       7.172   5.498  16.193  0.00  0.00    +0.000 A 
ATOM     20  C   UNL     1       6.926   4.348  15.447  0.00  0.00    +0.000 A 
ATOM     21  C   UNL     1       5.695   3.695  15.538  0.00  0.00    +0.000 A 
ATOM     22  C   UNL     1       4.705   4.186  16.389  0.00  0.00    +0.000 A 
ENDBRANCH  14  17
ENDBRANCH   7  15
ENDBRANCH   1   9
BRANCH   5  23
ATOM     23  N   UNL     1      -2.581  11.957  17.499  0.00  0.00    +0.000 N 
ATOM     24  H   UNL     1      -2.822  12.944  17.420  0.00  0.00    +0.000 HD
BRANCH  23  25
ATOM     25  S   UNL     1      -3.814  10.946  16.941  0.00  0.00    +0.000 S 
ATOM     26  O   UNL     1      -3.873  11.136  15.508  0.00  0.00    +0.000 OA
ATOM     27  O   UNL     1      -3.650   9.627  17.518  0.00  0.00    +0.000 OA
BRANCH  25  28
ATOM     28  C   UNL     1      -5.295  11.662  17.626  0.00  0.00    +0.000 A 
ATOM     29  C   UNL     1      -5.894  12.755  16.988  0.00  0.00    +0.000 A 
ATOM     30  C   UNL     1      -7.072  13.295  17.505  0.00  0.00    +0.000 A 
ATOM     31  C   UNL     1      -7.652  12.741  18.648  0.00  0.00    +0.000 A 
ATOM     32  C   UNL     1      -7.064  11.638  19.270  0.00  0.00    +0.000 A 
ATOM     33  C   UNL     1      -5.889  11.088  18.756  0.00  0.00    +0.000 A 
ENDBRANCH  25  28
ENDBRANCH  23  25
ENDBRANCH   5  23
TORSDOF 6
ENDMDL
