MODEL 1
REMARK VINA RESULT:      -7.5      0.000      0.000
REMARK  Name = 
REMARK  2 active torsions:
REMARK  status: ('A' for Active; 'I' for Inactive)
REMARK    1  A    between atoms: C_1  and  C_2
REMARK    2  A    between atoms: C_7  and  C_8
REMARK                            x       y       z     vdW  Elec       q    Type
REMARK                         _______ _______ _______ _____ _____    ______ ____
ROOT
ATOM      1  C   UNL     1       7.198   4.700  13.273  0.00  0.00    +0.000 C 
ATOM      2  C   UNL     1       6.704   4.595  14.688  0.00  0.00    +0.000 A 
ATOM      3  C   UNL     1       7.561   4.843  15.772  0.00  0.00    +0.000 A 
ATOM      4  C   UNL     1       7.119   4.733  17.098  0.00  0.00    +0.000 A 
ATOM      5  C   UNL     1       5.790   4.361  17.281  0.00  0.00    +0.000 A 
ATOM      6  O   UNL     1       5.171   4.177  18.481  0.00  0.00    +0.000 OA
ATOM      7  C   UNL     1       3.881   3.800  18.222  0.00  0.00    +0.000 A 
ATOM      8  C   UNL     1       3.677   3.766  16.854  0.00  0.00    +0.000 A 
ATOM      9  C   UNL     1       4.905   4.113  16.241  0.00  0.00    +0.000 A 
ATOM     10  C   UNL     1       5.364   4.236  14.918  0.00  0.00    +0.000 A 
ENDROOT
BRANCH   7  11
ATOM     11  C   UNL     1       3.030   3.509  19.375  0.00  0.00    +0.000 A 
ATOM     12  C   UNL     1       3.482   2.723  20.446  0.00  0.00    +0.000 A 
ATOM     13  C   UNL     1       2.644   2.439  21.530  0.00  0.00    +0.000 A 
ATOM     14  C   UNL     1       1.343   2.937  21.559  0.00  0.00    +0.000 A 
ATOM     15  C   UNL     1       0.879   3.721  20.507  0.00  0.00    +0.000 A 
ATOM     16  C   UNL     1       1.717   4.005  19.425  0.00  0.00    +0.000 A 
ENDBRANCH   7  11
TORSDOF 1
ENDMDL
MODEL 2
REMARK VINA RESULT:      -7.4      0.111      1.207
REMARK  Name = 
REMARK  2 active torsions:
REMARK  status: ('A' for Active; 'I' for Inactive)
REMARK    1  A    between atoms: C_1  and  C_2
REMARK    2  A    between atoms: C_7  and  C_8
REMARK                            x       y       z     vdW  Elec       q    Type
REMARK                         _______ _______ _______ _____ _____    ______ ____
ROOT
ATOM      1  C   UNL     1       7.190   4.706  13.200  0.00  0.00    +0.000 C 
ATOM      2  C   UNL     1       6.696   4.621  14.616  0.00  0.00    +0.000 A 
ATOM      3  C   UNL     1       7.549   4.901  15.696  0.00  0.00    +0.000 A 
ATOM      4  C   UNL     1       7.106   4.812  17.023  0.00  0.00    +0.000 A 
ATOM      5  C   UNL     1       5.782   4.425  17.213  0.00  0.00    +0.000 A 
ATOM      6  O   UNL     1       5.164   4.256  18.415  0.00  0.00    +0.000 OA
ATOM      7  C   UNL     1       3.880   3.856  18.162  0.00  0.00    +0.000 A 
ATOM      8  C   UNL     1       3.678   3.793  16.795  0.00  0.00    +0.000 A 
ATOM      9  C   UNL     1       4.902   4.145  16.177  0.00  0.00    +0.000 A 
ATOM     10  C   UNL     1       5.361   4.248  14.852  0.00  0.00    +0.000 A 
ENDROOT
BRANCH   7  11
ATOM     11  C   UNL     1       3.032   3.576  19.320  0.00  0.00    +0.000 A 
ATOM     12  C   UNL     1       1.764   4.159  19.464  0.00  0.00    +0.000 A 
ATOM     13  C   UNL     1       0.977   3.893  20.590  0.00  0.00    +0.000 A 
ATOM     14  C   UNL     1       1.446   3.041  21.587  0.00  0.00    +0.000 A 
ATOM     15  C   UNL     1       2.700   2.451  21.459  0.00  0.00    +0.000 A 
ATOM     16  C   UNL     1       3.485   2.716  20.333  0.00  0.00    +0.000 A 
ENDBRANCH   7  11
TORSDOF 1
ENDMDL
MODEL 3
REMARK VINA RESULT:      -7.0      1.617      6.585
REMARK  Name = 
REMARK  2 active torsions:
REMARK  status: ('A' for Active; 'I' for Inactive)
REMARK    1  A    between atoms: C_1  and  C_2
REMARK    2  A    between atoms: C_7  and  C_8
REMARK                            x       y       z     vdW  Elec       q    Type
REMARK                         _______ _______ _______ _____ _____    ______ ____
ROOT
ATOM      1  C   UNL     1       2.151   4.489  21.005  0.00  0.00    +0.000 C 
ATOM      2  C   UNL     1       2.858   4.873  19.736  0.00  0.00    +0.000 A 
ATOM      3  C   UNL     1       2.936   6.214  19.331  0.00  0.00    +0.000 A 
ATOM      4  C   UNL     1       3.579   6.585  18.142  0.00  0.00    +0.000 A 
ATOM      5  C   UNL     1       4.129   5.555  17.384  0.00  0.00    +0.000 A 
ATOM      6  O   UNL     1       4.773   5.697  16.191  0.00  0.00    +0.000 OA
ATOM      7  C   UNL     1       5.140   4.446  15.773  0.00  0.00    +0.000 A 
ATOM      8  C   UNL     1       4.746   3.512  16.714  0.00  0.00    +0.000 A 
ATOM      9  C   UNL     1       4.082   4.217  17.748  0.00  0.00    +0.000 A 
ATOM     10  C   UNL     1       3.440   3.864  18.947  0.00  0.00    +0.000 A 
ENDROOT
BRANCH   7  11
ATOM     11  C   UNL     1       5.821   4.351  14.483  0.00  0.00    +0.000 A 
ATOM     12  C   UNL     1       5.290   3.601  13.422  0.00  0.00    +0.000 A 
ATOM     13  C   UNL     1       5.968   3.506  12.202  0.00  0.00    +0.000 A 
ATOM     14  C   UNL     1       7.186   4.159  12.025  0.00  0.00    +0.000 A 
ATOM     15  C   UNL     1       7.726   4.910  13.065  0.00  0.00    +0.000 A 
ATOM     16  C   UNL     1       7.047   5.005  14.284  0.00  0.00    +0.000 A 
ENDBRANCH   7  11
TORSDOF 1
ENDMDL
MODEL 4
REMARK VINA RESULT:      -6.8      1.024      1.662
REMARK  Name = 
REMARK  2 active torsions:
REMARK  status: ('A' for Active; 'I' for Inactive)
REMARK    1  A    between atoms: C_1  and  C_2
REMARK    2  A    between atoms: C_7  and  C_8
REMARK                            x       y       z     vdW  Elec       q    Type
REMARK                         _______ _______ _______ _____ _____    ______ ____
ROOT
ATOM      1  C   UNL     1       7.284   4.921  13.562  0.00  0.00    +0.000 C 
ATOM      2  C   UNL     1       6.325   5.030  14.713  0.00  0.00    +0.000 A 
ATOM      3  C   UNL     1       5.900   6.283  15.183  0.00  0.00    +0.000 A 
ATOM      4  C   UNL     1       5.018   6.400  16.266  0.00  0.00    +0.000 A 
ATOM      5  C   UNL     1       4.593   5.212  16.853  0.00  0.00    +0.000 A 
ATOM      6  O   UNL     1       3.758   5.105  17.925  0.00  0.00    +0.000 OA
ATOM      7  C   UNL     1       3.608   3.771  18.196  0.00  0.00    +0.000 A 
ATOM      8  C   UNL     1       4.333   3.032  17.279  0.00  0.00    +0.000 A 
ATOM      9  C   UNL     1       4.980   3.952  16.419  0.00  0.00    +0.000 A 
ATOM     10  C   UNL     1       5.859   3.853  15.327  0.00  0.00    +0.000 A 
ENDROOT
BRANCH   7  11
ATOM     11  C   UNL     1       2.774   3.417  19.343  0.00  0.00    +0.000 A 
ATOM     12  C   UNL     1       1.391   3.651  19.350  0.00  0.00    +0.000 A 
ATOM     13  C   UNL     1       0.615   3.323  20.468  0.00  0.00    +0.000 A 
ATOM     14  C   UNL     1       1.210   2.755  21.592  0.00  0.00    +0.000 A 
ATOM     15  C   UNL     1       2.580   2.512  21.600  0.00  0.00    +0.000 A 
ATOM     16  C   UNL     1       3.355   2.839  20.484  0.00  0.00    +0.000 A 
ENDBRANCH   7  11
TORSDOF 1
ENDMDL
MODEL 5
REMARK VINA RESULT:      -6.8      1.544      6.552
REMARK  Name = 
REMARK  2 active torsions:
REMARK  status: ('A' for Active; 'I' for Inactive)
REMARK    1  A    between atoms: C_1  and  C_2
REMARK    2  A    between atoms: C_7  and  C_8
REMARK                            x       y       z     vdW  Elec       q    Type
REMARK                         _______ _______ _______ _____ _____    ______ ____
ROOT
ATOM      1  C   UNL     1       1.285   4.300  20.523  0.00  0.00    +0.000 C 
ATOM      2  C   UNL     1       2.246   4.712  19.444  0.00  0.00    +0.000 A 
ATOM      3  C   UNL     1       2.671   6.045  19.328  0.00  0.00    +0.000 A 
ATOM      4  C   UNL     1       3.555   6.448  18.317  0.00  0.00    +0.000 A 
ATOM      5  C   UNL     1       3.982   5.460  17.434  0.00  0.00    +0.000 A 
ATOM      6  O   UNL     1       4.818   5.644  16.373  0.00  0.00    +0.000 OA
ATOM      7  C   UNL     1       4.969   4.431  15.756  0.00  0.00    +0.000 A 
ATOM      8  C   UNL     1       4.243   3.473  16.440  0.00  0.00    +0.000 A 
ATOM      9  C   UNL     1       3.594   4.130  17.515  0.00  0.00    +0.000 A 
ATOM     10  C   UNL     1       2.714   3.742  18.539  0.00  0.00    +0.000 A 
ENDROOT
BRANCH   7  11
ATOM     11  C   UNL     1       5.805   4.396  14.557  0.00  0.00    +0.000 A 
ATOM     12  C   UNL     1       6.943   5.205  14.428  0.00  0.00    +0.000 A 
ATOM     13  C   UNL     1       7.718   5.171  13.263  0.00  0.00    +0.000 A 
ATOM     14  C   UNL     1       7.366   4.328  12.212  0.00  0.00    +0.000 A 
ATOM     15  C   UNL     1       6.241   3.515  12.325  0.00  0.00    +0.000 A 
ATOM     16  C   UNL     1       5.469   3.549  13.489  0.00  0.00    +0.000 A 
ENDBRANCH   7  11
TORSDOF 1
ENDMDL
MODEL 6
REMARK VINA RESULT:      -6.8      3.760      6.920
REMARK  Name = 
REMARK  2 active torsions:
REMARK  status: ('A' for Active; 'I' for Inactive)
REMARK    1  A    between atoms: C_1  and  C_2
REMARK    2  A    between atoms: C_7  and  C_8
REMARK                            x       y       z     vdW  Elec       q    Type
REMARK                         _______ _______ _______ _____ _____    ______ ____
ROOT
ATOM      1  C   UNL     1      -0.172   9.375  22.156  0.00  0.00    +0.000 C 
ATOM      2  C   UNL     1       0.633   9.006  20.942  0.00  0.00    +0.000 A 
ATOM      3  C   UNL     1       0.651   9.834  19.808  0.00  0.00    +0.000 A 
ATOM      4  C   UNL     1       1.384   9.494  18.663  0.00  0.00    +0.000 A 
ATOM      5  C   UNL     1       2.087   8.293  18.708  0.00  0.00    +0.000 A 
ATOM      6  O   UNL     1       2.840   7.771  17.699  0.00  0.00    +0.000 OA
ATOM      7  C   UNL     1       3.342   6.576  18.141  0.00  0.00    +0.000 A 
ATOM      8  C   UNL     1       2.924   6.353  19.440  0.00  0.00    +0.000 A 
ATOM      9  C   UNL     1       2.105   7.448  19.808  0.00  0.00    +0.000 A 
ATOM     10  C   UNL     1       1.370   7.808  20.951  0.00  0.00    +0.000 A 
ENDROOT
BRANCH   7  11
ATOM     11  C   UNL     1       4.160   5.812  17.200  0.00  0.00    +0.000 A 
ATOM     12  C   UNL     1       4.245   4.413  17.264  0.00  0.00    +0.000 A 
ATOM     13  C   UNL     1       5.050   3.702  16.367  0.00  0.00    +0.000 A 
ATOM     14  C   UNL     1       5.780   4.379  15.393  0.00  0.00    +0.000 A 
ATOM     15  C   UNL     1       5.705   5.767  15.313  0.00  0.00    +0.000 A 
ATOM     16  C   UNL     1       4.900   6.476  16.209  0.00  0.00    +0.000 A 
ENDBRANCH   7  11
TORSDOF 1
ENDMDL
MODEL 7
REMARK VINA RESULT:      -6.7      1.066      6.546
REMARK  Name = 
REMARK  2 active torsions:
REMARK  status: ('A' for Active; 'I' for Inactive)
REMARK    1  A    between atoms: C_1  and  C_2
REMARK    2  A    between atoms: C_7  and  C_8
REMARK                            x       y       z     vdW  Elec       q    Type
REMARK                         _______ _______ _______ _____ _____    ______ ____
ROOT
ATOM      1  C   UNL     1       1.228   2.503  22.110  0.00  0.00    +0.000 C 
ATOM      2  C   UNL     1       1.702   2.885  20.736  0.00  0.00    +0.000 A 
ATOM      3  C   UNL     1       0.797   3.017  19.671  0.00  0.00    +0.000 A 
ATOM      4  C   UNL     1       1.226   3.358  18.381  0.00  0.00    +0.000 A 
ATOM      5  C   UNL     1       2.594   3.551  18.211  0.00  0.00    +0.000 A 
ATOM      6  O   UNL     1       3.218   3.864  17.040  0.00  0.00    +0.000 OA
ATOM      7  C   UNL     1       4.559   3.947  17.301  0.00  0.00    +0.000 A 
ATOM      8  C   UNL     1       4.783   3.707  18.644  0.00  0.00    +0.000 A 
ATOM      9  C   UNL     1       3.524   3.439  19.235  0.00  0.00    +0.000 A 
ATOM     10  C   UNL     1       3.075   3.104  20.524  0.00  0.00    +0.000 A 
ENDROOT
BRANCH   7  11
ATOM     11  C   UNL     1       5.438   4.238  16.169  0.00  0.00    +0.000 A 
ATOM     12  C   UNL     1       5.125   3.822  14.866  0.00  0.00    +0.000 A 
ATOM     13  C   UNL     1       5.991   4.093  13.800  0.00  0.00    +0.000 A 
ATOM     14  C   UNL     1       7.179   4.785  14.022  0.00  0.00    +0.000 A 
ATOM     15  C   UNL     1       7.503   5.209  15.308  0.00  0.00    +0.000 A 
ATOM     16  C   UNL     1       6.638   4.938  16.371  0.00  0.00    +0.000 A 
ENDBRANCH   7  11
TORSDOF 1
ENDMDL
MODEL 8
REMARK VINA RESULT:      -6.7      1.100      6.495
REMARK  Name = 
REMARK  2 active torsions:
REMARK  status: ('A' for Active; 'I' for Inactive)
REMARK    1  A    between atoms: C_1  and  C_2
REMARK    2  A    between atoms: C_7  and  C_8
REMARK                            x       y       z     vdW  Elec       q    Type
REMARK                         _______ _______ _______ _____ _____    ______ ____
ROOT
ATOM      1  C   UNL     1       1.426   2.495  22.010  0.00  0.00    +0.000 C 
ATOM      2  C   UNL     1       1.881   2.883  20.631  0.00  0.00    +0.000 A 
ATOM      3  C   UNL     1       0.957   3.048  19.586  0.00  0.00    +0.000 A 
ATOM      4  C   UNL     1       1.369   3.394  18.292  0.00  0.00    +0.000 A 
ATOM      5  C   UNL     1       2.737   3.558  18.097  0.00  0.00    +0.000 A 
ATOM      6  O   UNL     1       3.344   3.871  16.917  0.00  0.00    +0.000 OA
ATOM      7  C   UNL     1       4.692   3.920  17.151  0.00  0.00    +0.000 A 
ATOM      8  C   UNL     1       4.937   3.659  18.487  0.00  0.00    +0.000 A 
ATOM      9  C   UNL     1       3.685   3.413  19.100  0.00  0.00    +0.000 A 
ATOM     10  C   UNL     1       3.254   3.073  20.394  0.00  0.00    +0.000 A 
ENDROOT
BRANCH   7  11
ATOM     11  C   UNL     1       5.554   4.205  16.005  0.00  0.00    +0.000 A 
ATOM     12  C   UNL     1       6.716   4.981  16.131  0.00  0.00    +0.000 A 
ATOM     13  C   UNL     1       7.516   5.260  15.017  0.00  0.00    +0.000 A 
ATOM     14  C   UNL     1       7.166   4.765  13.762  0.00  0.00    +0.000 A 
ATOM     15  C   UNL     1       6.020   3.989  13.620  0.00  0.00    +0.000 A 
ATOM     16  C   UNL     1       5.221   3.711  14.733  0.00  0.00    +0.000 A 
ENDBRANCH   7  11
TORSDOF 1
ENDMDL
MODEL 9
REMARK VINA RESULT:      -6.7      1.502      6.633
REMARK  Name = 
REMARK  2 active torsions:
REMARK  status: ('A' for Active; 'I' for Inactive)
REMARK    1  A    between atoms: C_1  and  C_2
REMARK    2  A    between atoms: C_7  and  C_8
REMARK                            x       y       z     vdW  Elec       q    Type
REMARK                         _______ _______ _______ _____ _____    ______ ____
ROOT
ATOM      1  C   UNL     1       2.137   4.817  20.945  0.00  0.00    +0.000 C 
ATOM      2  C   UNL     1       2.818   4.337  19.695  0.00  0.00    +0.000 A 
ATOM      3  C   UNL     1       2.938   2.965  19.420  0.00  0.00    +0.000 A 
ATOM      4  C   UNL     1       3.585   2.502  18.265  0.00  0.00    +0.000 A 
ATOM      5  C   UNL     1       4.106   3.472  17.413  0.00  0.00    +0.000 A 
ATOM      6  O   UNL     1       4.787   3.236  16.256  0.00  0.00    +0.000 OA
ATOM      7  C   UNL     1       5.139   4.451  15.733  0.00  0.00    +0.000 A 
ATOM      8  C   UNL     1       4.660   5.459  16.549  0.00  0.00    +0.000 A 
ATOM      9  C   UNL     1       4.005   4.837  17.640  0.00  0.00    +0.000 A 
ATOM     10  C   UNL     1       3.346   5.284  18.798  0.00  0.00    +0.000 A 
ENDROOT
BRANCH   7  11
ATOM     11  C   UNL     1       5.919   4.440  14.497  0.00  0.00    +0.000 A 
ATOM     12  C   UNL     1       5.559   3.638  13.404  0.00  0.00    +0.000 A 
ATOM     13  C   UNL     1       6.332   3.627  12.237  0.00  0.00    +0.000 A 
ATOM     14  C   UNL     1       7.475   4.418  12.147  0.00  0.00    +0.000 A 
ATOM     15  C   UNL     1       7.845   5.223  13.220  0.00  0.00    +0.000 A 
ATOM     16  C   UNL     1       7.072   5.234  14.385  0.00  0.00    +0.000 A 
ENDBRANCH   7  11
TORSDOF 1
ENDMDL
