MODEL 1
REMARK VINA RESULT:      -6.2      0.000      0.000
REMARK  Name = 
REMARK  12 active torsions:
REMARK  status: ('A' for Active; 'I' for Inactive)
REMARK    1  A    between atoms: C_1  and  O_2
REMARK    2  A    between atoms: O_2  and  C_3
REMARK    3  A    between atoms: C_6  and  C_7
REMARK    4  A    between atoms: C_7  and  C_8
REMARK    5  A    between atoms: C_11  and  O_12
REMARK    6  A    between atoms: O_12  and  C_13
REMARK    7  A    between atoms: C_14  and  O_15
REMARK    8  A    between atoms: O_15  and  C_16
REMARK    9  A    between atoms: C_17  and  O_18
REMARK   10  A    between atoms: O_18  and  C_19
REMARK   11  A    between atoms: C_23  and  O_24
REMARK   12  A    between atoms: O_24  and  C_25
REMARK                            x       y       z     vdW  Elec       q    Type
REMARK                         _______ _______ _______ _____ _____    ______ ____
ROOT
ATOM      1  C   UNL     1       3.518   6.059  17.886  0.00  0.00    +0.000 A 
ATOM      2  C   UNL     1       4.905   5.925  18.173  0.00  0.00    +0.000 A 
ATOM      3 CL   UNL     1       5.936   7.293  17.880  0.00  0.00    +0.000 Cl
ATOM      4  C   UNL     1       5.436   4.703  18.637  0.00  0.00    +0.000 A 
ATOM      5  C   UNL     1       4.567   3.594  18.798  0.00  0.00    +0.000 A 
ATOM      6  C   UNL     1       3.199   3.684  18.477  0.00  0.00    +0.000 A 
ATOM      7  C   UNL     1       2.686   4.915  18.014  0.00  0.00    +0.000 A 
ATOM      8 CL   UNL     1       1.020   5.032  17.519  0.00  0.00    +0.000 Cl
ENDROOT
BRANCH   4   9
ATOM      9  O   UNL     1       6.753   4.412  18.917  0.00  0.00    +0.000 OA
ATOM     10  C   UNL     1       7.752   4.513  17.919  0.00  0.00    +0.000 C 
ENDBRANCH   4   9
BRANCH   5  11
ATOM     11  O   UNL     1       5.182   2.415  19.184  0.00  0.00    +0.000 OA
ATOM     12  C   UNL     1       4.861   1.935  20.484  0.00  0.00    +0.000 C 
ENDBRANCH   5  11
BRANCH   6  13
ATOM     13  O   UNL     1       2.489   2.505  18.498  0.00  0.00    +0.000 OA
ATOM     14  C   UNL     1       1.495   2.338  19.504  0.00  0.00    +0.000 C 
ENDBRANCH   6  13
BRANCH   1  15
ATOM     15  C   UNL     1       2.928   7.416  17.499  0.00  0.00    +0.000 C 
BRANCH  15  19
ATOM     16  C   UNL     1       0.624   9.702  20.376  0.00  0.00    +0.000 A 
ATOM     17  C   UNL     1       1.307   8.545  20.771  0.00  0.00    +0.000 A 
ATOM     18  C   UNL     1       2.015   7.772  19.841  0.00  0.00    +0.000 A 
ATOM     19  C   UNL     1       2.021   8.116  18.489  0.00  0.00    +0.000 A 
ATOM     20  C   UNL     1       1.242   9.216  18.096  0.00  0.00    +0.000 A 
ATOM     21  C   UNL     1       0.531  10.003  19.013  0.00  0.00    +0.000 A 
BRANCH  16  23
ATOM     22  C   UNL     1      -0.098   9.926  22.602  0.00  0.00    +0.000 C 
ATOM     23  O   UNL     1       0.050  10.520  21.312  0.00  0.00    +0.000 OA
ENDBRANCH  16  23
BRANCH  21  24
ATOM     24  O   UNL     1      -0.145  11.024  18.397  0.00  0.00    +0.000 OA
ATOM     25  C   UNL     1      -1.425  10.770  17.848  0.00  0.00    +0.000 C 
ENDBRANCH  21  24
ENDBRANCH  15  19
ENDBRANCH   1  15
TORSDOF 7
ENDMDL
MODEL 2
REMARK VINA RESULT:      -6.1      1.815      2.722
REMARK  Name = 
REMARK  12 active torsions:
REMARK  status: ('A' for Active; 'I' for Inactive)
REMARK    1  A    between atoms: C_1  and  O_2
REMARK    2  A    between atoms: O_2  and  C_3
REMARK    3  A    between atoms: C_6  and  C_7
REMARK    4  A    between atoms: C_7  and  C_8
REMARK    5  A    between atoms: C_11  and  O_12
REMARK    6  A    between atoms: O_12  and  C_13
REMARK    7  A    between atoms: C_14  and  O_15
REMARK    8  A    between atoms: O_15  and  C_16
REMARK    9  A    between atoms: C_17  and  O_18
REMARK   10  A    between atoms: O_18  and  C_19
REMARK   11  A    between atoms: C_23  and  O_24
REMARK   12  A    between atoms: O_24  and  C_25
REMARK                            x       y       z     vdW  Elec       q    Type
REMARK                         _______ _______ _______ _____ _____    ______ ____
ROOT
ATOM      1  C   UNL     1       2.845   6.305  18.936  0.00  0.00    +0.000 A 
ATOM      2  C   UNL     1       3.552   5.840  17.792  0.00  0.00    +0.000 A 
ATOM      3 CL   UNL     1       4.392   7.010  16.820  0.00  0.00    +0.000 Cl
ATOM      4  C   UNL     1       3.532   4.477  17.430  0.00  0.00    +0.000 A 
ATOM      5  C   UNL     1       2.778   3.569  18.215  0.00  0.00    +0.000 A 
ATOM      6  C   UNL     1       2.031   4.007  19.326  0.00  0.00    +0.000 A 
ATOM      7  C   UNL     1       2.063   5.375  19.673  0.00  0.00    +0.000 A 
ATOM      8 CL   UNL     1       1.075   5.964  20.981  0.00  0.00    +0.000 Cl
ENDROOT
BRANCH   4   9
ATOM      9  O   UNL     1       4.130   3.890  16.336  0.00  0.00    +0.000 OA
ATOM     10  C   UNL     1       5.539   3.818  16.224  0.00  0.00    +0.000 C 
ENDBRANCH   4   9
BRANCH   5  11
ATOM     11  O   UNL     1       2.751   2.266  17.747  0.00  0.00    +0.000 OA
ATOM     12  C   UNL     1       3.640   1.352  18.380  0.00  0.00    +0.000 C 
ENDBRANCH   5  11
BRANCH   6  13
ATOM     13  O   UNL     1       1.196   3.079  19.904  0.00  0.00    +0.000 OA
ATOM     14  C   UNL     1       1.535   2.584  21.197  0.00  0.00    +0.000 C 
ENDBRANCH   6  13
BRANCH   1  15
ATOM     15  C   UNL     1       2.967   7.759  19.392  0.00  0.00    +0.000 C 
BRANCH  15  19
ATOM     16  C   UNL     1      -0.658  10.079  18.856  0.00  0.00    +0.000 A 
ATOM     17  C   UNL     1       0.076   9.641  17.747  0.00  0.00    +0.000 A 
ATOM     18  C   UNL     1       1.275   8.933  17.909  0.00  0.00    +0.000 A 
ATOM     19  C   UNL     1       1.785   8.682  19.182  0.00  0.00    +0.000 A 
ATOM     20  C   UNL     1       1.092   9.221  20.277  0.00  0.00    +0.000 A 
ATOM     21  C   UNL     1      -0.110   9.930  20.134  0.00  0.00    +0.000 A 
BRANCH  16  23
ATOM     22  C   UNL     1      -2.682  10.052  17.661  0.00  0.00    +0.000 C 
ATOM     23  O   UNL     1      -1.890  10.650  18.687  0.00  0.00    +0.000 OA
ENDBRANCH  16  23
BRANCH  21  24
ATOM     24  O   UNL     1      -0.605  10.349  21.341  0.00  0.00    +0.000 OA
ATOM     25  C   UNL     1      -0.397   9.545  22.487  0.00  0.00    +0.000 C 
ENDBRANCH  21  24
ENDBRANCH  15  19
ENDBRANCH   1  15
TORSDOF 7
ENDMDL
MODEL 3
REMARK VINA RESULT:      -6.0      3.095      8.674
REMARK  Name = 
REMARK  12 active torsions:
REMARK  status: ('A' for Active; 'I' for Inactive)
REMARK    1  A    between atoms: C_1  and  O_2
REMARK    2  A    between atoms: O_2  and  C_3
REMARK    3  A    between atoms: C_6  and  C_7
REMARK    4  A    between atoms: C_7  and  C_8
REMARK    5  A    between atoms: C_11  and  O_12
REMARK    6  A    between atoms: O_12  and  C_13
REMARK    7  A    between atoms: C_14  and  O_15
REMARK    8  A    between atoms: O_15  and  C_16
REMARK    9  A    between atoms: C_17  and  O_18
REMARK   10  A    between atoms: O_18  and  C_19
REMARK   11  A    between atoms: C_23  and  O_24
REMARK   12  A    between atoms: O_24  and  C_25
REMARK                            x       y       z     vdW  Elec       q    Type
REMARK                         _______ _______ _______ _____ _____    ______ ____
ROOT
ATOM      1  C   UNL     1      -0.120  11.127  18.637  0.00  0.00    +0.000 A 
ATOM      2  C   UNL     1      -1.460  10.846  18.248  0.00  0.00    +0.000 A 
ATOM      3 CL   UNL     1      -1.717   9.691  16.977  0.00  0.00    +0.000 Cl
ATOM      4  C   UNL     1      -2.546  11.520  18.846  0.00  0.00    +0.000 A 
ATOM      5  C   UNL     1      -2.284  12.504  19.833  0.00  0.00    +0.000 A 
ATOM      6  C   UNL     1      -0.966  12.836  20.203  0.00  0.00    +0.000 A 
ATOM      7  C   UNL     1       0.107  12.151  19.595  0.00  0.00    +0.000 A 
ATOM      8 CL   UNL     1       1.748  12.605  19.962  0.00  0.00    +0.000 Cl
ENDROOT
BRANCH   4   9
ATOM      9  O   UNL     1      -3.884  11.385  18.548  0.00  0.00    +0.000 OA
ATOM     10  C   UNL     1      -4.392  11.756  17.280  0.00  0.00    +0.000 C 
ENDBRANCH   4   9
BRANCH   5  11
ATOM     11  O   UNL     1      -3.399  13.170  20.312  0.00  0.00    +0.000 OA
ATOM     12  C   UNL     1      -3.953  12.677  21.527  0.00  0.00    +0.000 C 
ENDBRANCH   5  11
BRANCH   6  13
ATOM     13  O   UNL     1      -0.823  13.925  21.033  0.00  0.00    +0.000 OA
ATOM     14  C   UNL     1      -0.563  13.687  22.414  0.00  0.00    +0.000 C 
ENDBRANCH   6  13
BRANCH   1  15
ATOM     15  C   UNL     1       1.043  10.310  18.074  0.00  0.00    +0.000 C 
BRANCH  15  19
ATOM     16  C   UNL     1       2.056   6.632  20.139  0.00  0.00    +0.000 A 
ATOM     17  C   UNL     1       1.439   7.687  20.825  0.00  0.00    +0.000 A 
ATOM     18  C   UNL     1       1.152   8.898  20.180  0.00  0.00    +0.000 A 
ATOM     19  C   UNL     1       1.510   9.095  18.847  0.00  0.00    +0.000 A 
ATOM     20  C   UNL     1       2.223   8.068  18.208  0.00  0.00    +0.000 A 
ATOM     21  C   UNL     1       2.517   6.849  18.837  0.00  0.00    +0.000 A 
BRANCH  16  23
ATOM     22  C   UNL     1       1.178   4.473  20.439  0.00  0.00    +0.000 C 
ATOM     23  O   UNL     1       2.209   5.413  20.740  0.00  0.00    +0.000 OA
ENDBRANCH  16  23
BRANCH  21  24
ATOM     24  O   UNL     1       3.209   6.000  18.013  0.00  0.00    +0.000 OA
ATOM     25  C   UNL     1       4.616   5.907  18.147  0.00  0.00    +0.000 C 
ENDBRANCH  21  24
ENDBRANCH  15  19
ENDBRANCH   1  15
TORSDOF 7
ENDMDL
MODEL 4
REMARK VINA RESULT:      -5.9      3.179      8.387
REMARK  Name = 
REMARK  12 active torsions:
REMARK  status: ('A' for Active; 'I' for Inactive)
REMARK    1  A    between atoms: C_1  and  O_2
REMARK    2  A    between atoms: O_2  and  C_3
REMARK    3  A    between atoms: C_6  and  C_7
REMARK    4  A    between atoms: C_7  and  C_8
REMARK    5  A    between atoms: C_11  and  O_12
REMARK    6  A    between atoms: O_12  and  C_13
REMARK    7  A    between atoms: C_14  and  O_15
REMARK    8  A    between atoms: O_15  and  C_16
REMARK    9  A    between atoms: C_17  and  O_18
REMARK   10  A    between atoms: O_18  and  C_19
REMARK   11  A    between atoms: C_23  and  O_24
REMARK   12  A    between atoms: O_24  and  C_25
REMARK                            x       y       z     vdW  Elec       q    Type
REMARK                         _______ _______ _______ _____ _____    ______ ____
ROOT
ATOM      1  C   UNL     1      -0.199  11.163  18.882  0.00  0.00    +0.000 A 
ATOM      2  C   UNL     1      -0.068  12.141  19.908  0.00  0.00    +0.000 A 
ATOM      3 CL   UNL     1       1.499  12.373  20.621  0.00  0.00    +0.000 Cl
ATOM      4  C   UNL     1      -1.188  12.868  20.365  0.00  0.00    +0.000 A 
ATOM      5  C   UNL     1      -2.460  12.596  19.799  0.00  0.00    +0.000 A 
ATOM      6  C   UNL     1      -2.626  11.602  18.816  0.00  0.00    +0.000 A 
ATOM      7  C   UNL     1      -1.494  10.885  18.371  0.00  0.00    +0.000 A 
ATOM      8 CL   UNL     1      -1.683   9.585  17.227  0.00  0.00    +0.000 Cl
ENDROOT
BRANCH   4   9
ATOM      9  O   UNL     1      -1.225  13.809  21.370  0.00  0.00    +0.000 OA
ATOM     10  C   UNL     1      -0.998  13.447  22.719  0.00  0.00    +0.000 C 
ENDBRANCH   4   9
BRANCH   5  11
ATOM     11  O   UNL     1      -3.514  13.298  20.357  0.00  0.00    +0.000 OA
ATOM     12  C   UNL     1      -4.296  12.601  21.321  0.00  0.00    +0.000 C 
ENDBRANCH   5  11
BRANCH   6  13
ATOM     13  O   UNL     1      -3.923  11.298  18.469  0.00  0.00    +0.000 OA
ATOM     14  C   UNL     1      -4.401  11.741  17.202  0.00  0.00    +0.000 C 
ENDBRANCH   6  13
BRANCH   1  15
ATOM     15  C   UNL     1       1.035  10.466  18.308  0.00  0.00    +0.000 C 
BRANCH  15  19
ATOM     16  C   UNL     1       2.106   6.636  20.041  0.00  0.00    +0.000 A 
ATOM     17  C   UNL     1       1.450   7.606  20.810  0.00  0.00    +0.000 A 
ATOM     18  C   UNL     1       1.143   8.865  20.275  0.00  0.00    +0.000 A 
ATOM     19  C   UNL     1       1.520   9.195  18.974  0.00  0.00    +0.000 A 
ATOM     20  C   UNL     1       2.271   8.251  18.256  0.00  0.00    +0.000 A 
ATOM     21  C   UNL     1       2.585   6.985  18.774  0.00  0.00    +0.000 A 
BRANCH  16  23
ATOM     22  C   UNL     1       1.120   4.542  20.450  0.00  0.00    +0.000 C 
ATOM     23  O   UNL     1       2.281   5.370  20.529  0.00  0.00    +0.000 OA
ENDBRANCH  16  23
BRANCH  21  24
ATOM     24  O   UNL     1       3.315   6.235  17.889  0.00  0.00    +0.000 OA
ATOM     25  C   UNL     1       4.389   6.842  17.195  0.00  0.00    +0.000 C 
ENDBRANCH  21  24
ENDBRANCH  15  19
ENDBRANCH   1  15
TORSDOF 7
ENDMDL
MODEL 5
REMARK VINA RESULT:      -5.9      0.890      1.881
REMARK  Name = 
REMARK  12 active torsions:
REMARK  status: ('A' for Active; 'I' for Inactive)
REMARK    1  A    between atoms: C_1  and  O_2
REMARK    2  A    between atoms: O_2  and  C_3
REMARK    3  A    between atoms: C_6  and  C_7
REMARK    4  A    between atoms: C_7  and  C_8
REMARK    5  A    between atoms: C_11  and  O_12
REMARK    6  A    between atoms: O_12  and  C_13
REMARK    7  A    between atoms: C_14  and  O_15
REMARK    8  A    between atoms: O_15  and  C_16
REMARK    9  A    between atoms: C_17  and  O_18
REMARK   10  A    between atoms: O_18  and  C_19
REMARK   11  A    between atoms: C_23  and  O_24
REMARK   12  A    between atoms: O_24  and  C_25
REMARK                            x       y       z     vdW  Elec       q    Type
REMARK                         _______ _______ _______ _____ _____    ______ ____
ROOT
ATOM      1  C   UNL     1       3.558   6.019  17.720  0.00  0.00    +0.000 A 
ATOM      2  C   UNL     1       4.937   5.934  18.063  0.00  0.00    +0.000 A 
ATOM      3 CL   UNL     1       5.971   7.260  17.625  0.00  0.00    +0.000 Cl
ATOM      4  C   UNL     1       5.458   4.787  18.698  0.00  0.00    +0.000 A 
ATOM      5  C   UNL     1       4.589   3.702  18.976  0.00  0.00    +0.000 A 
ATOM      6  C   UNL     1       3.230   3.739  18.606  0.00  0.00    +0.000 A 
ATOM      7  C   UNL     1       2.727   4.895  17.971  0.00  0.00    +0.000 A 
ATOM      8 CL   UNL     1       1.076   4.933  17.416  0.00  0.00    +0.000 Cl
ENDROOT
BRANCH   4   9
ATOM      9  O   UNL     1       6.767   4.546  19.052  0.00  0.00    +0.000 OA
ATOM     10  C   UNL     1       7.801   4.564  18.086  0.00  0.00    +0.000 C 
ENDBRANCH   4   9
BRANCH   5  11
ATOM     11  O   UNL     1       5.196   2.588  19.530  0.00  0.00    +0.000 OA
ATOM     12  C   UNL     1       4.663   2.132  20.769  0.00  0.00    +0.000 C 
ENDBRANCH   5  11
BRANCH   6  13
ATOM     13  O   UNL     1       2.525   2.567  18.759  0.00  0.00    +0.000 OA
ATOM     14  C   UNL     1       1.437   2.554  19.678  0.00  0.00    +0.000 C 
ENDBRANCH   6  13
BRANCH   1  15
ATOM     15  C   UNL     1       2.976   7.309  17.142  0.00  0.00    +0.000 C 
BRANCH  15  19
ATOM     16  C   UNL     1       0.763   9.943  19.784  0.00  0.00    +0.000 A 
ATOM     17  C   UNL     1       1.120  10.364  18.497  0.00  0.00    +0.000 A 
ATOM     18  C   UNL     1       1.878   9.540  17.653  0.00  0.00    +0.000 A 
ATOM     19  C   UNL     1       2.327   8.295  18.091  0.00  0.00    +0.000 A 
ATOM     20  C   UNL     1       2.051   7.936  19.420  0.00  0.00    +0.000 A 
ATOM     21  C   UNL     1       1.292   8.747  20.278  0.00  0.00    +0.000 A 
BRANCH  16  23
ATOM     22  C   UNL     1       0.381  12.019  20.818  0.00  0.00    +0.000 C 
ATOM     23  O   UNL     1      -0.087  10.698  20.547  0.00  0.00    +0.000 OA
ENDBRANCH  16  23
BRANCH  21  24
ATOM     24  O   UNL     1       1.147   8.184  21.519  0.00  0.00    +0.000 OA
ATOM     25  C   UNL     1       1.446   8.959  22.666  0.00  0.00    +0.000 C 
ENDBRANCH  21  24
ENDBRANCH  15  19
ENDBRANCH   1  15
TORSDOF 7
ENDMDL
MODEL 6
REMARK VINA RESULT:      -5.9      2.740      7.864
REMARK  Name = 
REMARK  12 active torsions:
REMARK  status: ('A' for Active; 'I' for Inactive)
REMARK    1  A    between atoms: C_1  and  O_2
REMARK    2  A    between atoms: O_2  and  C_3
REMARK    3  A    between atoms: C_6  and  C_7
REMARK    4  A    between atoms: C_7  and  C_8
REMARK    5  A    between atoms: C_11  and  O_12
REMARK    6  A    between atoms: O_12  and  C_13
REMARK    7  A    between atoms: C_14  and  O_15
REMARK    8  A    between atoms: O_15  and  C_16
REMARK    9  A    between atoms: C_17  and  O_18
REMARK   10  A    between atoms: O_18  and  C_19
REMARK   11  A    between atoms: C_23  and  O_24
REMARK   12  A    between atoms: O_24  and  C_25
REMARK                            x       y       z     vdW  Elec       q    Type
REMARK                         _______ _______ _______ _____ _____    ______ ____
ROOT
ATOM      1  C   UNL     1       0.987  10.157  19.536  0.00  0.00    +0.000 A 
ATOM      2  C   UNL     1       1.620  11.371  19.146  0.00  0.00    +0.000 A 
ATOM      3 CL   UNL     1       2.559  11.370  17.684  0.00  0.00    +0.000 Cl
ATOM      4  C   UNL     1       1.526  12.528  19.947  0.00  0.00    +0.000 A 
ATOM      5  C   UNL     1       0.804  12.463  21.166  0.00  0.00    +0.000 A 
ATOM      6  C   UNL     1       0.207  11.263  21.599  0.00  0.00    +0.000 A 
ATOM      7  C   UNL     1       0.311  10.116  20.784  0.00  0.00    +0.000 A 
ATOM      8 CL   UNL     1      -0.334   8.595  21.338  0.00  0.00    +0.000 Cl
ENDROOT
BRANCH   4   9
ATOM      9  O   UNL     1       2.113  13.754  19.723  0.00  0.00    +0.000 OA
ATOM     10  C   UNL     1       1.661  14.601  18.683  0.00  0.00    +0.000 C 
ENDBRANCH   4   9
BRANCH   5  11
ATOM     11  O   UNL     1       0.826  13.620  21.926  0.00  0.00    +0.000 OA
ATOM     12  C   UNL     1      -0.299  14.481  21.794  0.00  0.00    +0.000 C 
ENDBRANCH   5  11
BRANCH   6  13
ATOM     13  O   UNL     1      -0.310  11.266  22.875  0.00  0.00    +0.000 OA
ATOM     14  C   UNL     1      -1.715  11.449  23.029  0.00  0.00    +0.000 C 
ENDBRANCH   6  13
BRANCH   1  15
ATOM     15  C   UNL     1       0.990   8.942  18.607  0.00  0.00    +0.000 C 
BRANCH  15  19
ATOM     16  C   UNL     1       3.904   5.738  18.846  0.00  0.00    +0.000 A 
ATOM     17  C   UNL     1       2.984   5.942  19.883  0.00  0.00    +0.000 A 
ATOM     18  C   UNL     1       2.071   7.003  19.839  0.00  0.00    +0.000 A 
ATOM     19  C   UNL     1       2.083   7.908  18.778  0.00  0.00    +0.000 A 
ATOM     20  C   UNL     1       3.081   7.752  17.803  0.00  0.00    +0.000 A 
ATOM     21  C   UNL     1       4.002   6.693  17.829  0.00  0.00    +0.000 A 
BRANCH  16  23
ATOM     22  C   UNL     1       3.988   3.392  18.959  0.00  0.00    +0.000 C 
ATOM     23  O   UNL     1       4.699   4.624  18.836  0.00  0.00    +0.000 OA
ENDBRANCH  16  23
BRANCH  21  24
ATOM     24  O   UNL     1       4.871   6.743  16.771  0.00  0.00    +0.000 OA
ATOM     25  C   UNL     1       6.240   7.009  17.017  0.00  0.00    +0.000 C 
ENDBRANCH  21  24
ENDBRANCH  15  19
ENDBRANCH   1  15
TORSDOF 7
ENDMDL
MODEL 7
REMARK VINA RESULT:      -5.8      1.898      3.634
REMARK  Name = 
REMARK  12 active torsions:
REMARK  status: ('A' for Active; 'I' for Inactive)
REMARK    1  A    between atoms: C_1  and  O_2
REMARK    2  A    between atoms: O_2  and  C_3
REMARK    3  A    between atoms: C_6  and  C_7
REMARK    4  A    between atoms: C_7  and  C_8
REMARK    5  A    between atoms: C_11  and  O_12
REMARK    6  A    between atoms: O_12  and  C_13
REMARK    7  A    between atoms: C_14  and  O_15
REMARK    8  A    between atoms: O_15  and  C_16
REMARK    9  A    between atoms: C_17  and  O_18
REMARK   10  A    between atoms: O_18  and  C_19
REMARK   11  A    between atoms: C_23  and  O_24
REMARK   12  A    between atoms: O_24  and  C_25
REMARK                            x       y       z     vdW  Elec       q    Type
REMARK                         _______ _______ _______ _____ _____    ______ ____
ROOT
ATOM      1  C   UNL     1       2.836   6.420  18.901  0.00  0.00    +0.000 A 
ATOM      2  C   UNL     1       2.023   5.507  19.631  0.00  0.00    +0.000 A 
ATOM      3 CL   UNL     1       1.277   6.069  21.096  0.00  0.00    +0.000 Cl
ATOM      4  C   UNL     1       1.867   4.172  19.204  0.00  0.00    +0.000 A 
ATOM      5  C   UNL     1       2.549   3.740  18.038  0.00  0.00    +0.000 A 
ATOM      6  C   UNL     1       3.397   4.608  17.322  0.00  0.00    +0.000 A 
ATOM      7  C   UNL     1       3.541   5.940  17.766  0.00  0.00    +0.000 A 
ATOM      8 CL   UNL     1       4.655   7.009  16.959  0.00  0.00    +0.000 Cl
ENDROOT
BRANCH   4   9
ATOM      9  O   UNL     1       1.151   3.171  19.822  0.00  0.00    +0.000 OA
ATOM     10  C   UNL     1       1.487   2.730  21.125  0.00  0.00    +0.000 C 
ENDBRANCH   4   9
BRANCH   5  11
ATOM     11  O   UNL     1       2.401   2.398  17.732  0.00  0.00    +0.000 OA
ATOM     12  C   UNL     1       3.408   1.524  18.229  0.00  0.00    +0.000 C 
ENDBRANCH   5  11
BRANCH   6  13
ATOM     13  O   UNL     1       4.146   4.038  16.319  0.00  0.00    +0.000 OA
ATOM     14  C   UNL     1       5.554   3.930  16.511  0.00  0.00    +0.000 C 
ENDBRANCH   6  13
BRANCH   1  15
ATOM     15  C   UNL     1       2.906   7.894  19.301  0.00  0.00    +0.000 C 
BRANCH  15  19
ATOM     16  C   UNL     1      -0.802  10.063  18.696  0.00  0.00    +0.000 A 
ATOM     17  C   UNL     1      -0.074   9.578  17.601  0.00  0.00    +0.000 A 
ATOM     18  C   UNL     1       1.150   8.919  17.782  0.00  0.00    +0.000 A 
ATOM     19  C   UNL     1       1.692   8.765  19.058  0.00  0.00    +0.000 A 
ATOM     20  C   UNL     1       1.002   9.351  20.131  0.00  0.00    +0.000 A 
ATOM     21  C   UNL     1      -0.225  10.011  19.969  0.00  0.00    +0.000 A 
BRANCH  16  23
ATOM     22  C   UNL     1      -2.855   9.880  17.567  0.00  0.00    +0.000 C 
ATOM     23  O   UNL     1      -2.054  10.584  18.517  0.00  0.00    +0.000 OA
ENDBRANCH  16  23
BRANCH  21  24
ATOM     24  O   UNL     1      -0.711  10.490  21.157  0.00  0.00    +0.000 OA
ATOM     25  C   UNL     1      -0.426  11.826  21.529  0.00  0.00    +0.000 C 
ENDBRANCH  21  24
ENDBRANCH  15  19
ENDBRANCH   1  15
TORSDOF 7
ENDMDL
MODEL 8
REMARK VINA RESULT:      -5.7      1.658      2.653
REMARK  Name = 
REMARK  12 active torsions:
REMARK  status: ('A' for Active; 'I' for Inactive)
REMARK    1  A    between atoms: C_1  and  O_2
REMARK    2  A    between atoms: O_2  and  C_3
REMARK    3  A    between atoms: C_6  and  C_7
REMARK    4  A    between atoms: C_7  and  C_8
REMARK    5  A    between atoms: C_11  and  O_12
REMARK    6  A    between atoms: O_12  and  C_13
REMARK    7  A    between atoms: C_14  and  O_15
REMARK    8  A    between atoms: O_15  and  C_16
REMARK    9  A    between atoms: C_17  and  O_18
REMARK   10  A    between atoms: O_18  and  C_19
REMARK   11  A    between atoms: C_23  and  O_24
REMARK   12  A    between atoms: O_24  and  C_25
REMARK                            x       y       z     vdW  Elec       q    Type
REMARK                         _______ _______ _______ _____ _____    ______ ____
ROOT
ATOM      1  C   UNL     1       3.451   6.080  18.017  0.00  0.00    +0.000 A 
ATOM      2  C   UNL     1       4.556   6.371  17.169  0.00  0.00    +0.000 A 
ATOM      3 CL   UNL     1       4.284   7.401  15.797  0.00  0.00    +0.000 Cl
ATOM      4  C   UNL     1       5.825   5.803  17.410  0.00  0.00    +0.000 A 
ATOM      5  C   UNL     1       5.984   4.916  18.504  0.00  0.00    +0.000 A 
ATOM      6  C   UNL     1       4.897   4.573  19.332  0.00  0.00    +0.000 A 
ATOM      7  C   UNL     1       3.635   5.151  19.076  0.00  0.00    +0.000 A 
ATOM      8 CL   UNL     1       2.252   4.674  20.021  0.00  0.00    +0.000 Cl
ENDROOT
BRANCH   4   9
ATOM      9  O   UNL     1       6.971   5.959  16.660  0.00  0.00    +0.000 OA
ATOM     10  C   UNL     1       7.171   5.219  15.470  0.00  0.00    +0.000 C 
ENDBRANCH   4   9
BRANCH   5  11
ATOM     11  O   UNL     1       7.240   4.345  18.623  0.00  0.00    +0.000 OA
ATOM     12  C   UNL     1       8.211   5.104  19.335  0.00  0.00    +0.000 C 
ENDBRANCH   5  11
BRANCH   6  13
ATOM     13  O   UNL     1       5.121   3.569  20.247  0.00  0.00    +0.000 OA
ATOM     14  C   UNL     1       4.565   2.284  19.982  0.00  0.00    +0.000 C 
ENDBRANCH   6  13
BRANCH   1  15
ATOM     15  C   UNL     1       2.111   6.790  17.824  0.00  0.00    +0.000 C 
BRANCH  15  19
ATOM     16  C   UNL     1       1.081  10.521  19.784  0.00  0.00    +0.000 A 
ATOM     17  C   UNL     1       1.482  10.509  18.441  0.00  0.00    +0.000 A 
ATOM     18  C   UNL     1       1.864   9.317  17.812  0.00  0.00    +0.000 A 
ATOM     19  C   UNL     1       1.892   8.117  18.521  0.00  0.00    +0.000 A 
ATOM     20  C   UNL     1       1.591   8.165  19.892  0.00  0.00    +0.000 A 
ATOM     21  C   UNL     1       1.204   9.350  20.538  0.00  0.00    +0.000 A 
BRANCH  16  23
ATOM     22  C   UNL     1      -0.788  11.920  20.050  0.00  0.00    +0.000 C 
ATOM     23  O   UNL     1       0.584  11.665  20.347  0.00  0.00    +0.000 OA
ENDBRANCH  16  23
BRANCH  21  24
ATOM     24  O   UNL     1       0.953   9.149  21.870  0.00  0.00    +0.000 OA
ATOM     25  C   UNL     1      -0.378   8.916  22.292  0.00  0.00    +0.000 C 
ENDBRANCH  21  24
ENDBRANCH  15  19
ENDBRANCH   1  15
TORSDOF 7
ENDMDL
MODEL 9
REMARK VINA RESULT:      -5.5      1.655      3.536
REMARK  Name = 
REMARK  12 active torsions:
REMARK  status: ('A' for Active; 'I' for Inactive)
REMARK    1  A    between atoms: C_1  and  O_2
REMARK    2  A    between atoms: O_2  and  C_3
REMARK    3  A    between atoms: C_6  and  C_7
REMARK    4  A    between atoms: C_7  and  C_8
REMARK    5  A    between atoms: C_11  and  O_12
REMARK    6  A    between atoms: O_12  and  C_13
REMARK    7  A    between atoms: C_14  and  O_15
REMARK    8  A    between atoms: O_15  and  C_16
REMARK    9  A    between atoms: C_17  and  O_18
REMARK   10  A    between atoms: O_18  and  C_19
REMARK   11  A    between atoms: C_23  and  O_24
REMARK   12  A    between atoms: O_24  and  C_25
REMARK                            x       y       z     vdW  Elec       q    Type
REMARK                         _______ _______ _______ _____ _____    ______ ____
ROOT
ATOM      1  C   UNL     1       2.592   6.140  18.637  0.00  0.00    +0.000 A 
ATOM      2  C   UNL     1       2.156   5.326  19.721  0.00  0.00    +0.000 A 
ATOM      3 CL   UNL     1       0.657   5.735  20.498  0.00  0.00    +0.000 Cl
ATOM      4  C   UNL     1       2.941   4.248  20.181  0.00  0.00    +0.000 A 
ATOM      5  C   UNL     1       4.190   3.993  19.558  0.00  0.00    +0.000 A 
ATOM      6  C   UNL     1       4.667   4.810  18.514  0.00  0.00    +0.000 A 
ATOM      7  C   UNL     1       3.868   5.884  18.068  0.00  0.00    +0.000 A 
ATOM      8 CL   UNL     1       4.472   6.969  16.846  0.00  0.00    +0.000 Cl
ENDROOT
BRANCH   4   9
ATOM      9  O   UNL     1       2.673   3.404  21.236  0.00  0.00    +0.000 OA
ATOM     10  C   UNL     1       1.505   2.604  21.252  0.00  0.00    +0.000 C 
ENDBRANCH   4   9
BRANCH   5  11
ATOM     11  O   UNL     1       4.929   2.966  20.119  0.00  0.00    +0.000 OA
ATOM     12  C   UNL     1       4.672   1.659  19.618  0.00  0.00    +0.000 C 
ENDBRANCH   5  11
BRANCH   6  13
ATOM     13  O   UNL     1       5.963   4.584  18.108  0.00  0.00    +0.000 OA
ATOM     14  C   UNL     1       6.995   5.380  18.683  0.00  0.00    +0.000 C 
ENDBRANCH   6  13
BRANCH   1  15
ATOM     15  C   UNL     1       1.685   7.229  18.066  0.00  0.00    +0.000 C 
BRANCH  15  19
ATOM     16  C   UNL     1       1.250  11.098  19.979  0.00  0.00    +0.000 A 
ATOM     17  C   UNL     1       1.569  11.010  18.617  0.00  0.00    +0.000 A 
ATOM     18  C   UNL     1       1.760   9.766  18.000  0.00  0.00    +0.000 A 
ATOM     19  C   UNL     1       1.675   8.586  18.739  0.00  0.00    +0.000 A 
ATOM     20  C   UNL     1       1.462   8.700  20.122  0.00  0.00    +0.000 A 
ATOM     21  C   UNL     1       1.266   9.936  20.756  0.00  0.00    +0.000 A 
BRANCH  16  23
ATOM     22  C   UNL     1       2.046  13.191  20.694  0.00  0.00    +0.000 C 
ATOM     23  O   UNL     1       0.936  12.307  20.537  0.00  0.00    +0.000 OA
ENDBRANCH  16  23
BRANCH  21  24
ATOM     24  O   UNL     1       1.067   9.795  22.104  0.00  0.00    +0.000 OA
ATOM     25  C   UNL     1      -0.251   9.618  22.591  0.00  0.00    +0.000 C 
ENDBRANCH  21  24
ENDBRANCH  15  19
ENDBRANCH   1  15
TORSDOF 7
ENDMDL
