MODEL 1
REMARK VINA RESULT:      -8.4      0.000      0.000
REMARK  Name = 
REMARK  6 active torsions:
REMARK  status: ('A' for Active; 'I' for Inactive)
REMARK    1  A    between atoms: C_1  and  C_2
REMARK    2  A    between atoms: N_5  and  C_6
REMARK    3  A    between atoms: C_9  and  S_10
REMARK    4  A    between atoms: S_10  and  C_11
REMARK    5  A    between atoms: N_19  and  C_20
REMARK    6  A    between atoms: C_20  and  C_21
REMARK                            x       y       z     vdW  Elec       q    Type
REMARK                         _______ _______ _______ _____ _____    ______ ____
ROOT
ATOM      1  C   UNL     1       2.245  11.552  18.394  0.00  0.00    +0.000 C 
ATOM      2  C   UNL     1       1.103  10.549  18.512  0.00  0.00    +0.000 C 
ATOM      3  C   UNL     1       1.740   9.179  18.221  0.00  0.00    +0.000 C 
ATOM      4  O   UNL     1       2.218   8.922  17.121  0.00  0.00    +0.000 OA
ATOM      5  N   UNL     1       1.686   8.404  19.345  0.00  0.00    +0.000 N 
ATOM      6  C   UNL     1       0.856   9.032  20.282  0.00  0.00    +0.000 C 
ATOM      7  O   UNL     1       0.395   8.546  21.307  0.00  0.00    +0.000 OA
ATOM      8  N   UNL     1       0.545  10.374  19.844  0.00  0.00    +0.000 N 
ENDROOT
BRANCH   5   9
ATOM      9  C   UNL     1       2.289   7.075  19.426  0.00  0.00    +0.000 A 
ATOM     10  C   UNL     1       1.814   6.089  20.335  0.00  0.00    +0.000 A 
ATOM     11  C   UNL     1       2.377   4.793  20.443  0.00  0.00    +0.000 A 
ATOM     12  C   UNL     1       3.442   4.419  19.636  0.00  0.00    +0.000 A 
ATOM     13  C   UNL     1       3.950   5.378  18.738  0.00  0.00    +0.000 A 
ATOM     14  C   UNL     1       3.369   6.675  18.626  0.00  0.00    +0.000 A 
BRANCH  12  15
ATOM     15  S   UNL     1       4.197   2.816  19.848  0.00  0.00    +0.000 S 
BRANCH  15  16
ATOM     16  C   UNL     1       3.279   1.786  18.689  0.00  0.00    +0.000 C 
ATOM     17  F   UNL     1       2.026   1.489  19.097  0.00  0.00    +0.000 F 
ATOM     18  F   UNL     1       3.171   2.399  17.483  0.00  0.00    +0.000 F 
ATOM     19  F   UNL     1       3.918   0.608  18.474  0.00  0.00    +0.000 F 
ENDBRANCH  15  16
ENDBRANCH  12  15
ENDBRANCH   5   9
BRANCH   8  20
ATOM     20  C   UNL     1      -0.737  11.068  20.331  0.00  0.00    +0.000 C 
BRANCH  20  21
ATOM     21  C   UNL     1      -1.537  12.140  19.421  0.00  0.00    +0.000 A 
ATOM     22  C   UNL     1      -1.595  13.336  20.119  0.00  0.00    +0.000 A 
ATOM     23  C   UNL     1      -2.801  13.623  20.736  0.00  0.00    +0.000 A 
ATOM     24  N   UNL     1      -3.947  12.931  20.551  0.00  0.00    +0.000 NA
ATOM     25  C   UNL     1      -3.994  12.117  19.503  0.00  0.00    +0.000 A 
ATOM     26  C   UNL     1      -5.266  11.814  19.024  0.00  0.00    +0.000 A 
ATOM     27  C   UNL     1      -5.478  11.433  17.702  0.00  0.00    +0.000 A 
ATOM     28  C   UNL     1      -4.370  11.327  16.876  0.00  0.00    +0.000 A 
ATOM     29  C   UNL     1      -3.064  11.451  17.415  0.00  0.00    +0.000 A 
ATOM     30  C   UNL     1      -2.814  11.784  18.798  0.00  0.00    +0.000 A 
ENDBRANCH  20  21
ENDBRANCH   8  20
TORSDOF 5
ENDMDL
MODEL 2
REMARK VINA RESULT:      -8.3      2.475      3.515
REMARK  Name = 
REMARK  6 active torsions:
REMARK  status: ('A' for Active; 'I' for Inactive)
REMARK    1  A    between atoms: C_1  and  C_2
REMARK    2  A    between atoms: N_5  and  C_6
REMARK    3  A    between atoms: C_9  and  S_10
REMARK    4  A    between atoms: S_10  and  C_11
REMARK    5  A    between atoms: N_19  and  C_20
REMARK    6  A    between atoms: C_20  and  C_21
REMARK                            x       y       z     vdW  Elec       q    Type
REMARK                         _______ _______ _______ _____ _____    ______ ____
ROOT
ATOM      1  C   UNL     1      -0.963  12.944  18.817  0.00  0.00    +0.000 C 
ATOM      2  C   UNL     1      -1.245  11.795  19.779  0.00  0.00    +0.000 C 
ATOM      3  C   UNL     1      -0.627  10.552  19.113  0.00  0.00    +0.000 C 
ATOM      4  O   UNL     1      -1.053  10.127  18.045  0.00  0.00    +0.000 OA
ATOM      5  N   UNL     1       0.407  10.093  19.879  0.00  0.00    +0.000 N 
ATOM      6  C   UNL     1       0.381  10.758  21.111  0.00  0.00    +0.000 C 
ATOM      7  O   UNL     1       1.003  10.465  22.124  0.00  0.00    +0.000 OA
ATOM      8  N   UNL     1      -0.560  11.854  21.060  0.00  0.00    +0.000 N 
ENDROOT
BRANCH   5   9
ATOM      9  C   UNL     1       1.262   8.977  19.477  0.00  0.00    +0.000 A 
ATOM     10  C   UNL     1       1.867   8.921  18.192  0.00  0.00    +0.000 A 
ATOM     11  C   UNL     1       2.698   7.853  17.768  0.00  0.00    +0.000 A 
ATOM     12  C   UNL     1       2.968   6.792  18.619  0.00  0.00    +0.000 A 
ATOM     13  C   UNL     1       2.368   6.806  19.893  0.00  0.00    +0.000 A 
ATOM     14  C   UNL     1       1.545   7.890  20.316  0.00  0.00    +0.000 A 
BRANCH  12  15
ATOM     15  S   UNL     1       3.940   5.412  18.037  0.00  0.00    +0.000 S 
BRANCH  15  16
ATOM     16  C   UNL     1       2.692   4.156  17.705  0.00  0.00    +0.000 C 
ATOM     17  F   UNL     1       2.494   3.300  18.732  0.00  0.00    +0.000 F 
ATOM     18  F   UNL     1       1.494   4.730  17.428  0.00  0.00    +0.000 F 
ATOM     19  F   UNL     1       3.029   3.410  16.623  0.00  0.00    +0.000 F 
ENDBRANCH  15  16
ENDBRANCH  12  15
ENDBRANCH   5   9
BRANCH   8  20
ATOM     20  C   UNL     1      -1.208  12.376  22.353  0.00  0.00    +0.000 C 
BRANCH  20  21
ATOM     21  C   UNL     1      -2.372  13.500  22.341  0.00  0.00    +0.000 A 
ATOM     22  C   UNL     1      -1.964  14.549  23.150  0.00  0.00    +0.000 A 
ATOM     23  C   UNL     1      -2.535  14.603  24.410  0.00  0.00    +0.000 A 
ATOM     24  N   UNL     1      -3.570  13.839  24.823  0.00  0.00    +0.000 NA
ATOM     25  C   UNL     1      -4.266  13.214  23.882  0.00  0.00    +0.000 A 
ATOM     26  C   UNL     1      -5.573  12.867  24.220  0.00  0.00    +0.000 A 
ATOM     27  C   UNL     1      -6.557  12.695  23.251  0.00  0.00    +0.000 A 
ATOM     28  C   UNL     1      -6.188  12.844  21.923  0.00  0.00    +0.000 A 
ATOM     29  C   UNL     1      -4.823  13.007  21.577  0.00  0.00    +0.000 A 
ATOM     30  C   UNL     1      -3.772  13.126  22.560  0.00  0.00    +0.000 A 
ENDBRANCH  20  21
ENDBRANCH   8  20
TORSDOF 5
ENDMDL
MODEL 3
REMARK VINA RESULT:      -8.2      2.365      3.297
REMARK  Name = 
REMARK  6 active torsions:
REMARK  status: ('A' for Active; 'I' for Inactive)
REMARK    1  A    between atoms: C_1  and  C_2
REMARK    2  A    between atoms: N_5  and  C_6
REMARK    3  A    between atoms: C_9  and  S_10
REMARK    4  A    between atoms: S_10  and  C_11
REMARK    5  A    between atoms: N_19  and  C_20
REMARK    6  A    between atoms: C_20  and  C_21
REMARK                            x       y       z     vdW  Elec       q    Type
REMARK                         _______ _______ _______ _____ _____    ______ ____
ROOT
ATOM      1  C   UNL     1      -0.965  12.852  18.633  0.00  0.00    +0.000 C 
ATOM      2  C   UNL     1      -1.181  11.724  19.635  0.00  0.00    +0.000 C 
ATOM      3  C   UNL     1      -0.561  10.478  18.977  0.00  0.00    +0.000 C 
ATOM      4  O   UNL     1      -1.020  10.014  17.939  0.00  0.00    +0.000 OA
ATOM      5  N   UNL     1       0.514  10.063  19.712  0.00  0.00    +0.000 N 
ATOM      6  C   UNL     1       0.522  10.760  20.926  0.00  0.00    +0.000 C 
ATOM      7  O   UNL     1       1.191  10.509  21.920  0.00  0.00    +0.000 OA
ATOM      8  N   UNL     1      -0.446  11.833  20.885  0.00  0.00    +0.000 N 
ENDROOT
BRANCH   5   9
ATOM      9  C   UNL     1       1.378   8.956  19.304  0.00  0.00    +0.000 A 
ATOM     10  C   UNL     1       1.583   7.820  20.134  0.00  0.00    +0.000 A 
ATOM     11  C   UNL     1       2.415   6.731  19.772  0.00  0.00    +0.000 A 
ATOM     12  C   UNL     1       3.078   6.727  18.554  0.00  0.00    +0.000 A 
ATOM     13  C   UNL     1       2.913   7.847  17.716  0.00  0.00    +0.000 A 
ATOM     14  C   UNL     1       2.063   8.931  18.081  0.00  0.00    +0.000 A 
BRANCH  12  15
ATOM     15  S   UNL     1       4.194   5.392  18.155  0.00  0.00    +0.000 S 
BRANCH  15  16
ATOM     16  C   UNL     1       3.075   4.008  17.872  0.00  0.00    +0.000 C 
ATOM     17  F   UNL     1       1.859   4.375  17.412  0.00  0.00    +0.000 F 
ATOM     18  F   UNL     1       3.599   3.143  16.968  0.00  0.00    +0.000 F 
ATOM     19  F   UNL     1       2.874   3.305  19.016  0.00  0.00    +0.000 F 
ENDBRANCH  15  16
ENDBRANCH  12  15
ENDBRANCH   5   9
BRANCH   8  20
ATOM     20  C   UNL     1      -1.054  12.375  22.189  0.00  0.00    +0.000 C 
BRANCH  20  21
ATOM     21  C   UNL     1      -2.209  13.508  22.197  0.00  0.00    +0.000 A 
ATOM     22  C   UNL     1      -1.794  14.538  23.026  0.00  0.00    +0.000 A 
ATOM     23  C   UNL     1      -2.366  14.573  24.286  0.00  0.00    +0.000 A 
ATOM     24  N   UNL     1      -3.408  13.810  24.683  0.00  0.00    +0.000 NA
ATOM     25  C   UNL     1      -4.108  13.208  23.729  0.00  0.00    +0.000 A 
ATOM     26  C   UNL     1      -5.417  12.866  24.059  0.00  0.00    +0.000 A 
ATOM     27  C   UNL     1      -6.401  12.720  23.085  0.00  0.00    +0.000 A 
ATOM     28  C   UNL     1      -6.029  12.891  21.760  0.00  0.00    +0.000 A 
ATOM     29  C   UNL     1      -4.661  13.050  21.420  0.00  0.00    +0.000 A 
ATOM     30  C   UNL     1      -3.611  13.142  22.407  0.00  0.00    +0.000 A 
ENDBRANCH  20  21
ENDBRANCH   8  20
TORSDOF 5
ENDMDL
MODEL 4
REMARK VINA RESULT:      -8.2      5.953      9.716
REMARK  Name = 
REMARK  6 active torsions:
REMARK  status: ('A' for Active; 'I' for Inactive)
REMARK    1  A    between atoms: C_1  and  C_2
REMARK    2  A    between atoms: N_5  and  C_6
REMARK    3  A    between atoms: C_9  and  S_10
REMARK    4  A    between atoms: S_10  and  C_11
REMARK    5  A    between atoms: N_19  and  C_20
REMARK    6  A    between atoms: C_20  and  C_21
REMARK                            x       y       z     vdW  Elec       q    Type
REMARK                         _______ _______ _______ _____ _____    ______ ____
ROOT
ATOM      1  C   UNL     1       1.659   8.208  21.687  0.00  0.00    +0.000 C 
ATOM      2  C   UNL     1       0.980   8.425  20.339  0.00  0.00    +0.000 C 
ATOM      3  C   UNL     1       0.427   9.861  20.394  0.00  0.00    +0.000 C 
ATOM      4  O   UNL     1      -0.447  10.174  21.194  0.00  0.00    +0.000 OA
ATOM      5  N   UNL     1       1.075  10.633  19.471  0.00  0.00    +0.000 N 
ATOM      6  C   UNL     1       1.830   9.797  18.638  0.00  0.00    +0.000 C 
ATOM      7  O   UNL     1       2.361  10.094  17.576  0.00  0.00    +0.000 OA
ATOM      8  N   UNL     1       1.860   8.458  19.181  0.00  0.00    +0.000 N 
ENDROOT
BRANCH   5   9
ATOM      9  C   UNL     1       0.845  12.070  19.332  0.00  0.00    +0.000 A 
ATOM     10  C   UNL     1      -0.185  12.588  18.501  0.00  0.00    +0.000 A 
ATOM     11  C   UNL     1      -0.434  13.975  18.341  0.00  0.00    +0.000 A 
ATOM     12  C   UNL     1       0.337  14.910  19.015  0.00  0.00    +0.000 A 
ATOM     13  C   UNL     1       1.380  14.431  19.832  0.00  0.00    +0.000 A 
ATOM     14  C   UNL     1       1.614  13.035  19.998  0.00  0.00    +0.000 A 
BRANCH  12  15
ATOM     15  S   UNL     1       0.070  16.652  18.731  0.00  0.00    +0.000 S 
BRANCH  15  16
ATOM     16  C   UNL     1       1.680  17.212  18.147  0.00  0.00    +0.000 C 
ATOM     17  F   UNL     1       2.382  16.263  17.490  0.00  0.00    +0.000 F 
ATOM     18  F   UNL     1       1.543  18.265  17.300  0.00  0.00    +0.000 F 
ATOM     19  F   UNL     1       2.450  17.637  19.179  0.00  0.00    +0.000 F 
ENDBRANCH  15  16
ENDBRANCH  12  15
ENDBRANCH   5   9
BRANCH   8  20
ATOM     20  C   UNL     1       2.097   7.254  18.255  0.00  0.00    +0.000 C 
BRANCH  20  21
ATOM     21  C   UNL     1       2.918   5.945  18.734  0.00  0.00    +0.000 A 
ATOM     22  C   UNL     1       3.583   5.428  17.633  0.00  0.00    +0.000 A 
ATOM     23  C   UNL     1       3.011   4.312  17.046  0.00  0.00    +0.000 A 
ATOM     24  N   UNL     1       1.989   3.601  17.570  0.00  0.00    +0.000 NA
ATOM     25  C   UNL     1       1.712   3.806  18.853  0.00  0.00    +0.000 A 
ATOM     26  C   UNL     1       1.051   2.769  19.506  0.00  0.00    +0.000 A 
ATOM     27  C   UNL     1       1.145   2.596  20.884  0.00  0.00    +0.000 A 
ATOM     28  C   UNL     1       1.893   3.517  21.600  0.00  0.00    +0.000 A 
ATOM     29  C   UNL     1       2.404   4.673  20.958  0.00  0.00    +0.000 A 
ATOM     30  C   UNL     1       2.267   4.910  19.540  0.00  0.00    +0.000 A 
ENDBRANCH  20  21
ENDBRANCH   8  20
TORSDOF 5
ENDMDL
MODEL 5
REMARK VINA RESULT:      -8.2      1.161      2.086
REMARK  Name = 
REMARK  6 active torsions:
REMARK  status: ('A' for Active; 'I' for Inactive)
REMARK    1  A    between atoms: C_1  and  C_2
REMARK    2  A    between atoms: N_5  and  C_6
REMARK    3  A    between atoms: C_9  and  S_10
REMARK    4  A    between atoms: S_10  and  C_11
REMARK    5  A    between atoms: N_19  and  C_20
REMARK    6  A    between atoms: C_20  and  C_21
REMARK                            x       y       z     vdW  Elec       q    Type
REMARK                         _______ _______ _______ _____ _____    ______ ____
ROOT
ATOM      1  C   UNL     1      -0.635  10.410  21.673  0.00  0.00    +0.000 C 
ATOM      2  C   UNL     1       0.736  10.467  21.008  0.00  0.00    +0.000 C 
ATOM      3  C   UNL     1       1.376   9.095  21.286  0.00  0.00    +0.000 C 
ATOM      4  O   UNL     1       1.641   8.739  22.429  0.00  0.00    +0.000 OA
ATOM      5  N   UNL     1       1.540   8.423  20.108  0.00  0.00    +0.000 N 
ATOM      6  C   UNL     1       1.302   9.309  19.050  0.00  0.00    +0.000 C 
ATOM      7  O   UNL     1       1.563   9.136  17.867  0.00  0.00    +0.000 OA
ATOM      8  N   UNL     1       0.735  10.539  19.555  0.00  0.00    +0.000 N 
ENDROOT
BRANCH   5   9
ATOM      9  C   UNL     1       2.041   7.051  20.037  0.00  0.00    +0.000 A 
ATOM     10  C   UNL     1       1.424   5.989  20.755  0.00  0.00    +0.000 A 
ATOM     11  C   UNL     1       1.885   4.649  20.712  0.00  0.00    +0.000 A 
ATOM     12  C   UNL     1       2.984   4.308  19.939  0.00  0.00    +0.000 A 
ATOM     13  C   UNL     1       3.631   5.339  19.231  0.00  0.00    +0.000 A 
ATOM     14  C   UNL     1       3.154   6.682  19.268  0.00  0.00    +0.000 A 
BRANCH  12  15
ATOM     15  S   UNL     1       3.606   2.635  19.968  0.00  0.00    +0.000 S 
BRANCH  15  16
ATOM     16  C   UNL     1       3.416   2.108  18.255  0.00  0.00    +0.000 C 
ATOM     17  F   UNL     1       2.148   2.191  17.797  0.00  0.00    +0.000 F 
ATOM     18  F   UNL     1       4.187   2.863  17.433  0.00  0.00    +0.000 F 
ATOM     19  F   UNL     1       3.816   0.822  18.096  0.00  0.00    +0.000 F 
ENDBRANCH  15  16
ENDBRANCH  12  15
ENDBRANCH   5   9
BRANCH   8  20
ATOM     20  C   UNL     1       0.899  11.847  18.764  0.00  0.00    +0.000 C 
BRANCH  20  21
ATOM     21  C   UNL     1      -0.368  12.735  18.292  0.00  0.00    +0.000 A 
ATOM     22  C   UNL     1      -0.097  14.061  18.590  0.00  0.00    +0.000 A 
ATOM     23  C   UNL     1      -0.720  14.571  19.717  0.00  0.00    +0.000 A 
ATOM     24  N   UNL     1      -1.691  13.942  20.415  0.00  0.00    +0.000 NA
ATOM     25  C   UNL     1      -2.285  12.913  19.821  0.00  0.00    +0.000 A 
ATOM     26  C   UNL     1      -3.563  12.601  20.279  0.00  0.00    +0.000 A 
ATOM     27  C   UNL     1      -4.486  11.941  19.473  0.00  0.00    +0.000 A 
ATOM     28  C   UNL     1      -4.081  11.565  18.202  0.00  0.00    +0.000 A 
ATOM     29  C   UNL     1      -2.726  11.715  17.813  0.00  0.00    +0.000 A 
ATOM     30  C   UNL     1      -1.732  12.340  18.653  0.00  0.00    +0.000 A 
ENDBRANCH  20  21
ENDBRANCH   8  20
TORSDOF 5
ENDMDL
MODEL 6
REMARK VINA RESULT:      -8.1      2.184      3.663
REMARK  Name = 
REMARK  6 active torsions:
REMARK  status: ('A' for Active; 'I' for Inactive)
REMARK    1  A    between atoms: C_1  and  C_2
REMARK    2  A    between atoms: N_5  and  C_6
REMARK    3  A    between atoms: C_9  and  S_10
REMARK    4  A    between atoms: S_10  and  C_11
REMARK    5  A    between atoms: N_19  and  C_20
REMARK    6  A    between atoms: C_20  and  C_21
REMARK                            x       y       z     vdW  Elec       q    Type
REMARK                         _______ _______ _______ _____ _____    ______ ____
ROOT
ATOM      1  C   UNL     1      -1.197  12.013  22.160  0.00  0.00    +0.000 C 
ATOM      2  C   UNL     1      -0.926  12.177  20.669  0.00  0.00    +0.000 C 
ATOM      3  C   UNL     1       0.345  11.352  20.398  0.00  0.00    +0.000 C 
ATOM      4  O   UNL     1       1.419  11.655  20.907  0.00  0.00    +0.000 OA
ATOM      5  N   UNL     1       0.040  10.304  19.576  0.00  0.00    +0.000 N 
ATOM      6  C   UNL     1      -1.254  10.490  19.074  0.00  0.00    +0.000 C 
ATOM      7  O   UNL     1      -1.783   9.887  18.150  0.00  0.00    +0.000 OA
ATOM      8  N   UNL     1      -1.903  11.575  19.775  0.00  0.00    +0.000 N 
ENDROOT
BRANCH   5   9
ATOM      9  C   UNL     1       1.011   9.277  19.201  0.00  0.00    +0.000 A 
ATOM     10  C   UNL     1       1.385   8.236  20.095  0.00  0.00    +0.000 A 
ATOM     11  C   UNL     1       2.325   7.227  19.766  0.00  0.00    +0.000 A 
ATOM     12  C   UNL     1       2.930   7.210  18.518  0.00  0.00    +0.000 A 
ATOM     13  C   UNL     1       2.598   8.238  17.616  0.00  0.00    +0.000 A 
ATOM     14  C   UNL     1       1.641   9.241  17.949  0.00  0.00    +0.000 A 
BRANCH  12  15
ATOM     15  S   UNL     1       4.179   5.987  18.154  0.00  0.00    +0.000 S 
BRANCH  15  16
ATOM     16  C   UNL     1       3.202   4.529  17.746  0.00  0.00    +0.000 C 
ATOM     17  F   UNL     1       3.643   3.865  16.655  0.00  0.00    +0.000 F 
ATOM     18  F   UNL     1       3.202   3.646  18.777  0.00  0.00    +0.000 F 
ATOM     19  F   UNL     1       1.906   4.861  17.515  0.00  0.00    +0.000 F 
ENDBRANCH  15  16
ENDBRANCH  12  15
ENDBRANCH   5   9
BRANCH   8  20
ATOM     20  C   UNL     1      -3.040  12.360  19.100  0.00  0.00    +0.000 C 
BRANCH  20  21
ATOM     21  C   UNL     1      -4.569  11.831  19.097  0.00  0.00    +0.000 A 
ATOM     22  C   UNL     1      -4.909  11.512  17.792  0.00  0.00    +0.000 A 
ATOM     23  C   UNL     1      -5.693  12.437  17.123  0.00  0.00    +0.000 A 
ATOM     24  N   UNL     1      -6.288  13.506  17.699  0.00  0.00    +0.000 NA
ATOM     25  C   UNL     1      -6.368  13.505  19.024  0.00  0.00    +0.000 A 
ATOM     26  C   UNL     1      -7.378  14.292  19.572  0.00  0.00    +0.000 A 
ATOM     27  C   UNL     1      -7.917  14.019  20.827  0.00  0.00    +0.000 A 
ATOM     28  C   UNL     1      -7.388  12.953  21.538  0.00  0.00    +0.000 A 
ATOM     29  C   UNL     1      -6.237  12.277  21.058  0.00  0.00    +0.000 A 
ATOM     30  C   UNL     1      -5.619  12.582  19.789  0.00  0.00    +0.000 A 
ENDBRANCH  20  21
ENDBRANCH   8  20
TORSDOF 5
ENDMDL
MODEL 7
REMARK VINA RESULT:      -8.1      2.185      2.988
REMARK  Name = 
REMARK  6 active torsions:
REMARK  status: ('A' for Active; 'I' for Inactive)
REMARK    1  A    between atoms: C_1  and  C_2
REMARK    2  A    between atoms: N_5  and  C_6
REMARK    3  A    between atoms: C_9  and  S_10
REMARK    4  A    between atoms: S_10  and  C_11
REMARK    5  A    between atoms: N_19  and  C_20
REMARK    6  A    between atoms: C_20  and  C_21
REMARK                            x       y       z     vdW  Elec       q    Type
REMARK                         _______ _______ _______ _____ _____    ______ ____
ROOT
ATOM      1  C   UNL     1       0.529  12.445  19.019  0.00  0.00    +0.000 C 
ATOM      2  C   UNL     1      -0.218  11.417  19.861  0.00  0.00    +0.000 C 
ATOM      3  C   UNL     1       0.206  10.050  19.294  0.00  0.00    +0.000 C 
ATOM      4  O   UNL     1      -0.077   9.723  18.147  0.00  0.00    +0.000 OA
ATOM      5  N   UNL     1       0.915   9.366  20.241  0.00  0.00    +0.000 N 
ATOM      6  C   UNL     1       0.794  10.037  21.464  0.00  0.00    +0.000 C 
ATOM      7  O   UNL     1       1.100   9.619  22.573  0.00  0.00    +0.000 OA
ATOM      8  N   UNL     1       0.178  11.329  21.258  0.00  0.00    +0.000 N 
ENDROOT
BRANCH   5   9
ATOM      9  C   UNL     1       1.539   8.068  19.986  0.00  0.00    +0.000 A 
ATOM     10  C   UNL     1       2.392   7.852  18.869  0.00  0.00    +0.000 A 
ATOM     11  C   UNL     1       3.009   6.607  18.590  0.00  0.00    +0.000 A 
ATOM     12  C   UNL     1       2.807   5.519  19.425  0.00  0.00    +0.000 A 
ATOM     13  C   UNL     1       1.952   5.692  20.530  0.00  0.00    +0.000 A 
ATOM     14  C   UNL     1       1.345   6.951  20.811  0.00  0.00    +0.000 A 
BRANCH  12  15
ATOM     15  S   UNL     1       3.518   3.935  19.008  0.00  0.00    +0.000 S 
BRANCH  15  16
ATOM     16  C   UNL     1       2.467   3.368  17.658  0.00  0.00    +0.000 C 
ATOM     17  F   UNL     1       1.252   3.957  17.630  0.00  0.00    +0.000 F 
ATOM     18  F   UNL     1       3.054   3.608  16.458  0.00  0.00    +0.000 F 
ATOM     19  F   UNL     1       2.261   2.029  17.733  0.00  0.00    +0.000 F 
ENDBRANCH  15  16
ENDBRANCH  12  15
ENDBRANCH   5   9
BRANCH   8  20
ATOM     20  C   UNL     1      -0.580  12.015  22.405  0.00  0.00    +0.000 C 
BRANCH  20  21
ATOM     21  C   UNL     1      -1.635  13.215  22.147  0.00  0.00    +0.000 A 
ATOM     22  C   UNL     1      -1.185  14.336  22.827  0.00  0.00    +0.000 A 
ATOM     23  C   UNL     1      -1.826  14.621  24.020  0.00  0.00    +0.000 A 
ATOM     24  N   UNL     1      -2.950  14.013  24.459  0.00  0.00    +0.000 NA
ATOM     25  C   UNL     1      -3.640  13.314  23.566  0.00  0.00    +0.000 A 
ATOM     26  C   UNL     1      -4.990  13.127  23.851  0.00  0.00    +0.000 A 
ATOM     27  C   UNL     1      -5.924  12.893  22.845  0.00  0.00    +0.000 A 
ATOM     28  C   UNL     1      -5.460  12.813  21.541  0.00  0.00    +0.000 A 
ATOM     29  C   UNL     1      -4.067  12.814  21.279  0.00  0.00    +0.000 A 
ATOM     30  C   UNL     1      -3.073  12.992  22.311  0.00  0.00    +0.000 A 
ENDBRANCH  20  21
ENDBRANCH   8  20
TORSDOF 5
ENDMDL
MODEL 8
REMARK VINA RESULT:      -8.1      2.341      4.598
REMARK  Name = 
REMARK  6 active torsions:
REMARK  status: ('A' for Active; 'I' for Inactive)
REMARK    1  A    between atoms: C_1  and  C_2
REMARK    2  A    between atoms: N_5  and  C_6
REMARK    3  A    between atoms: C_9  and  S_10
REMARK    4  A    between atoms: S_10  and  C_11
REMARK    5  A    between atoms: N_19  and  C_20
REMARK    6  A    between atoms: C_20  and  C_21
REMARK                            x       y       z     vdW  Elec       q    Type
REMARK                         _______ _______ _______ _____ _____    ______ ____
ROOT
ATOM      1  C   UNL     1      -0.904  10.596  23.138  0.00  0.00    +0.000 C 
ATOM      2  C   UNL     1      -0.069  11.054  21.948  0.00  0.00    +0.000 C 
ATOM      3  C   UNL     1       0.938   9.917  21.701  0.00  0.00    +0.000 C 
ATOM      4  O   UNL     1       1.788   9.629  22.537  0.00  0.00    +0.000 OA
ATOM      5  N   UNL     1       0.686   9.342  20.487  0.00  0.00    +0.000 N 
ATOM      6  C   UNL     1      -0.229  10.143  19.793  0.00  0.00    +0.000 C 
ATOM      7  O   UNL     1      -0.523  10.075  18.607  0.00  0.00    +0.000 OA
ATOM      8  N   UNL     1      -0.771  11.151  20.677  0.00  0.00    +0.000 N 
ENDROOT
BRANCH   5   9
ATOM      9  C   UNL     1       1.410   8.171  19.994  0.00  0.00    +0.000 A 
ATOM     10  C   UNL     1       2.111   8.188  18.757  0.00  0.00    +0.000 A 
ATOM     11  C   UNL     1       2.820   7.071  18.248  0.00  0.00    +0.000 A 
ATOM     12  C   UNL     1       2.866   5.883  18.962  0.00  0.00    +0.000 A 
ATOM     13  C   UNL     1       2.167   5.825  20.182  0.00  0.00    +0.000 A 
ATOM     14  C   UNL     1       1.467   6.957  20.694  0.00  0.00    +0.000 A 
BRANCH  12  15
ATOM     15  S   UNL     1       3.686   4.459  18.263  0.00  0.00    +0.000 S 
BRANCH  15  16
ATOM     16  C   UNL     1       2.341   3.273  18.082  0.00  0.00    +0.000 C 
ATOM     17  F   UNL     1       2.611   2.272  17.215  0.00  0.00    +0.000 F 
ATOM     18  F   UNL     1       2.044   2.699  19.275  0.00  0.00    +0.000 F 
ATOM     19  F   UNL     1       1.210   3.884  17.648  0.00  0.00    +0.000 F 
ENDBRANCH  15  16
ENDBRANCH  12  15
ENDBRANCH   5   9
BRANCH   8  20
ATOM     20  C   UNL     1      -1.322  12.466  20.104  0.00  0.00    +0.000 C 
BRANCH  20  21
ATOM     21  C   UNL     1      -0.358  13.700  19.697  0.00  0.00    +0.000 A 
ATOM     22  C   UNL     1       0.059  13.506  18.390  0.00  0.00    +0.000 A 
ATOM     23  C   UNL     1       1.347  13.024  18.228  0.00  0.00    +0.000 A 
ATOM     24  N   UNL     1       2.261  12.913  19.216  0.00  0.00    +0.000 NA
ATOM     25  C   UNL     1       2.011  13.574  20.340  0.00  0.00    +0.000 A 
ATOM     26  C   UNL     1       3.121  13.880  21.125  0.00  0.00    +0.000 A 
ATOM     27  C   UNL     1       3.115  14.956  22.009  0.00  0.00    +0.000 A 
ATOM     28  C   UNL     1       1.950  15.699  22.114  0.00  0.00    +0.000 A 
ATOM     29  C   UNL     1       0.769  15.269  21.457  0.00  0.00    +0.000 A 
ATOM     30  C   UNL     1       0.730  14.120  20.584  0.00  0.00    +0.000 A 
ENDBRANCH  20  21
ENDBRANCH   8  20
TORSDOF 5
ENDMDL
MODEL 9
REMARK VINA RESULT:      -8.1      2.006      2.722
REMARK  Name = 
REMARK  6 active torsions:
REMARK  status: ('A' for Active; 'I' for Inactive)
REMARK    1  A    between atoms: C_1  and  C_2
REMARK    2  A    between atoms: N_5  and  C_6
REMARK    3  A    between atoms: C_9  and  S_10
REMARK    4  A    between atoms: S_10  and  C_11
REMARK    5  A    between atoms: N_19  and  C_20
REMARK    6  A    between atoms: C_20  and  C_21
REMARK                            x       y       z     vdW  Elec       q    Type
REMARK                         _______ _______ _______ _____ _____    ______ ____
ROOT
ATOM      1  C   UNL     1       0.456  12.564  18.814  0.00  0.00    +0.000 C 
ATOM      2  C   UNL     1      -0.236  11.544  19.712  0.00  0.00    +0.000 C 
ATOM      3  C   UNL     1       0.174  10.171  19.150  0.00  0.00    +0.000 C 
ATOM      4  O   UNL     1      -0.163   9.819  18.025  0.00  0.00    +0.000 OA
ATOM      5  N   UNL     1       0.938   9.512  20.072  0.00  0.00    +0.000 N 
ATOM      6  C   UNL     1       0.871  10.206  21.286  0.00  0.00    +0.000 C 
ATOM      7  O   UNL     1       1.237   9.811  22.386  0.00  0.00    +0.000 OA
ATOM      8  N   UNL     1       0.232  11.487  21.088  0.00  0.00    +0.000 N 
ENDROOT
BRANCH   5   9
ATOM      9  C   UNL     1       1.562   8.216  19.810  0.00  0.00    +0.000 A 
ATOM     10  C   UNL     1       1.388   7.109  20.685  0.00  0.00    +0.000 A 
ATOM     11  C   UNL     1       1.981   5.840  20.463  0.00  0.00    +0.000 A 
ATOM     12  C   UNL     1       2.773   5.620  19.346  0.00  0.00    +0.000 A 
ATOM     13  C   UNL     1       2.982   6.701  18.469  0.00  0.00    +0.000 A 
ATOM     14  C   UNL     1       2.371   7.970  18.691  0.00  0.00    +0.000 A 
BRANCH  12  15
ATOM     15  S   UNL     1       3.585   4.045  19.130  0.00  0.00    +0.000 S 
BRANCH  15  16
ATOM     16  C   UNL     1       2.943   3.478  17.545  0.00  0.00    +0.000 C 
ATOM     17  F   UNL     1       3.655   3.912  16.482  0.00  0.00    +0.000 F 
ATOM     18  F   UNL     1       2.929   2.122  17.489  0.00  0.00    +0.000 F 
ATOM     19  F   UNL     1       1.663   3.890  17.364  0.00  0.00    +0.000 F 
ENDBRANCH  15  16
ENDBRANCH  12  15
ENDBRANCH   5   9
BRANCH   8  20
ATOM     20  C   UNL     1      -0.475  12.187  22.259  0.00  0.00    +0.000 C 
BRANCH  20  21
ATOM     21  C   UNL     1      -1.519  13.403  22.035  0.00  0.00    +0.000 A 
ATOM     22  C   UNL     1      -1.276  14.362  23.007  0.00  0.00    +0.000 A 
ATOM     23  C   UNL     1      -2.159  14.385  24.073  0.00  0.00    +0.000 A 
ATOM     24  N   UNL     1      -3.315  13.687  24.135  0.00  0.00    +0.000 NA
ATOM     25  C   UNL     1      -3.771  13.182  22.995  0.00  0.00    +0.000 A 
ATOM     26  C   UNL     1      -5.140  12.926  22.949  0.00  0.00    +0.000 A 
ATOM     27  C   UNL     1      -5.837  12.898  21.744  0.00  0.00    +0.000 A 
ATOM     28  C   UNL     1      -5.117  13.097  20.577  0.00  0.00    +0.000 A 
ATOM     29  C   UNL     1      -3.701  13.167  20.616  0.00  0.00    +0.000 A 
ATOM     30  C   UNL     1      -2.947  13.135  21.847  0.00  0.00    +0.000 A 
ENDBRANCH  20  21
ENDBRANCH   8  20
TORSDOF 5
ENDMDL
