MODEL 1
REMARK VINA RESULT:      -8.4      0.000      0.000
REMARK  Name = 
REMARK  8 active torsions:
REMARK  status: ('A' for Active; 'I' for Inactive)
REMARK    1  A    between atoms: C_1  and  O_2
REMARK    2  A    between atoms: O_2  and  C_3
REMARK    3  A    between atoms: C_6  and  C_7
REMARK    4  A    between atoms: C_7  and  C_8
REMARK    5  A    between atoms: C_8  and  N_9
REMARK    6  A    between atoms: C_10  and  C_11
REMARK    7  A    between atoms: C_13  and  N_14
REMARK    8  A    between atoms: C_18  and  N_19
REMARK                            x       y       z     vdW  Elec       q    Type
REMARK                         _______ _______ _______ _____ _____    ______ ____
ROOT
ATOM      1  N   UNL     1       0.727   9.621  20.154  0.00  0.00    +0.000 N 
ATOM      2  C   UNL     1       1.082   8.501  20.935  0.00  0.00    +0.000 A 
ATOM      3  N   UNL     1       0.551   8.646  22.142  0.00  0.00    +0.000 NA
ATOM      4  C   UNL     1       0.238   9.967  22.196  0.00  0.00    +0.000 A 
ATOM      5  N   UNL     1      -0.648  10.582  23.002  0.00  0.00    +0.000 NA
ATOM      6  C   UNL     1      -0.831  11.870  22.650  0.00  0.00    +0.000 A 
ATOM      7  C   UNL     1      -2.088  12.431  22.755  0.00  0.00    +0.000 A 
ATOM      8  C   UNL     1      -2.316  13.747  22.357  0.00  0.00    +0.000 A 
ATOM      9  C   UNL     1      -1.224  14.568  22.117  0.00  0.00    +0.000 A 
ATOM     10  C   UNL     1       0.029  13.987  21.957  0.00  0.00    +0.000 A 
ATOM     11  C   UNL     1       0.110  12.605  21.903  0.00  0.00    +0.000 A 
ATOM     12  N   UNL     1       0.890  11.978  20.988  0.00  0.00    +0.000 NA
ATOM     13  C   UNL     1       0.773  10.639  21.104  0.00  0.00    +0.000 A 
ENDROOT
BRANCH   2  14
ATOM     14  C   UNL     1       1.703   7.294  20.397  0.00  0.00    +0.000 A 
ATOM     15  C   UNL     1       2.553   7.348  19.285  0.00  0.00    +0.000 A 
ATOM     16  C   UNL     1       3.104   6.169  18.763  0.00  0.00    +0.000 A 
ATOM     17  C   UNL     1       2.855   4.931  19.361  0.00  0.00    +0.000 A 
ATOM     18  C   UNL     1       2.011   4.886  20.482  0.00  0.00    +0.000 A 
ATOM     19  C   UNL     1       1.443   6.055  21.010  0.00  0.00    +0.000 A 
BRANCH  16  20
ATOM     20  N   UNL     1       3.950   6.241  17.575  0.00  0.00    +0.000 N 
ATOM     21  O   UNL     1       4.260   7.370  17.154  0.00  0.00    +0.000 OA
ATOM     22  O   UNL     1       4.286   5.185  17.043  0.00  0.00    +0.000 OA
ENDBRANCH  16  20
BRANCH  18  23
ATOM     23  N   UNL     1       1.712   3.591  21.114  0.00  0.00    +0.000 N 
ATOM     24  O   UNL     1       2.243   3.362  22.205  0.00  0.00    +0.000 OA
ATOM     25  O   UNL     1       0.958   2.813  20.512  0.00  0.00    +0.000 OA
ENDBRANCH  18  23
ENDBRANCH   2  14
BRANCH   1  26
ATOM     26  C   UNL     1      -0.449   9.442  19.258  0.00  0.00    +0.000 C 
BRANCH  26  27
ATOM     27  C   UNL     1      -0.616  10.436  18.109  0.00  0.00    +0.000 C 
BRANCH  27  31
ATOM     28  C   UNL     1      -4.721  11.708  17.311  0.00  0.00    +0.000 A 
ATOM     29  C   UNL     1      -4.125  11.940  18.552  0.00  0.00    +0.000 A 
ATOM     30  C   UNL     1      -2.814  11.510  18.818  0.00  0.00    +0.000 A 
ATOM     31  C   UNL     1      -2.068  10.830  17.845  0.00  0.00    +0.000 A 
ATOM     32  C   UNL     1      -2.693  10.561  16.616  0.00  0.00    +0.000 A 
ATOM     33  C   UNL     1      -4.006  11.000  16.350  0.00  0.00    +0.000 A 
BRANCH  28  35
ATOM     34  C   UNL     1      -6.962  11.669  18.102  0.00  0.00    +0.000 C 
ATOM     35  O   UNL     1      -6.002  12.174  17.180  0.00  0.00    +0.000 OA
ENDBRANCH  28  35
ENDBRANCH  27  31
ENDBRANCH  26  27
ENDBRANCH   1  26
TORSDOF 7
ENDMDL
MODEL 2
REMARK VINA RESULT:      -8.4      0.376      1.158
REMARK  Name = 
REMARK  8 active torsions:
REMARK  status: ('A' for Active; 'I' for Inactive)
REMARK    1  A    between atoms: C_1  and  O_2
REMARK    2  A    between atoms: O_2  and  C_3
REMARK    3  A    between atoms: C_6  and  C_7
REMARK    4  A    between atoms: C_7  and  C_8
REMARK    5  A    between atoms: C_8  and  N_9
REMARK    6  A    between atoms: C_10  and  C_11
REMARK    7  A    between atoms: C_13  and  N_14
REMARK    8  A    between atoms: C_18  and  N_19
REMARK                            x       y       z     vdW  Elec       q    Type
REMARK                         _______ _______ _______ _____ _____    ______ ____
ROOT
ATOM      1  N   UNL     1       0.730   9.642  20.165  0.00  0.00    +0.000 N 
ATOM      2  C   UNL     1       1.010   8.485  20.923  0.00  0.00    +0.000 A 
ATOM      3  N   UNL     1       0.389   8.589  22.090  0.00  0.00    +0.000 NA
ATOM      4  C   UNL     1       0.088   9.911  22.175  0.00  0.00    +0.000 A 
ATOM      5  N   UNL     1      -0.850  10.507  22.936  0.00  0.00    +0.000 NA
ATOM      6  C   UNL     1      -0.990  11.810  22.625  0.00  0.00    +0.000 A 
ATOM      7  C   UNL     1      -2.245  12.385  22.655  0.00  0.00    +0.000 A 
ATOM      8  C   UNL     1      -2.427  13.718  22.296  0.00  0.00    +0.000 A 
ATOM      9  C   UNL     1      -1.310  14.532  22.175  0.00  0.00    +0.000 A 
ATOM     10  C   UNL     1      -0.056  13.940  22.088  0.00  0.00    +0.000 A 
ATOM     11  C   UNL     1       0.014  12.560  21.983  0.00  0.00    +0.000 A 
ATOM     12  N   UNL     1       0.855  11.960  21.106  0.00  0.00    +0.000 NA
ATOM     13  C   UNL     1       0.714  10.619  21.156  0.00  0.00    +0.000 A 
ENDROOT
BRANCH   2  14
ATOM     14  C   UNL     1       1.657   7.292  20.384  0.00  0.00    +0.000 A 
ATOM     15  C   UNL     1       2.517   7.367  19.282  0.00  0.00    +0.000 A 
ATOM     16  C   UNL     1       3.093   6.200  18.759  0.00  0.00    +0.000 A 
ATOM     17  C   UNL     1       2.860   4.955  19.347  0.00  0.00    +0.000 A 
ATOM     18  C   UNL     1       2.006   4.890  20.459  0.00  0.00    +0.000 A 
ATOM     19  C   UNL     1       1.413   6.046  20.988  0.00  0.00    +0.000 A 
BRANCH  16  20
ATOM     20  N   UNL     1       3.951   6.294  17.579  0.00  0.00    +0.000 N 
ATOM     21  O   UNL     1       4.145   5.256  16.922  0.00  0.00    +0.000 OA
ATOM     22  O   UNL     1       4.453   7.385  17.319  0.00  0.00    +0.000 OA
ENDBRANCH  16  20
BRANCH  18  23
ATOM     23  N   UNL     1       1.722   3.586  21.080  0.00  0.00    +0.000 N 
ATOM     24  O   UNL     1       0.999   2.808  20.449  0.00  0.00    +0.000 OA
ATOM     25  O   UNL     1       2.215   3.355  22.193  0.00  0.00    +0.000 OA
ENDBRANCH  18  23
ENDBRANCH   2  14
BRANCH   1  26
ATOM     26  C   UNL     1      -0.375   9.516  19.174  0.00  0.00    +0.000 C 
BRANCH  26  27
ATOM     27  C   UNL     1      -0.570  10.667  18.188  0.00  0.00    +0.000 C 
BRANCH  27  31
ATOM     28  C   UNL     1      -4.796  11.666  17.681  0.00  0.00    +0.000 A 
ATOM     29  C   UNL     1      -4.078  11.042  16.660  0.00  0.00    +0.000 A 
ATOM     30  C   UNL     1      -2.713  10.742  16.812  0.00  0.00    +0.000 A 
ATOM     31  C   UNL     1      -2.032  11.067  17.994  0.00  0.00    +0.000 A 
ATOM     32  C   UNL     1      -2.752  11.736  18.997  0.00  0.00    +0.000 A 
ATOM     33  C   UNL     1      -4.123  12.029  18.844  0.00  0.00    +0.000 A 
BRANCH  28  35
ATOM     34  C   UNL     1      -6.468  13.247  17.087  0.00  0.00    +0.000 C 
ATOM     35  O   UNL     1      -6.116  11.906  17.407  0.00  0.00    +0.000 OA
ENDBRANCH  28  35
ENDBRANCH  27  31
ENDBRANCH  26  27
ENDBRANCH   1  26
TORSDOF 7
ENDMDL
MODEL 3
REMARK VINA RESULT:      -8.3      0.240      2.528
REMARK  Name = 
REMARK  8 active torsions:
REMARK  status: ('A' for Active; 'I' for Inactive)
REMARK    1  A    between atoms: C_1  and  O_2
REMARK    2  A    between atoms: O_2  and  C_3
REMARK    3  A    between atoms: C_6  and  C_7
REMARK    4  A    between atoms: C_7  and  C_8
REMARK    5  A    between atoms: C_8  and  N_9
REMARK    6  A    between atoms: C_10  and  C_11
REMARK    7  A    between atoms: C_13  and  N_14
REMARK    8  A    between atoms: C_18  and  N_19
REMARK                            x       y       z     vdW  Elec       q    Type
REMARK                         _______ _______ _______ _____ _____    ______ ____
ROOT
ATOM      1  N   UNL     1       0.774   9.548  20.143  0.00  0.00    +0.000 N 
ATOM      2  C   UNL     1       1.024   8.387  20.905  0.00  0.00    +0.000 A 
ATOM      3  N   UNL     1       0.367   8.488  22.052  0.00  0.00    +0.000 NA
ATOM      4  C   UNL     1       0.070   9.811  22.134  0.00  0.00    +0.000 A 
ATOM      5  N   UNL     1      -0.889  10.408  22.867  0.00  0.00    +0.000 NA
ATOM      6  C   UNL     1      -1.013  11.713  22.558  0.00  0.00    +0.000 A 
ATOM      7  C   UNL     1      -2.266  12.294  22.552  0.00  0.00    +0.000 A 
ATOM      8  C   UNL     1      -2.429  13.630  22.194  0.00  0.00    +0.000 A 
ATOM      9  C   UNL     1      -1.305  14.439  22.112  0.00  0.00    +0.000 A 
ATOM     10  C   UNL     1      -0.051  13.841  22.062  0.00  0.00    +0.000 A 
ATOM     11  C   UNL     1       0.015  12.461  21.952  0.00  0.00    +0.000 A 
ATOM     12  N   UNL     1       0.880  11.861  21.099  0.00  0.00    +0.000 NA
ATOM     13  C   UNL     1       0.732  10.521  21.139  0.00  0.00    +0.000 A 
ENDROOT
BRANCH   2  14
ATOM     14  C   UNL     1       1.682   7.193  20.381  0.00  0.00    +0.000 A 
ATOM     15  C   UNL     1       1.445   5.930  20.937  0.00  0.00    +0.000 A 
ATOM     16  C   UNL     1       2.120   4.805  20.441  0.00  0.00    +0.000 A 
ATOM     17  C   UNL     1       3.004   4.912  19.364  0.00  0.00    +0.000 A 
ATOM     18  C   UNL     1       3.228   6.180  18.805  0.00  0.00    +0.000 A 
ATOM     19  C   UNL     1       2.568   7.316  19.296  0.00  0.00    +0.000 A 
BRANCH  16  20
ATOM     20  N   UNL     1       1.894   3.503  21.065  0.00  0.00    +0.000 N 
ATOM     21  O   UNL     1       2.212   3.372  22.261  0.00  0.00    +0.000 OA
ATOM     22  O   UNL     1       1.429   2.605  20.367  0.00  0.00    +0.000 OA
ENDBRANCH  16  20
BRANCH  18  23
ATOM     23  N   UNL     1       4.175   6.323  17.688  0.00  0.00    +0.000 N 
ATOM     24  O   UNL     1       4.149   7.387  17.063  0.00  0.00    +0.000 OA
ATOM     25  O   UNL     1       4.927   5.370  17.440  0.00  0.00    +0.000 OA
ENDBRANCH  18  23
ENDBRANCH   2  14
BRANCH   1  26
ATOM     26  C   UNL     1      -0.300   9.432  19.117  0.00  0.00    +0.000 C 
BRANCH  26  27
ATOM     27  C   UNL     1      -0.524  10.631  18.196  0.00  0.00    +0.000 C 
BRANCH  27  31
ATOM     28  C   UNL     1      -4.700  11.674  17.432  0.00  0.00    +0.000 A 
ATOM     29  C   UNL     1      -4.095  11.979  18.652  0.00  0.00    +0.000 A 
ATOM     30  C   UNL     1      -2.760  11.623  18.908  0.00  0.00    +0.000 A 
ATOM     31  C   UNL     1      -1.998  10.945  17.946  0.00  0.00    +0.000 A 
ATOM     32  C   UNL     1      -2.630  10.602  16.739  0.00  0.00    +0.000 A 
ATOM     33  C   UNL     1      -3.968  10.967  16.483  0.00  0.00    +0.000 A 
BRANCH  28  35
ATOM     34  C   UNL     1      -6.942  11.467  18.192  0.00  0.00    +0.000 C 
ATOM     35  O   UNL     1      -6.004  12.072  17.309  0.00  0.00    +0.000 OA
ENDBRANCH  28  35
ENDBRANCH  27  31
ENDBRANCH  26  27
ENDBRANCH   1  26
TORSDOF 7
ENDMDL
MODEL 4
REMARK VINA RESULT:      -8.1      0.653      2.692
REMARK  Name = 
REMARK  8 active torsions:
REMARK  status: ('A' for Active; 'I' for Inactive)
REMARK    1  A    between atoms: C_1  and  O_2
REMARK    2  A    between atoms: O_2  and  C_3
REMARK    3  A    between atoms: C_6  and  C_7
REMARK    4  A    between atoms: C_7  and  C_8
REMARK    5  A    between atoms: C_8  and  N_9
REMARK    6  A    between atoms: C_10  and  C_11
REMARK    7  A    between atoms: C_13  and  N_14
REMARK    8  A    between atoms: C_18  and  N_19
REMARK                            x       y       z     vdW  Elec       q    Type
REMARK                         _______ _______ _______ _____ _____    ______ ____
ROOT
ATOM      1  N   UNL     1       0.936   9.698  20.147  0.00  0.00    +0.000 N 
ATOM      2  C   UNL     1       1.052   8.516  20.909  0.00  0.00    +0.000 A 
ATOM      3  N   UNL     1       0.290   8.636  21.988  0.00  0.00    +0.000 NA
ATOM      4  C   UNL     1       0.053   9.972  22.063  0.00  0.00    +0.000 A 
ATOM      5  N   UNL     1      -0.943  10.608  22.709  0.00  0.00    +0.000 NA
ATOM      6  C   UNL     1      -0.970  11.921  22.413  0.00  0.00    +0.000 A 
ATOM      7  C   UNL     1      -2.186  12.566  22.294  0.00  0.00    +0.000 A 
ATOM      8  C   UNL     1      -2.246  13.914  21.946  0.00  0.00    +0.000 A 
ATOM      9  C   UNL     1      -1.080  14.665  21.989  0.00  0.00    +0.000 A 
ATOM     10  C   UNL     1       0.141  14.003  22.052  0.00  0.00    +0.000 A 
ATOM     11  C   UNL     1       0.148  12.624  21.924  0.00  0.00    +0.000 A 
ATOM     12  N   UNL     1       1.063  11.991  21.150  0.00  0.00    +0.000 NA
ATOM     13  C   UNL     1       0.844  10.659  21.151  0.00  0.00    +0.000 A 
ENDROOT
BRANCH   2  14
ATOM     14  C   UNL     1       1.698   7.297  20.431  0.00  0.00    +0.000 A 
ATOM     15  C   UNL     1       1.374   6.045  20.968  0.00  0.00    +0.000 A 
ATOM     16  C   UNL     1       2.038   4.894  20.520  0.00  0.00    +0.000 A 
ATOM     17  C   UNL     1       2.998   4.964  19.506  0.00  0.00    +0.000 A 
ATOM     18  C   UNL     1       3.308   6.222  18.965  0.00  0.00    +0.000 A 
ATOM     19  C   UNL     1       2.660   7.384  19.410  0.00  0.00    +0.000 A 
BRANCH  16  20
ATOM     20  N   UNL     1       1.720   3.603  21.126  0.00  0.00    +0.000 N 
ATOM     21  O   UNL     1       0.910   2.870  20.531  0.00  0.00    +0.000 OA
ATOM     22  O   UNL     1       2.248   3.327  22.201  0.00  0.00    +0.000 OA
ENDBRANCH  16  20
BRANCH  18  23
ATOM     23  N   UNL     1       4.334   6.326  17.915  0.00  0.00    +0.000 N 
ATOM     24  O   UNL     1       5.350   5.637  18.052  0.00  0.00    +0.000 OA
ATOM     25  O   UNL     1       4.121   7.098  16.970  0.00  0.00    +0.000 OA
ENDBRANCH  18  23
ENDBRANCH   2  14
BRANCH   1  26
ATOM     26  C   UNL     1      -0.035   9.651  19.019  0.00  0.00    +0.000 C 
BRANCH  26  27
ATOM     27  C   UNL     1      -0.564  10.984  18.490  0.00  0.00    +0.000 C 
BRANCH  27  31
ATOM     28  C   UNL     1      -4.924  10.995  18.171  0.00  0.00    +0.000 A 
ATOM     29  C   UNL     1      -4.161  10.006  17.550  0.00  0.00    +0.000 A 
ATOM     30  C   UNL     1      -2.758  10.015  17.631  0.00  0.00    +0.000 A 
ATOM     31  C   UNL     1      -2.083  11.023  18.335  0.00  0.00    +0.000 A 
ATOM     32  C   UNL     1      -2.859  12.039  18.918  0.00  0.00    +0.000 A 
ATOM     33  C   UNL     1      -4.267  12.023  18.840  0.00  0.00    +0.000 A 
BRANCH  28  35
ATOM     34  C   UNL     1      -7.053  10.773  19.203  0.00  0.00    +0.000 C 
ATOM     35  O   UNL     1      -6.279  10.875  18.014  0.00  0.00    +0.000 OA
ENDBRANCH  28  35
ENDBRANCH  27  31
ENDBRANCH  26  27
ENDBRANCH   1  26
TORSDOF 7
ENDMDL
MODEL 5
REMARK VINA RESULT:      -8.1      3.879      9.194
REMARK  Name = 
REMARK  8 active torsions:
REMARK  status: ('A' for Active; 'I' for Inactive)
REMARK    1  A    between atoms: C_1  and  O_2
REMARK    2  A    between atoms: O_2  and  C_3
REMARK    3  A    between atoms: C_6  and  C_7
REMARK    4  A    between atoms: C_7  and  C_8
REMARK    5  A    between atoms: C_8  and  N_9
REMARK    6  A    between atoms: C_10  and  C_11
REMARK    7  A    between atoms: C_13  and  N_14
REMARK    8  A    between atoms: C_18  and  N_19
REMARK                            x       y       z     vdW  Elec       q    Type
REMARK                         _______ _______ _______ _____ _____    ______ ____
ROOT
ATOM      1  N   UNL     1       2.250   6.869  18.975  0.00  0.00    +0.000 N 
ATOM      2  C   UNL     1       1.589   7.401  20.102  0.00  0.00    +0.000 A 
ATOM      3  N   UNL     1       1.602   6.489  21.065  0.00  0.00    +0.000 NA
ATOM      4  C   UNL     1       1.898   5.337  20.409  0.00  0.00    +0.000 A 
ATOM      5  N   UNL     1       2.407   4.197  20.914  0.00  0.00    +0.000 NA
ATOM      6  C   UNL     1       2.744   3.329  19.941  0.00  0.00    +0.000 A 
ATOM      7  C   UNL     1       3.870   2.543  20.091  0.00  0.00    +0.000 A 
ATOM      8  C   UNL     1       4.268   1.668  19.082  0.00  0.00    +0.000 A 
ATOM      9  C   UNL     1       3.379   1.392  18.053  0.00  0.00    +0.000 A 
ATOM     10  C   UNL     1       2.279   2.223  17.877  0.00  0.00    +0.000 A 
ATOM     11  C   UNL     1       2.194   3.372  18.645  0.00  0.00    +0.000 A 
ATOM     12  N   UNL     1       1.825   4.559  18.103  0.00  0.00    +0.000 NA
ATOM     13  C   UNL     1       1.855   5.535  19.034  0.00  0.00    +0.000 A 
ENDROOT
BRANCH   2  14
ATOM     14  C   UNL     1       1.204   8.804  20.236  0.00  0.00    +0.000 A 
ATOM     15  C   UNL     1       1.532   9.744  19.252  0.00  0.00    +0.000 A 
ATOM     16  C   UNL     1       1.185  11.092  19.425  0.00  0.00    +0.000 A 
ATOM     17  C   UNL     1       0.474  11.515  20.551  0.00  0.00    +0.000 A 
ATOM     18  C   UNL     1       0.139  10.564  21.527  0.00  0.00    +0.000 A 
ATOM     19  C   UNL     1       0.488   9.214  21.374  0.00  0.00    +0.000 A 
BRANCH  16  20
ATOM     20  N   UNL     1       1.578  12.066  18.409  0.00  0.00    +0.000 N 
ATOM     21  O   UNL     1       2.660  11.886  17.823  0.00  0.00    +0.000 OA
ATOM     22  O   UNL     1       0.830  13.021  18.210  0.00  0.00    +0.000 OA
ENDBRANCH  16  20
BRANCH  18  23
ATOM     23  N   UNL     1      -0.586  10.989  22.735  0.00  0.00    +0.000 N 
ATOM     24  O   UNL     1      -1.162  10.109  23.383  0.00  0.00    +0.000 OA
ATOM     25  O   UNL     1      -0.581  12.195  23.020  0.00  0.00    +0.000 OA
ENDBRANCH  18  23
ENDBRANCH   2  14
BRANCH   1  26
ATOM     26  C   UNL     1       3.680   7.255  18.819  0.00  0.00    +0.000 C 
BRANCH  26  27
ATOM     27  C   UNL     1       4.732   6.177  19.085  0.00  0.00    +0.000 C 
BRANCH  27  31
ATOM     28  C   UNL     1       6.655   4.745  15.430  0.00  0.00    +0.000 A 
ATOM     29  C   UNL     1       5.425   5.403  15.384  0.00  0.00    +0.000 A 
ATOM     30  C   UNL     1       4.794   5.843  16.560  0.00  0.00    +0.000 A 
ATOM     31  C   UNL     1       5.380   5.627  17.816  0.00  0.00    +0.000 A 
ATOM     32  C   UNL     1       6.595   4.924  17.854  0.00  0.00    +0.000 A 
ATOM     33  C   UNL     1       7.229   4.490  16.672  0.00  0.00    +0.000 A 
BRANCH  28  35
ATOM     34  C   UNL     1       6.237   3.827  13.278  0.00  0.00    +0.000 C 
ATOM     35  O   UNL     1       7.162   4.365  14.216  0.00  0.00    +0.000 OA
ENDBRANCH  28  35
ENDBRANCH  27  31
ENDBRANCH  26  27
ENDBRANCH   1  26
TORSDOF 7
ENDMDL
MODEL 6
REMARK VINA RESULT:      -8.0      1.013      1.635
REMARK  Name = 
REMARK  8 active torsions:
REMARK  status: ('A' for Active; 'I' for Inactive)
REMARK    1  A    between atoms: C_1  and  O_2
REMARK    2  A    between atoms: O_2  and  C_3
REMARK    3  A    between atoms: C_6  and  C_7
REMARK    4  A    between atoms: C_7  and  C_8
REMARK    5  A    between atoms: C_8  and  N_9
REMARK    6  A    between atoms: C_10  and  C_11
REMARK    7  A    between atoms: C_13  and  N_14
REMARK    8  A    between atoms: C_18  and  N_19
REMARK                            x       y       z     vdW  Elec       q    Type
REMARK                         _______ _______ _______ _____ _____    ______ ____
ROOT
ATOM      1  N   UNL     1       0.677   9.597  20.190  0.00  0.00    +0.000 N 
ATOM      2  C   UNL     1       1.076   8.486  20.963  0.00  0.00    +0.000 A 
ATOM      3  N   UNL     1       0.582   8.627  22.186  0.00  0.00    +0.000 NA
ATOM      4  C   UNL     1       0.249   9.943  22.245  0.00  0.00    +0.000 A 
ATOM      5  N   UNL     1      -0.621  10.547  23.078  0.00  0.00    +0.000 NA
ATOM      6  C   UNL     1      -0.837  11.829  22.727  0.00  0.00    +0.000 A 
ATOM      7  C   UNL     1      -2.100  12.370  22.871  0.00  0.00    +0.000 A 
ATOM      8  C   UNL     1      -2.364  13.679  22.476  0.00  0.00    +0.000 A 
ATOM      9  C   UNL     1      -1.295  14.518  22.197  0.00  0.00    +0.000 A 
ATOM     10  C   UNL     1      -0.038  13.958  21.999  0.00  0.00    +0.000 A 
ATOM     11  C   UNL     1       0.065  12.577  21.947  0.00  0.00    +0.000 A 
ATOM     12  N   UNL     1       0.826  11.960  21.010  0.00  0.00    +0.000 NA
ATOM     13  C   UNL     1       0.736  10.620  21.134  0.00  0.00    +0.000 A 
ENDROOT
BRANCH   2  14
ATOM     14  C   UNL     1       1.700   7.288  20.410  0.00  0.00    +0.000 A 
ATOM     15  C   UNL     1       2.535   7.356  19.287  0.00  0.00    +0.000 A 
ATOM     16  C   UNL     1       3.089   6.184  18.751  0.00  0.00    +0.000 A 
ATOM     17  C   UNL     1       2.858   4.941  19.345  0.00  0.00    +0.000 A 
ATOM     18  C   UNL     1       2.030   4.883  20.476  0.00  0.00    +0.000 A 
ATOM     19  C   UNL     1       1.459   6.044  21.019  0.00  0.00    +0.000 A 
BRANCH  16  20
ATOM     20  N   UNL     1       3.919   6.271  17.552  0.00  0.00    +0.000 N 
ATOM     21  O   UNL     1       4.402   5.215  17.106  0.00  0.00    +0.000 OA
ATOM     22  O   UNL     1       4.116   7.384  17.068  0.00  0.00    +0.000 OA
ENDBRANCH  16  20
BRANCH  18  23
ATOM     23  N   UNL     1       1.750   3.581  21.104  0.00  0.00    +0.000 N 
ATOM     24  O   UNL     1       1.028   2.799  20.477  0.00  0.00    +0.000 OA
ATOM     25  O   UNL     1       2.245   3.356  22.217  0.00  0.00    +0.000 OA
ENDBRANCH  18  23
ENDBRANCH   2  14
BRANCH   1  26
ATOM     26  C   UNL     1      -0.525   9.393  19.334  0.00  0.00    +0.000 C 
BRANCH  26  27
ATOM     27  C   UNL     1      -1.453  10.590  19.128  0.00  0.00    +0.000 C 
BRANCH  27  31
ATOM     28  C   UNL     1      -3.519  10.629  15.276  0.00  0.00    +0.000 A 
ATOM     29  C   UNL     1      -3.944  11.442  16.327  0.00  0.00    +0.000 A 
ATOM     30  C   UNL     1      -3.296  11.413  17.574  0.00  0.00    +0.000 A 
ATOM     31  C   UNL     1      -2.206  10.561  17.799  0.00  0.00    +0.000 A 
ATOM     32  C   UNL     1      -1.814   9.714  16.749  0.00  0.00    +0.000 A 
ATOM     33  C   UNL     1      -2.462   9.751  15.497  0.00  0.00    +0.000 A 
BRANCH  28  35
ATOM     34  C   UNL     1      -3.925   9.829  13.075  0.00  0.00    +0.000 C 
ATOM     35  O   UNL     1      -4.235  10.749  14.115  0.00  0.00    +0.000 OA
ENDBRANCH  28  35
ENDBRANCH  27  31
ENDBRANCH  26  27
ENDBRANCH   1  26
TORSDOF 7
ENDMDL
MODEL 7
REMARK VINA RESULT:      -8.0      1.019      2.976
REMARK  Name = 
REMARK  8 active torsions:
REMARK  status: ('A' for Active; 'I' for Inactive)
REMARK    1  A    between atoms: C_1  and  O_2
REMARK    2  A    between atoms: O_2  and  C_3
REMARK    3  A    between atoms: C_6  and  C_7
REMARK    4  A    between atoms: C_7  and  C_8
REMARK    5  A    between atoms: C_8  and  N_9
REMARK    6  A    between atoms: C_10  and  C_11
REMARK    7  A    between atoms: C_13  and  N_14
REMARK    8  A    between atoms: C_18  and  N_19
REMARK                            x       y       z     vdW  Elec       q    Type
REMARK                         _______ _______ _______ _____ _____    ______ ____
ROOT
ATOM      1  N   UNL     1       0.924   9.747  20.076  0.00  0.00    +0.000 N 
ATOM      2  C   UNL     1       1.017   8.569  20.847  0.00  0.00    +0.000 A 
ATOM      3  N   UNL     1       0.250   8.708  21.920  0.00  0.00    +0.000 NA
ATOM      4  C   UNL     1       0.033  10.048  21.985  0.00  0.00    +0.000 A 
ATOM      5  N   UNL     1      -0.957  10.703  22.621  0.00  0.00    +0.000 NA
ATOM      6  C   UNL     1      -0.962  12.015  22.315  0.00  0.00    +0.000 A 
ATOM      7  C   UNL     1      -2.167  12.678  22.184  0.00  0.00    +0.000 A 
ATOM      8  C   UNL     1      -2.205  14.023  21.825  0.00  0.00    +0.000 A 
ATOM      9  C   UNL     1      -1.028  14.757  21.871  0.00  0.00    +0.000 A 
ATOM     10  C   UNL     1       0.183  14.077  21.946  0.00  0.00    +0.000 A 
ATOM     11  C   UNL     1       0.170  12.697  21.828  0.00  0.00    +0.000 A 
ATOM     12  N   UNL     1       1.079  12.044  21.064  0.00  0.00    +0.000 NA
ATOM     13  C   UNL     1       0.840  10.716  21.073  0.00  0.00    +0.000 A 
ENDROOT
BRANCH   2  14
ATOM     14  C   UNL     1       1.647   7.336  20.382  0.00  0.00    +0.000 A 
ATOM     15  C   UNL     1       1.331   6.098  20.955  0.00  0.00    +0.000 A 
ATOM     16  C   UNL     1       1.981   4.935  20.517  0.00  0.00    +0.000 A 
ATOM     17  C   UNL     1       2.916   4.978  19.480  0.00  0.00    +0.000 A 
ATOM     18  C   UNL     1       3.218   6.222  18.903  0.00  0.00    +0.000 A 
ATOM     19  C   UNL     1       2.585   7.396  19.337  0.00  0.00    +0.000 A 
BRANCH  16  20
ATOM     20  N   UNL     1       1.672   3.659  21.159  0.00  0.00    +0.000 N 
ATOM     21  O   UNL     1       2.207   3.420  22.257  0.00  0.00    +0.000 OA
ATOM     22  O   UNL     1       0.923   2.884  20.568  0.00  0.00    +0.000 OA
ENDBRANCH  16  20
BRANCH  18  23
ATOM     23  N   UNL     1       4.220   6.298  17.827  0.00  0.00    +0.000 N 
ATOM     24  O   UNL     1       4.993   5.342  17.711  0.00  0.00    +0.000 OA
ATOM     25  O   UNL     1       4.230   7.312  17.116  0.00  0.00    +0.000 OA
ENDBRANCH  18  23
ENDBRANCH   2  14
BRANCH   1  26
ATOM     26  C   UNL     1      -0.042   9.707  18.943  0.00  0.00    +0.000 C 
BRANCH  26  27
ATOM     27  C   UNL     1      -1.252  10.638  19.016  0.00  0.00    +0.000 C 
BRANCH  27  31
ATOM     28  C   UNL     1      -3.769  10.497  15.445  0.00  0.00    +0.000 A 
ATOM     29  C   UNL     1      -2.583   9.766  15.517  0.00  0.00    +0.000 A 
ATOM     30  C   UNL     1      -1.760   9.829  16.654  0.00  0.00    +0.000 A 
ATOM     31  C   UNL     1      -2.105  10.634  17.749  0.00  0.00    +0.000 A 
ATOM     32  C   UNL     1      -3.278  11.401  17.648  0.00  0.00    +0.000 A 
ATOM     33  C   UNL     1      -4.105  11.330  16.508  0.00  0.00    +0.000 A 
BRANCH  28  35
ATOM     34  C   UNL     1      -3.777   9.804  13.172  0.00  0.00    +0.000 C 
ATOM     35  O   UNL     1      -4.478  10.351  14.282  0.00  0.00    +0.000 OA
ENDBRANCH  28  35
ENDBRANCH  27  31
ENDBRANCH  26  27
ENDBRANCH   1  26
TORSDOF 7
ENDMDL
MODEL 8
REMARK VINA RESULT:      -7.9      3.894      9.420
REMARK  Name = 
REMARK  8 active torsions:
REMARK  status: ('A' for Active; 'I' for Inactive)
REMARK    1  A    between atoms: C_1  and  O_2
REMARK    2  A    between atoms: O_2  and  C_3
REMARK    3  A    between atoms: C_6  and  C_7
REMARK    4  A    between atoms: C_7  and  C_8
REMARK    5  A    between atoms: C_8  and  N_9
REMARK    6  A    between atoms: C_10  and  C_11
REMARK    7  A    between atoms: C_13  and  N_14
REMARK    8  A    between atoms: C_18  and  N_19
REMARK                            x       y       z     vdW  Elec       q    Type
REMARK                         _______ _______ _______ _____ _____    ______ ____
ROOT
ATOM      1  N   UNL     1       2.292   6.854  19.056  0.00  0.00    +0.000 N 
ATOM      2  C   UNL     1       1.618   7.368  20.184  0.00  0.00    +0.000 A 
ATOM      3  N   UNL     1       1.608   6.436  21.127  0.00  0.00    +0.000 NA
ATOM      4  C   UNL     1       1.904   5.295  20.451  0.00  0.00    +0.000 A 
ATOM      5  N   UNL     1       2.393   4.139  20.938  0.00  0.00    +0.000 NA
ATOM      6  C   UNL     1       2.738   3.289  19.951  0.00  0.00    +0.000 A 
ATOM      7  C   UNL     1       3.854   2.490  20.101  0.00  0.00    +0.000 A 
ATOM      8  C   UNL     1       4.259   1.633  19.080  0.00  0.00    +0.000 A 
ATOM      9  C   UNL     1       3.384   1.388  18.032  0.00  0.00    +0.000 A 
ATOM     10  C   UNL     1       2.295   2.233  17.857  0.00  0.00    +0.000 A 
ATOM     11  C   UNL     1       2.208   3.366  18.649  0.00  0.00    +0.000 A 
ATOM     12  N   UNL     1       1.859   4.568  18.128  0.00  0.00    +0.000 NA
ATOM     13  C   UNL     1       1.884   5.523  19.080  0.00  0.00    +0.000 A 
ENDROOT
BRANCH   2  14
ATOM     14  C   UNL     1       1.244   8.771  20.343  0.00  0.00    +0.000 A 
ATOM     15  C   UNL     1       0.537   9.211  21.469  0.00  0.00    +0.000 A 
ATOM     16  C   UNL     1       0.155  10.556  21.578  0.00  0.00    +0.000 A 
ATOM     17  C   UNL     1       0.505  11.486  20.596  0.00  0.00    +0.000 A 
ATOM     18  C   UNL     1       1.223  11.039  19.476  0.00  0.00    +0.000 A 
ATOM     19  C   UNL     1       1.604   9.695  19.347  0.00  0.00    +0.000 A 
BRANCH  16  20
ATOM     20  N   UNL     1      -0.622  10.986  22.738  0.00  0.00    +0.000 N 
ATOM     21  O   UNL     1      -0.609  12.196  23.027  0.00  0.00    +0.000 OA
ATOM     22  O   UNL     1      -1.223  10.125  23.379  0.00  0.00    +0.000 OA
ENDBRANCH  16  20
BRANCH  18  23
ATOM     23  N   UNL     1       1.580  11.994  18.415  0.00  0.00    +0.000 N 
ATOM     24  O   UNL     1       2.600  11.753  17.763  0.00  0.00    +0.000 OA
ATOM     25  O   UNL     1       0.845  12.978  18.249  0.00  0.00    +0.000 OA
ENDBRANCH  18  23
ENDBRANCH   2  14
BRANCH   1  26
ATOM     26  C   UNL     1       3.728   7.229  18.931  0.00  0.00    +0.000 C 
BRANCH  26  27
ATOM     27  C   UNL     1       4.757   6.101  18.994  0.00  0.00    +0.000 C 
BRANCH  27  31
ATOM     28  C   UNL     1       6.331   4.936  15.085  0.00  0.00    +0.000 A 
ATOM     29  C   UNL     1       5.465   6.023  15.216  0.00  0.00    +0.000 A 
ATOM     30  C   UNL     1       4.939   6.384  16.468  0.00  0.00    +0.000 A 
ATOM     31  C   UNL     1       5.265   5.658  17.623  0.00  0.00    +0.000 A 
ATOM     32  C   UNL     1       6.100   4.539  17.473  0.00  0.00    +0.000 A 
ATOM     33  C   UNL     1       6.632   4.183  16.216  0.00  0.00    +0.000 A 
BRANCH  28  35
ATOM     34  C   UNL     1       6.133   3.623  13.114  0.00  0.00    +0.000 C 
ATOM     35  O   UNL     1       6.770   4.687  13.812  0.00  0.00    +0.000 OA
ENDBRANCH  28  35
ENDBRANCH  27  31
ENDBRANCH  26  27
ENDBRANCH   1  26
TORSDOF 7
ENDMDL
MODEL 9
REMARK VINA RESULT:      -7.9      1.459      1.759
REMARK  Name = 
REMARK  8 active torsions:
REMARK  status: ('A' for Active; 'I' for Inactive)
REMARK    1  A    between atoms: C_1  and  O_2
REMARK    2  A    between atoms: O_2  and  C_3
REMARK    3  A    between atoms: C_6  and  C_7
REMARK    4  A    between atoms: C_7  and  C_8
REMARK    5  A    between atoms: C_8  and  N_9
REMARK    6  A    between atoms: C_10  and  C_11
REMARK    7  A    between atoms: C_13  and  N_14
REMARK    8  A    between atoms: C_18  and  N_19
REMARK                            x       y       z     vdW  Elec       q    Type
REMARK                         _______ _______ _______ _____ _____    ______ ____
ROOT
ATOM      1  N   UNL     1       1.112   9.353  19.204  0.00  0.00    +0.000 N 
ATOM      2  C   UNL     1       1.783   8.233  19.740  0.00  0.00    +0.000 A 
ATOM      3  N   UNL     1       1.496   8.153  21.032  0.00  0.00    +0.000 NA
ATOM      4  C   UNL     1       1.009   9.386  21.328  0.00  0.00    +0.000 A 
ATOM      5  N   UNL     1       0.227   9.747  22.363  0.00  0.00    +0.000 NA
ATOM      6  C   UNL     1      -0.213  11.014  22.236  0.00  0.00    +0.000 A 
ATOM      7  C   UNL     1      -1.491  11.334  22.651  0.00  0.00    +0.000 A 
ATOM      8  C   UNL     1      -1.990  12.625  22.491  0.00  0.00    +0.000 A 
ATOM      9  C   UNL     1      -1.105  13.644  22.170  0.00  0.00    +0.000 A 
ATOM     10  C   UNL     1       0.160  13.310  21.700  0.00  0.00    +0.000 A 
ATOM     11  C   UNL     1       0.433  11.977  21.438  0.00  0.00    +0.000 A 
ATOM     12  N   UNL     1       1.091  11.598  20.315  0.00  0.00    +0.000 NA
ATOM     13  C   UNL     1       1.201  10.255  20.261  0.00  0.00    +0.000 A 
ENDROOT
BRANCH   2  14
ATOM     14  C   UNL     1       2.451   7.218  18.931  0.00  0.00    +0.000 A 
ATOM     15  C   UNL     1       3.548   7.540  18.122  0.00  0.00    +0.000 A 
ATOM     16  C   UNL     1       4.147   6.554  17.324  0.00  0.00    +0.000 A 
ATOM     17  C   UNL     1       3.695   5.232  17.351  0.00  0.00    +0.000 A 
ATOM     18  C   UNL     1       2.602   4.915  18.173  0.00  0.00    +0.000 A 
ATOM     19  C   UNL     1       1.985   5.892  18.969  0.00  0.00    +0.000 A 
BRANCH  16  20
ATOM     20  N   UNL     1       5.260   6.920  16.452  0.00  0.00    +0.000 N 
ATOM     21  O   UNL     1       6.306   7.328  16.989  0.00  0.00    +0.000 OA
ATOM     22  O   UNL     1       5.093   6.830  15.238  0.00  0.00    +0.000 OA
ENDBRANCH  16  20
BRANCH  18  23
ATOM     23  N   UNL     1       2.090   3.536  18.199  0.00  0.00    +0.000 N 
ATOM     24  O   UNL     1       2.196   2.878  17.160  0.00  0.00    +0.000 OA
ATOM     25  O   UNL     1       1.580   3.126  19.252  0.00  0.00    +0.000 OA
ENDBRANCH  18  23
ENDBRANCH   2  14
BRANCH   1  26
ATOM     26  C   UNL     1      -0.184   9.070  18.525  0.00  0.00    +0.000 C 
BRANCH  26  27
ATOM     27  C   UNL     1      -0.742  10.150  17.598  0.00  0.00    +0.000 C 
BRANCH  27  31
ATOM     28  C   UNL     1      -4.695  11.692  18.647  0.00  0.00    +0.000 A 
ATOM     29  C   UNL     1      -3.545  12.184  19.264  0.00  0.00    +0.000 A 
ATOM     30  C   UNL     1      -2.275  11.673  18.946  0.00  0.00    +0.000 A 
ATOM     31  C   UNL     1      -2.129  10.647  18.001  0.00  0.00    +0.000 A 
ATOM     32  C   UNL     1      -3.296  10.127  17.419  0.00  0.00    +0.000 A 
ATOM     33  C   UNL     1      -4.568  10.648  17.735  0.00  0.00    +0.000 A 
BRANCH  28  35
ATOM     34  C   UNL     1      -6.278  12.027  20.388  0.00  0.00    +0.000 C 
ATOM     35  O   UNL     1      -5.870  12.272  19.047  0.00  0.00    +0.000 OA
ENDBRANCH  28  35
ENDBRANCH  27  31
ENDBRANCH  26  27
ENDBRANCH   1  26
TORSDOF 7
ENDMDL
