MODEL 1
REMARK VINA RESULT:      -7.1      0.000      0.000
REMARK  Name = 
REMARK  9 active torsions:
REMARK  status: ('A' for Active; 'I' for Inactive)
REMARK    1  A    between atoms: C_1  and  C_2
REMARK    2  A    between atoms: C_2  and  C_3
REMARK    3  A    between atoms: C_2  and  C_4
REMARK    4  A    between atoms: C_6  and  C_7
REMARK    5  A    between atoms: C_7  and  N_8
REMARK    6  A    between atoms: N_8  and  C_9
REMARK    7  A    between atoms: N_8  and  C_10
REMARK    8  A    between atoms: C_10  and  C_11
REMARK    9  A    between atoms: C_14  and  O_15
REMARK                            x       y       z     vdW  Elec       q    Type
REMARK                         _______ _______ _______ _____ _____    ______ ____
ROOT
ATOM      1  N   UNL     1       2.224   4.212  19.648  0.00  0.00    +0.000 NA
ATOM      2  C   UNL     1       1.060   3.535  20.239  0.00  0.00    +0.000 C 
ENDROOT
BRANCH   1   3
ATOM      3  C   UNL     1       3.393   3.302  19.612  0.00  0.00    +0.000 C 
BRANCH   3   6
ATOM      4  C   UNL     1       6.280   4.706  17.949  0.00  0.00    +0.000 A 
ATOM      5  N   UNL     1       5.555   4.351  18.988  0.00  0.00    +0.000 NA
ATOM      6  C   UNL     1       4.399   3.704  18.571  0.00  0.00    +0.000 A 
ATOM      7  C   UNL     1       4.290   3.548  17.201  0.00  0.00    +0.000 A 
ATOM      8  S   UNL     1       5.655   4.226  16.420  0.00  0.00    +0.000 S 
BRANCH   4  10
ATOM      9  C   UNL     1       7.365   6.860  17.340  0.00  0.00    +0.000 C 
ATOM     10  C   UNL     1       7.549   5.512  18.042  0.00  0.00    +0.000 C 
ATOM     11  C   UNL     1       7.956   5.719  19.500  0.00  0.00    +0.000 C 
ENDBRANCH   4  10
ENDBRANCH   3   6
ENDBRANCH   1   3
BRANCH   1  12
ATOM     12  C   UNL     1       2.535   5.413  20.450  0.00  0.00    +0.000 C 
BRANCH  12  13
ATOM     13  C   UNL     1       2.393   6.705  19.671  0.00  0.00    +0.000 A 
ATOM     14  C   UNL     1       2.938   6.826  18.383  0.00  0.00    +0.000 A 
ATOM     15  C   UNL     1       2.744   7.989  17.635  0.00  0.00    +0.000 A 
ATOM     16  C   UNL     1       2.009   9.045  18.175  0.00  0.00    +0.000 A 
ATOM     17  C   UNL     1       1.487   8.951  19.467  0.00  0.00    +0.000 A 
ATOM     18 CL   UNL     1       0.580  10.239  20.169  0.00  0.00    +0.000 Cl
ATOM     19  C   UNL     1       1.679   7.786  20.212  0.00  0.00    +0.000 A 
BRANCH  16  20
ATOM     20  O   UNL     1       1.796  10.171  17.428  0.00  0.00    +0.000 OA
ATOM     21  H   UNL     1       2.357  10.145  16.637  0.00  0.00    +0.000 HD
ENDBRANCH  16  20
ENDBRANCH  12  13
ENDBRANCH   1  12
TORSDOF 6
ENDMDL
MODEL 2
REMARK VINA RESULT:      -6.3      1.471      1.804
REMARK  Name = 
REMARK  9 active torsions:
REMARK  status: ('A' for Active; 'I' for Inactive)
REMARK    1  A    between atoms: C_1  and  C_2
REMARK    2  A    between atoms: C_2  and  C_3
REMARK    3  A    between atoms: C_2  and  C_4
REMARK    4  A    between atoms: C_6  and  C_7
REMARK    5  A    between atoms: C_7  and  N_8
REMARK    6  A    between atoms: N_8  and  C_9
REMARK    7  A    between atoms: N_8  and  C_10
REMARK    8  A    between atoms: C_10  and  C_11
REMARK    9  A    between atoms: C_14  and  O_15
REMARK                            x       y       z     vdW  Elec       q    Type
REMARK                         _______ _______ _______ _____ _____    ______ ____
ROOT
ATOM      1  N   UNL     1       2.016   4.520  19.563  0.00  0.00    +0.000 NA
ATOM      2  C   UNL     1       0.875   3.964  20.306  0.00  0.00    +0.000 C 
ENDROOT
BRANCH   1   3
ATOM      3  C   UNL     1       3.060   3.488  19.363  0.00  0.00    +0.000 C 
BRANCH   3   6
ATOM      4  C   UNL     1       5.277   4.754  16.802  0.00  0.00    +0.000 A 
ATOM      5  N   UNL     1       4.116   4.392  17.305  0.00  0.00    +0.000 NA
ATOM      6  C   UNL     1       4.261   4.022  18.636  0.00  0.00    +0.000 A 
ATOM      7  C   UNL     1       5.548   4.149  19.130  0.00  0.00    +0.000 A 
ATOM      8  S   UNL     1       6.593   4.737  17.908  0.00  0.00    +0.000 S 
BRANCH   4  10
ATOM      9  C   UNL     1       5.238   6.617  15.156  0.00  0.00    +0.000 C 
ATOM     10  C   UNL     1       5.491   5.121  15.357  0.00  0.00    +0.000 C 
ATOM     11  C   UNL     1       6.903   4.752  14.906  0.00  0.00    +0.000 C 
ENDBRANCH   4  10
ENDBRANCH   3   6
ENDBRANCH   1   3
BRANCH   1  12
ATOM     12  C   UNL     1       2.567   5.663  20.321  0.00  0.00    +0.000 C 
BRANCH  12  13
ATOM     13  C   UNL     1       2.213   7.006  19.716  0.00  0.00    +0.000 A 
ATOM     14  C   UNL     1       2.530   7.294  18.380  0.00  0.00    +0.000 A 
ATOM     15  C   UNL     1       2.139   8.503  17.800  0.00  0.00    +0.000 A 
ATOM     16  C   UNL     1       1.433   9.438  18.558  0.00  0.00    +0.000 A 
ATOM     17  C   UNL     1       1.137   9.178  19.898  0.00  0.00    +0.000 A 
ATOM     18 CL   UNL     1       0.272  10.313  20.866  0.00  0.00    +0.000 Cl
ATOM     19  C   UNL     1       1.526   7.968  20.475  0.00  0.00    +0.000 A 
BRANCH  16  20
ATOM     20  O   UNL     1       1.025  10.608  17.979  0.00  0.00    +0.000 OA
ATOM     21  H   UNL     1       1.798  11.166  17.800  0.00  0.00    +0.000 HD
ENDBRANCH  16  20
ENDBRANCH  12  13
ENDBRANCH   1  12
TORSDOF 6
ENDMDL
MODEL 3
REMARK VINA RESULT:      -6.3      1.186      1.309
REMARK  Name = 
REMARK  9 active torsions:
REMARK  status: ('A' for Active; 'I' for Inactive)
REMARK    1  A    between atoms: C_1  and  C_2
REMARK    2  A    between atoms: C_2  and  C_3
REMARK    3  A    between atoms: C_2  and  C_4
REMARK    4  A    between atoms: C_6  and  C_7
REMARK    5  A    between atoms: C_7  and  N_8
REMARK    6  A    between atoms: N_8  and  C_9
REMARK    7  A    between atoms: N_8  and  C_10
REMARK    8  A    between atoms: C_10  and  C_11
REMARK    9  A    between atoms: C_14  and  O_15
REMARK                            x       y       z     vdW  Elec       q    Type
REMARK                         _______ _______ _______ _____ _____    ______ ____
ROOT
ATOM      1  N   UNL     1       2.565   4.418  18.113  0.00  0.00    +0.000 NA
ATOM      2  C   UNL     1       1.266   3.755  18.299  0.00  0.00    +0.000 C 
ENDROOT
BRANCH   1   3
ATOM      3  C   UNL     1       3.620   3.422  17.813  0.00  0.00    +0.000 C 
BRANCH   3   6
ATOM      4  C   UNL     1       6.691   5.262  17.304  0.00  0.00    +0.000 A 
ATOM      5  N   UNL     1       5.737   4.703  18.019  0.00  0.00    +0.000 NA
ATOM      6  C   UNL     1       4.836   4.046  17.190  0.00  0.00    +0.000 A 
ATOM      7  C   UNL     1       5.155   4.093  15.844  0.00  0.00    +0.000 A 
ATOM      8  S   UNL     1       6.603   4.976  15.611  0.00  0.00    +0.000 S 
BRANCH   4  10
ATOM      9  C   UNL     1       7.458   7.605  17.623  0.00  0.00    +0.000 C 
ATOM     10  C   UNL     1       7.777   6.131  17.882  0.00  0.00    +0.000 C 
ATOM     11  C   UNL     1       7.940   5.874  19.379  0.00  0.00    +0.000 C 
ENDBRANCH   4  10
ENDBRANCH   3   6
ENDBRANCH   1   3
BRANCH   1  12
ATOM     12  C   UNL     1       2.900   5.162  19.344  0.00  0.00    +0.000 C 
BRANCH  12  13
ATOM     13  C   UNL     1       2.428   6.602  19.319  0.00  0.00    +0.000 A 
ATOM     14  C   UNL     1       2.543   7.371  18.151  0.00  0.00    +0.000 A 
ATOM     15  C   UNL     1       2.041   8.674  18.105  0.00  0.00    +0.000 A 
ATOM     16  C   UNL     1       1.427   9.219  19.232  0.00  0.00    +0.000 A 
ATOM     17  C   UNL     1       1.333   8.477  20.412  0.00  0.00    +0.000 A 
ATOM     18 CL   UNL     1       0.587   9.122  21.826  0.00  0.00    +0.000 Cl
ATOM     19  C   UNL     1       1.833   7.174  20.455  0.00  0.00    +0.000 A 
BRANCH  16  20
ATOM     20  O   UNL     1       0.909  10.484  19.174  0.00  0.00    +0.000 OA
ATOM     21  H   UNL     1       0.068  10.510  19.656  0.00  0.00    +0.000 HD
ENDBRANCH  16  20
ENDBRANCH  12  13
ENDBRANCH   1  12
TORSDOF 6
ENDMDL
MODEL 4
REMARK VINA RESULT:      -6.3      3.969      6.606
REMARK  Name = 
REMARK  9 active torsions:
REMARK  status: ('A' for Active; 'I' for Inactive)
REMARK    1  A    between atoms: C_1  and  C_2
REMARK    2  A    between atoms: C_2  and  C_3
REMARK    3  A    between atoms: C_2  and  C_4
REMARK    4  A    between atoms: C_6  and  C_7
REMARK    5  A    between atoms: C_7  and  N_8
REMARK    6  A    between atoms: N_8  and  C_9
REMARK    7  A    between atoms: N_8  and  C_10
REMARK    8  A    between atoms: C_10  and  C_11
REMARK    9  A    between atoms: C_14  and  O_15
REMARK                            x       y       z     vdW  Elec       q    Type
REMARK                         _______ _______ _______ _____ _____    ______ ____
ROOT
ATOM      1  N   UNL     1       6.840   5.882  18.134  0.00  0.00    +0.000 NA
ATOM      2  C   UNL     1       7.857   6.896  18.452  0.00  0.00    +0.000 C 
ENDROOT
BRANCH   1   3
ATOM      3  C   UNL     1       6.128   5.455  19.361  0.00  0.00    +0.000 C 
BRANCH   3   6
ATOM      4  C   UNL     1       2.890   3.844  19.344  0.00  0.00    +0.000 A 
ATOM      5  N   UNL     1       4.129   4.034  19.748  0.00  0.00    +0.000 NA
ATOM      6  C   UNL     1       4.684   5.131  19.101  0.00  0.00    +0.000 A 
ATOM      7  C   UNL     1       3.826   5.779  18.231  0.00  0.00    +0.000 A 
ATOM      8  S   UNL     1       2.299   5.003  18.221  0.00  0.00    +0.000 S 
BRANCH   4  10
ATOM      9  C   UNL     1       1.739   2.780  21.275  0.00  0.00    +0.000 C 
ATOM     10  C   UNL     1       2.032   2.684  19.775  0.00  0.00    +0.000 C 
ATOM     11  C   UNL     1       0.731   2.644  18.977  0.00  0.00    +0.000 C 
ENDBRANCH   4  10
ENDBRANCH   3   6
ENDBRANCH   1   3
BRANCH   1  12
ATOM     12  C   UNL     1       7.503   4.725  17.498  0.00  0.00    +0.000 C 
BRANCH  12  13
ATOM     13  C   UNL     1       6.967   4.415  16.115  0.00  0.00    +0.000 A 
ATOM     14  C   UNL     1       5.811   3.635  15.955  0.00  0.00    +0.000 A 
ATOM     15  C   UNL     1       5.275   3.411  14.685  0.00  0.00    +0.000 A 
ATOM     16  C   UNL     1       5.897   3.959  13.564  0.00  0.00    +0.000 A 
ATOM     17  C   UNL     1       7.066   4.712  13.705  0.00  0.00    +0.000 A 
ATOM     18 CL   UNL     1       7.866   5.399  12.340  0.00  0.00    +0.000 Cl
ATOM     19  C   UNL     1       7.599   4.938  14.975  0.00  0.00    +0.000 A 
BRANCH  16  20
ATOM     20  O   UNL     1       5.353   3.763  12.324  0.00  0.00    +0.000 OA
ATOM     21  H   UNL     1       4.411   3.996  12.346  0.00  0.00    +0.000 HD
ENDBRANCH  16  20
ENDBRANCH  12  13
ENDBRANCH   1  12
TORSDOF 6
ENDMDL
MODEL 5
REMARK VINA RESULT:      -6.2      4.706      7.712
REMARK  Name = 
REMARK  9 active torsions:
REMARK  status: ('A' for Active; 'I' for Inactive)
REMARK    1  A    between atoms: C_1  and  C_2
REMARK    2  A    between atoms: C_2  and  C_3
REMARK    3  A    between atoms: C_2  and  C_4
REMARK    4  A    between atoms: C_6  and  C_7
REMARK    5  A    between atoms: C_7  and  N_8
REMARK    6  A    between atoms: N_8  and  C_9
REMARK    7  A    between atoms: N_8  and  C_10
REMARK    8  A    between atoms: C_10  and  C_11
REMARK    9  A    between atoms: C_14  and  O_15
REMARK                            x       y       z     vdW  Elec       q    Type
REMARK                         _______ _______ _______ _____ _____    ______ ____
ROOT
ATOM      1  N   UNL     1       1.578   8.280  18.910  0.00  0.00    +0.000 NA
ATOM      2  C   UNL     1       2.302   8.887  17.783  0.00  0.00    +0.000 C 
ENDROOT
BRANCH   1   3
ATOM      3  C   UNL     1       1.120   9.322  19.858  0.00  0.00    +0.000 C 
BRANCH   3   6
ATOM      4  C   UNL     1      -1.820  10.566  18.158  0.00  0.00    +0.000 A 
ATOM      5  N   UNL     1      -1.060   9.646  18.714  0.00  0.00    +0.000 NA
ATOM      6  C   UNL     1       0.080  10.225  19.257  0.00  0.00    +0.000 A 
ATOM      7  C   UNL     1       0.142  11.601  19.128  0.00  0.00    +0.000 A 
ATOM      8  S   UNL     1      -1.248  12.181  18.312  0.00  0.00    +0.000 S 
BRANCH   4  10
ATOM      9  C   UNL     1      -4.035  11.464  17.474  0.00  0.00    +0.000 C 
ATOM     10  C   UNL     1      -3.083  10.268  17.395  0.00  0.00    +0.000 C 
ATOM     11  C   UNL     1      -2.771   9.927  15.939  0.00  0.00    +0.000 C 
ENDBRANCH   4  10
ENDBRANCH   3   6
ENDBRANCH   1   3
BRANCH   1  12
ATOM     12  C   UNL     1       2.474   7.325  19.594  0.00  0.00    +0.000 C 
BRANCH  12  13
ATOM     13  C   UNL     1       2.104   5.877  19.348  0.00  0.00    +0.000 A 
ATOM     14  C   UNL     1       2.074   5.358  18.044  0.00  0.00    +0.000 A 
ATOM     15  C   UNL     1       1.806   4.006  17.822  0.00  0.00    +0.000 A 
ATOM     16  C   UNL     1       1.556   3.163  18.905  0.00  0.00    +0.000 A 
ATOM     17  C   UNL     1       1.552   3.671  20.206  0.00  0.00    +0.000 A 
ATOM     18 CL   UNL     1       1.241   2.659  21.568  0.00  0.00    +0.000 Cl
ATOM     19  C   UNL     1       1.824   5.023  20.427  0.00  0.00    +0.000 A 
BRANCH  16  20
ATOM     20  O   UNL     1       1.323   1.832  18.687  0.00  0.00    +0.000 OA
ATOM     21  H   UNL     1       1.923   1.510  17.995  0.00  0.00    +0.000 HD
ENDBRANCH  16  20
ENDBRANCH  12  13
ENDBRANCH   1  12
TORSDOF 6
ENDMDL
MODEL 6
REMARK VINA RESULT:      -6.2      3.219      5.667
REMARK  Name = 
REMARK  9 active torsions:
REMARK  status: ('A' for Active; 'I' for Inactive)
REMARK    1  A    between atoms: C_1  and  C_2
REMARK    2  A    between atoms: C_2  and  C_3
REMARK    3  A    between atoms: C_2  and  C_4
REMARK    4  A    between atoms: C_6  and  C_7
REMARK    5  A    between atoms: C_7  and  N_8
REMARK    6  A    between atoms: N_8  and  C_9
REMARK    7  A    between atoms: N_8  and  C_10
REMARK    8  A    between atoms: C_10  and  C_11
REMARK    9  A    between atoms: C_14  and  O_15
REMARK                            x       y       z     vdW  Elec       q    Type
REMARK                         _______ _______ _______ _____ _____    ______ ____
ROOT
ATOM      1  N   UNL     1       3.264   3.941  20.225  0.00  0.00    +0.000 NA
ATOM      2  C   UNL     1       2.684   3.021  21.215  0.00  0.00    +0.000 C 
ENDROOT
BRANCH   1   3
ATOM      3  C   UNL     1       2.218   4.442  19.303  0.00  0.00    +0.000 C 
BRANCH   3   6
ATOM      4  C   UNL     1       1.647   7.917  20.124  0.00  0.00    +0.000 A 
ATOM      5  N   UNL     1       1.703   6.625  20.368  0.00  0.00    +0.000 NA
ATOM      6  C   UNL     1       2.171   5.943  19.253  0.00  0.00    +0.000 A 
ATOM      7  C   UNL     1       2.499   6.753  18.180  0.00  0.00    +0.000 A 
ATOM      8  S   UNL     1       2.214   8.395  18.573  0.00  0.00    +0.000 S 
BRANCH   4  10
ATOM      9  C   UNL     1       0.880  10.269  20.372  0.00  0.00    +0.000 C 
ATOM     10  C   UNL     1       1.093   8.933  21.087  0.00  0.00    +0.000 C 
ATOM     11  C   UNL     1      -0.215   8.442  21.704  0.00  0.00    +0.000 C 
ENDBRANCH   4  10
ENDBRANCH   3   6
ENDBRANCH   1   3
BRANCH   1  12
ATOM     12  C   UNL     1       4.314   3.228  19.468  0.00  0.00    +0.000 C 
BRANCH  12  13
ATOM     13  C   UNL     1       5.139   4.141  18.585  0.00  0.00    +0.000 A 
ATOM     14  C   UNL     1       6.007   5.088  19.151  0.00  0.00    +0.000 A 
ATOM     15  C   UNL     1       6.824   5.879  18.340  0.00  0.00    +0.000 A 
ATOM     16  C   UNL     1       6.770   5.735  16.953  0.00  0.00    +0.000 A 
ATOM     17  C   UNL     1       5.889   4.818  16.375  0.00  0.00    +0.000 A 
ATOM     18 CL   UNL     1       5.791   4.618  14.664  0.00  0.00    +0.000 Cl
ATOM     19  C   UNL     1       5.076   4.026  17.187  0.00  0.00    +0.000 A 
BRANCH  16  20
ATOM     20  O   UNL     1       7.592   6.490  16.163  0.00  0.00    +0.000 OA
ATOM     21  H   UNL     1       7.927   7.244  16.673  0.00  0.00    +0.000 HD
ENDBRANCH  16  20
ENDBRANCH  12  13
ENDBRANCH   1  12
TORSDOF 6
ENDMDL
MODEL 7
REMARK VINA RESULT:      -6.2      1.464      1.981
REMARK  Name = 
REMARK  9 active torsions:
REMARK  status: ('A' for Active; 'I' for Inactive)
REMARK    1  A    between atoms: C_1  and  C_2
REMARK    2  A    between atoms: C_2  and  C_3
REMARK    3  A    between atoms: C_2  and  C_4
REMARK    4  A    between atoms: C_6  and  C_7
REMARK    5  A    between atoms: C_7  and  N_8
REMARK    6  A    between atoms: N_8  and  C_9
REMARK    7  A    between atoms: N_8  and  C_10
REMARK    8  A    between atoms: C_10  and  C_11
REMARK    9  A    between atoms: C_14  and  O_15
REMARK                            x       y       z     vdW  Elec       q    Type
REMARK                         _______ _______ _______ _____ _____    ______ ____
ROOT
ATOM      1  N   UNL     1       2.626   3.640  18.207  0.00  0.00    +0.000 NA
ATOM      2  C   UNL     1       1.463   2.744  18.290  0.00  0.00    +0.000 C 
ENDROOT
BRANCH   1   3
ATOM      3  C   UNL     1       3.817   2.904  17.725  0.00  0.00    +0.000 C 
BRANCH   3   6
ATOM      4  C   UNL     1       6.593   5.178  17.274  0.00  0.00    +0.000 A 
ATOM      5  N   UNL     1       5.832   4.339  17.945  0.00  0.00    +0.000 NA
ATOM      6  C   UNL     1       4.847   3.815  17.118  0.00  0.00    +0.000 A 
ATOM      7  C   UNL     1       4.907   4.250  15.806  0.00  0.00    +0.000 A 
ATOM      8  S   UNL     1       6.216   5.336  15.604  0.00  0.00    +0.000 S 
BRANCH   4  10
ATOM      9  C   UNL     1       7.481   7.479  17.591  0.00  0.00    +0.000 C 
ATOM     10  C   UNL     1       7.696   5.994  17.894  0.00  0.00    +0.000 C 
ATOM     11  C   UNL     1       7.764   5.760  19.402  0.00  0.00    +0.000 C 
ENDBRANCH   4  10
ENDBRANCH   3   6
ENDBRANCH   1   3
BRANCH   1  12
ATOM     12  C   UNL     1       2.885   4.211  19.545  0.00  0.00    +0.000 C 
BRANCH  12  13
ATOM     13  C   UNL     1       2.360   5.624  19.704  0.00  0.00    +0.000 A 
ATOM     14  C   UNL     1       1.706   6.015  20.882  0.00  0.00    +0.000 A 
ATOM     15  C   UNL     1       1.288   7.336  21.059  0.00  0.00    +0.000 A 
ATOM     16  C   UNL     1       1.515   8.274  20.052  0.00  0.00    +0.000 A 
ATOM     17  C   UNL     1       2.137   7.893  18.861  0.00  0.00    +0.000 A 
ATOM     18 CL   UNL     1       2.427   9.025  17.593  0.00  0.00    +0.000 Cl
ATOM     19  C   UNL     1       2.557   6.573  18.687  0.00  0.00    +0.000 A 
BRANCH  16  20
ATOM     20  O   UNL     1       1.131   9.574  20.241  0.00  0.00    +0.000 OA
ATOM     21  H   UNL     1       1.429   9.874  21.114  0.00  0.00    +0.000 HD
ENDBRANCH  16  20
ENDBRANCH  12  13
ENDBRANCH   1  12
TORSDOF 6
ENDMDL
MODEL 8
REMARK VINA RESULT:      -6.2      3.736      5.134
REMARK  Name = 
REMARK  9 active torsions:
REMARK  status: ('A' for Active; 'I' for Inactive)
REMARK    1  A    between atoms: C_1  and  C_2
REMARK    2  A    between atoms: C_2  and  C_3
REMARK    3  A    between atoms: C_2  and  C_4
REMARK    4  A    between atoms: C_6  and  C_7
REMARK    5  A    between atoms: C_7  and  N_8
REMARK    6  A    between atoms: N_8  and  C_9
REMARK    7  A    between atoms: N_8  and  C_10
REMARK    8  A    between atoms: C_10  and  C_11
REMARK    9  A    between atoms: C_14  and  O_15
REMARK                            x       y       z     vdW  Elec       q    Type
REMARK                         _______ _______ _______ _____ _____    ______ ____
ROOT
ATOM      1  N   UNL     1       3.016   6.743  18.545  0.00  0.00    +0.000 NA
ATOM      2  C   UNL     1       2.259   7.848  19.154  0.00  0.00    +0.000 C 
ENDROOT
BRANCH   1   3
ATOM      3  C   UNL     1       3.838   7.235  17.416  0.00  0.00    +0.000 C 
BRANCH   3   6
ATOM      4  C   UNL     1       6.212   5.050  15.783  0.00  0.00    +0.000 A 
ATOM      5  N   UNL     1       5.193   5.881  15.835  0.00  0.00    +0.000 NA
ATOM      6  C   UNL     1       5.014   6.344  17.133  0.00  0.00    +0.000 A 
ATOM      7  C   UNL     1       5.942   5.871  18.044  0.00  0.00    +0.000 A 
ATOM      8  S   UNL     1       7.054   4.828  17.265  0.00  0.00    +0.000 S 
BRANCH   4  10
ATOM      9  C   UNL     1       5.378   3.906  13.739  0.00  0.00    +0.000 C 
ATOM     10  C   UNL     1       6.619   4.294  14.546  0.00  0.00    +0.000 C 
ATOM     11  C   UNL     1       7.575   5.125  13.691  0.00  0.00    +0.000 C 
ENDBRANCH   4  10
ENDBRANCH   3   6
ENDBRANCH   1   3
BRANCH   1  12
ATOM     12  C   UNL     1       2.064   5.715  18.075  0.00  0.00    +0.000 C 
BRANCH  12  13
ATOM     13  C   UNL     1       2.606   4.305  18.184  0.00  0.00    +0.000 A 
ATOM     14  C   UNL     1       2.635   3.462  17.062  0.00  0.00    +0.000 A 
ATOM     15  C   UNL     1       3.203   2.188  17.144  0.00  0.00    +0.000 A 
ATOM     16  C   UNL     1       3.738   1.745  18.353  0.00  0.00    +0.000 A 
ATOM     17  C   UNL     1       3.689   2.561  19.486  0.00  0.00    +0.000 A 
ATOM     18 CL   UNL     1       4.335   2.043  20.999  0.00  0.00    +0.000 Cl
ATOM     19  C   UNL     1       3.124   3.835  19.402  0.00  0.00    +0.000 A 
BRANCH  16  20
ATOM     20  O   UNL     1       4.320   0.509  18.422  0.00  0.00    +0.000 OA
ATOM     21  H   UNL     1       5.143   0.568  18.933  0.00  0.00    +0.000 HD
ENDBRANCH  16  20
ENDBRANCH  12  13
ENDBRANCH   1  12
TORSDOF 6
ENDMDL
MODEL 9
REMARK VINA RESULT:      -6.1      4.225      6.013
REMARK  Name = 
REMARK  9 active torsions:
REMARK  status: ('A' for Active; 'I' for Inactive)
REMARK    1  A    between atoms: C_1  and  C_2
REMARK    2  A    between atoms: C_2  and  C_3
REMARK    3  A    between atoms: C_2  and  C_4
REMARK    4  A    between atoms: C_6  and  C_7
REMARK    5  A    between atoms: C_7  and  N_8
REMARK    6  A    between atoms: N_8  and  C_9
REMARK    7  A    between atoms: N_8  and  C_10
REMARK    8  A    between atoms: C_10  and  C_11
REMARK    9  A    between atoms: C_14  and  O_15
REMARK                            x       y       z     vdW  Elec       q    Type
REMARK                         _______ _______ _______ _____ _____    ______ ____
ROOT
ATOM      1  N   UNL     1       6.283   4.753  16.718  0.00  0.00    +0.000 NA
ATOM      2  C   UNL     1       7.231   4.447  17.799  0.00  0.00    +0.000 C 
ENDROOT
BRANCH   1   3
ATOM      3  C   UNL     1       6.909   5.643  15.712  0.00  0.00    +0.000 C 
BRANCH   3   6
ATOM      4  C   UNL     1       6.032   3.687  12.799  0.00  0.00    +0.000 A 
ATOM      5  N   UNL     1       5.857   4.172  14.010  0.00  0.00    +0.000 NA
ATOM      6  C   UNL     1       6.881   5.054  14.330  0.00  0.00    +0.000 A 
ATOM      7  C   UNL     1       7.808   5.247  13.321  0.00  0.00    +0.000 A 
ATOM      8  S   UNL     1       7.393   4.308  11.951  0.00  0.00    +0.000 S 
BRANCH   4  10
ATOM      9  C   UNL     1       4.113   3.288  11.270  0.00  0.00    +0.000 C 
ATOM     10  C   UNL     1       5.155   2.632  12.179  0.00  0.00    +0.000 C 
ATOM     11  C   UNL     1       5.991   1.623  11.393  0.00  0.00    +0.000 C 
ENDBRANCH   4  10
ENDBRANCH   3   6
ENDBRANCH   1   3
BRANCH   1  12
ATOM     12  C   UNL     1       5.089   5.400  17.300  0.00  0.00    +0.000 C 
BRANCH  12  13
ATOM     13  C   UNL     1       4.060   4.410  17.807  0.00  0.00    +0.000 A 
ATOM     14  C   UNL     1       3.484   3.470  16.938  0.00  0.00    +0.000 A 
ATOM     15  C   UNL     1       2.592   2.509  17.421  0.00  0.00    +0.000 A 
ATOM     16  C   UNL     1       2.264   2.488  18.776  0.00  0.00    +0.000 A 
ATOM     17  C   UNL     1       2.806   3.436  19.647  0.00  0.00    +0.000 A 
ATOM     18 CL   UNL     1       2.417   3.442  21.327  0.00  0.00    +0.000 Cl
ATOM     19  C   UNL     1       3.700   4.394  19.164  0.00  0.00    +0.000 A 
BRANCH  16  20
ATOM     20  O   UNL     1       1.413   1.527  19.250  0.00  0.00    +0.000 OA
ATOM     21  H   UNL     1       0.721   1.356  18.592  0.00  0.00    +0.000 HD
ENDBRANCH  16  20
ENDBRANCH  12  13
ENDBRANCH   1  12
TORSDOF 6
ENDMDL
