MODEL 1
REMARK VINA RESULT:      -7.0      0.000      0.000
REMARK  Name = 
REMARK  6 active torsions:
REMARK  status: ('A' for Active; 'I' for Inactive)
REMARK    1  A    between atoms: C_1  and  C_2
REMARK    2  A    between atoms: C_3  and  C_4
REMARK    3  A    between atoms: C_4  and  C_6
REMARK    4  A    between atoms: C_6  and  C_7
REMARK    5  A    between atoms: C_13  and  C_14
REMARK    6  A    between atoms: C_13  and  C_15
REMARK                            x       y       z     vdW  Elec       q    Type
REMARK                         _______ _______ _______ _____ _____    ______ ____
ROOT
ATOM      1  C   UNL     1       3.086   6.940  17.822  0.00  0.00    +0.000 C 
ATOM      2  C   UNL     1       2.561   5.814  18.685  0.00  0.00    +0.000 C 
ATOM      3  C   UNL     1       2.543   4.468  18.460  0.00  0.00    +0.000 C 
ATOM      4  C   UNL     1       1.910   3.480  19.501  0.00  0.00    +0.000 C 
ATOM      5  C   UNL     1       0.899   2.506  18.845  0.00  0.00    +0.000 C 
ATOM      6  C   UNL     1       3.004   2.656  20.221  0.00  0.00    +0.000 C 
ATOM      7  C   UNL     1       1.091   4.227  20.594  0.00  0.00    +0.000 C 
ATOM      8  C   UNL     1       1.822   5.443  21.115  0.00  0.00    +0.000 C 
ATOM      9  C   UNL     1       2.024   6.422  19.976  0.00  0.00    +0.000 C 
ENDROOT
BRANCH   3  10
ATOM     10  C   UNL     1       3.138   3.765  17.230  0.00  0.00    +0.000 C 
ATOM     11  O   UNL     1       2.403   3.496  16.276  0.00  0.00    +0.000 OA
BRANCH  10  12
ATOM     12  C   UNL     1       4.598   3.357  17.189  0.00  0.00    +0.000 C 
BRANCH  12  13
ATOM     13  C   UNL     1       5.585   4.450  17.529  0.00  0.00    +0.000 A 
ATOM     14  C   UNL     1       6.010   4.617  18.854  0.00  0.00    +0.000 A 
ATOM     15  C   UNL     1       6.952   5.592  19.180  0.00  0.00    +0.000 A 
ATOM     16  C   UNL     1       7.467   6.420  18.184  0.00  0.00    +0.000 A 
ATOM     17  C   UNL     1       7.043   6.273  16.864  0.00  0.00    +0.000 A 
ATOM     18  C   UNL     1       6.107   5.291  16.535  0.00  0.00    +0.000 A 
ENDBRANCH  12  13
ENDBRANCH  10  12
ENDBRANCH   3  10
TORSDOF 3
ENDMDL
MODEL 2
REMARK VINA RESULT:      -7.0      0.070      1.141
REMARK  Name = 
REMARK  6 active torsions:
REMARK  status: ('A' for Active; 'I' for Inactive)
REMARK    1  A    between atoms: C_1  and  C_2
REMARK    2  A    between atoms: C_3  and  C_4
REMARK    3  A    between atoms: C_4  and  C_6
REMARK    4  A    between atoms: C_6  and  C_7
REMARK    5  A    between atoms: C_13  and  C_14
REMARK    6  A    between atoms: C_13  and  C_15
REMARK                            x       y       z     vdW  Elec       q    Type
REMARK                         _______ _______ _______ _____ _____    ______ ____
ROOT
ATOM      1  C   UNL     1       3.113   6.945  17.767  0.00  0.00    +0.000 C 
ATOM      2  C   UNL     1       2.580   5.841  18.654  0.00  0.00    +0.000 C 
ATOM      3  C   UNL     1       2.542   4.491  18.452  0.00  0.00    +0.000 C 
ATOM      4  C   UNL     1       1.905   3.530  19.515  0.00  0.00    +0.000 C 
ATOM      5  C   UNL     1       0.875   2.559  18.885  0.00  0.00    +0.000 C 
ATOM      6  C   UNL     1       2.994   2.705  20.240  0.00  0.00    +0.000 C 
ATOM      7  C   UNL     1       1.106   4.308  20.602  0.00  0.00    +0.000 C 
ATOM      8  C   UNL     1       1.857   5.523  21.096  0.00  0.00    +0.000 C 
ATOM      9  C   UNL     1       2.062   6.479  19.938  0.00  0.00    +0.000 C 
ENDROOT
BRANCH   3  10
ATOM     10  C   UNL     1       3.117   3.759  17.230  0.00  0.00    +0.000 C 
ATOM     11  O   UNL     1       2.375   3.503  16.278  0.00  0.00    +0.000 OA
BRANCH  10  12
ATOM     12  C   UNL     1       4.564   3.307  17.194  0.00  0.00    +0.000 C 
BRANCH  12  13
ATOM     13  C   UNL     1       5.583   4.373  17.528  0.00  0.00    +0.000 A 
ATOM     14  C   UNL     1       6.121   5.167  16.505  0.00  0.00    +0.000 A 
ATOM     15  C   UNL     1       7.031   6.182  16.800  0.00  0.00    +0.000 A 
ATOM     16  C   UNL     1       7.422   6.403  18.118  0.00  0.00    +0.000 A 
ATOM     17  C   UNL     1       6.904   5.613  19.144  0.00  0.00    +0.000 A 
ATOM     18  C   UNL     1       5.987   4.601  18.852  0.00  0.00    +0.000 A 
ENDBRANCH  12  13
ENDBRANCH  10  12
ENDBRANCH   3  10
TORSDOF 3
ENDMDL
MODEL 3
REMARK VINA RESULT:      -6.9      1.828      2.791
REMARK  Name = 
REMARK  6 active torsions:
REMARK  status: ('A' for Active; 'I' for Inactive)
REMARK    1  A    between atoms: C_1  and  C_2
REMARK    2  A    between atoms: C_3  and  C_4
REMARK    3  A    between atoms: C_4  and  C_6
REMARK    4  A    between atoms: C_6  and  C_7
REMARK    5  A    between atoms: C_13  and  C_14
REMARK    6  A    between atoms: C_13  and  C_15
REMARK                            x       y       z     vdW  Elec       q    Type
REMARK                         _______ _______ _______ _____ _____    ______ ____
ROOT
ATOM      1  C   UNL     1       2.177   6.592  20.237  0.00  0.00    +0.000 C 
ATOM      2  C   UNL     1       2.361   5.105  20.026  0.00  0.00    +0.000 C 
ATOM      3  C   UNL     1       3.419   4.414  19.512  0.00  0.00    +0.000 C 
ATOM      4  C   UNL     1       3.372   2.854  19.358  0.00  0.00    +0.000 C 
ATOM      5  C   UNL     1       3.773   2.391  17.935  0.00  0.00    +0.000 C 
ATOM      6  C   UNL     1       4.299   2.167  20.389  0.00  0.00    +0.000 C 
ATOM      7  C   UNL     1       1.937   2.289  19.570  0.00  0.00    +0.000 C 
ATOM      8  C   UNL     1       1.255   2.911  20.767  0.00  0.00    +0.000 C 
ATOM      9  C   UNL     1       1.106   4.400  20.530  0.00  0.00    +0.000 C 
ENDROOT
BRANCH   3  10
ATOM     10  C   UNL     1       4.751   5.034  19.061  0.00  0.00    +0.000 C 
ATOM     11  O   UNL     1       5.780   4.773  19.691  0.00  0.00    +0.000 OA
BRANCH  10  12
ATOM     12  C   UNL     1       4.814   5.994  17.889  0.00  0.00    +0.000 C 
BRANCH  12  13
ATOM     13  C   UNL     1       5.488   5.456  16.648  0.00  0.00    +0.000 A 
ATOM     14  C   UNL     1       6.869   5.626  16.475  0.00  0.00    +0.000 A 
ATOM     15  C   UNL     1       7.514   5.100  15.357  0.00  0.00    +0.000 A 
ATOM     16  C   UNL     1       6.782   4.411  14.393  0.00  0.00    +0.000 A 
ATOM     17  C   UNL     1       5.406   4.245  14.546  0.00  0.00    +0.000 A 
ATOM     18  C   UNL     1       4.759   4.764  15.669  0.00  0.00    +0.000 A 
ENDBRANCH  12  13
ENDBRANCH  10  12
ENDBRANCH   3  10
TORSDOF 3
ENDMDL
MODEL 4
REMARK VINA RESULT:      -6.7      1.849      2.790
REMARK  Name = 
REMARK  6 active torsions:
REMARK  status: ('A' for Active; 'I' for Inactive)
REMARK    1  A    between atoms: C_1  and  C_2
REMARK    2  A    between atoms: C_3  and  C_4
REMARK    3  A    between atoms: C_4  and  C_6
REMARK    4  A    between atoms: C_6  and  C_7
REMARK    5  A    between atoms: C_13  and  C_14
REMARK    6  A    between atoms: C_13  and  C_15
REMARK                            x       y       z     vdW  Elec       q    Type
REMARK                         _______ _______ _______ _____ _____    ______ ____
ROOT
ATOM      1  C   UNL     1       2.389   6.528  19.910  0.00  0.00    +0.000 C 
ATOM      2  C   UNL     1       2.451   5.017  19.871  0.00  0.00    +0.000 C 
ATOM      3  C   UNL     1       3.429   4.188  19.403  0.00  0.00    +0.000 C 
ATOM      4  C   UNL     1       3.257   2.630  19.438  0.00  0.00    +0.000 C 
ATOM      5  C   UNL     1       3.555   1.975  18.066  0.00  0.00    +0.000 C 
ATOM      6  C   UNL     1       4.179   1.994  20.506  0.00  0.00    +0.000 C 
ATOM      7  C   UNL     1       1.796   2.209  19.771  0.00  0.00    +0.000 C 
ATOM      8  C   UNL     1       1.220   3.019  20.911  0.00  0.00    +0.000 C 
ATOM      9  C   UNL     1       1.172   4.477  20.503  0.00  0.00    +0.000 C 
ENDROOT
BRANCH   3  10
ATOM     10  C   UNL     1       4.780   4.644  18.830  0.00  0.00    +0.000 C 
ATOM     11  O   UNL     1       5.822   4.192  19.315  0.00  0.00    +0.000 OA
BRANCH  10  12
ATOM     12  C   UNL     1       4.855   5.669  17.716  0.00  0.00    +0.000 C 
BRANCH  12  13
ATOM     13  C   UNL     1       5.551   5.206  16.456  0.00  0.00    +0.000 A 
ATOM     14  C   UNL     1       4.855   4.426  15.523  0.00  0.00    +0.000 A 
ATOM     15  C   UNL     1       5.468   4.026  14.336  0.00  0.00    +0.000 A 
ATOM     16  C   UNL     1       6.788   4.390  14.079  0.00  0.00    +0.000 A 
ATOM     17  C   UNL     1       7.496   5.155  15.005  0.00  0.00    +0.000 A 
ATOM     18  C   UNL     1       6.881   5.564  16.190  0.00  0.00    +0.000 A 
ENDBRANCH  12  13
ENDBRANCH  10  12
ENDBRANCH   3  10
TORSDOF 3
ENDMDL
MODEL 5
REMARK VINA RESULT:      -6.6      1.248      1.890
REMARK  Name = 
REMARK  6 active torsions:
REMARK  status: ('A' for Active; 'I' for Inactive)
REMARK    1  A    between atoms: C_1  and  C_2
REMARK    2  A    between atoms: C_3  and  C_4
REMARK    3  A    between atoms: C_4  and  C_6
REMARK    4  A    between atoms: C_6  and  C_7
REMARK    5  A    between atoms: C_13  and  C_14
REMARK    6  A    between atoms: C_13  and  C_15
REMARK                            x       y       z     vdW  Elec       q    Type
REMARK                         _______ _______ _______ _____ _____    ______ ____
ROOT
ATOM      1  C   UNL     1       3.675   7.348  17.521  0.00  0.00    +0.000 C 
ATOM      2  C   UNL     1       3.354   6.018  18.167  0.00  0.00    +0.000 C 
ATOM      3  C   UNL     1       3.752   4.757  17.830  0.00  0.00    +0.000 C 
ATOM      4  C   UNL     1       3.261   3.508  18.641  0.00  0.00    +0.000 C 
ATOM      5  C   UNL     1       2.684   2.401  17.723  0.00  0.00    +0.000 C 
ATOM      6  C   UNL     1       4.411   2.909  19.486  0.00  0.00    +0.000 C 
ATOM      7  C   UNL     1       2.100   3.862  19.615  0.00  0.00    +0.000 C 
ATOM      8  C   UNL     1       2.365   5.145  20.369  0.00  0.00    +0.000 C 
ATOM      9  C   UNL     1       2.466   6.287  19.377  0.00  0.00    +0.000 C 
ENDROOT
BRANCH   3  10
ATOM     10  C   UNL     1       4.712   4.406  16.683  0.00  0.00    +0.000 C 
ATOM     11  O   UNL     1       4.261   4.266  15.542  0.00  0.00    +0.000 OA
BRANCH  10  12
ATOM     12  C   UNL     1       6.190   4.183  16.936  0.00  0.00    +0.000 C 
BRANCH  12  13
ATOM     13  C   UNL     1       6.934   5.367  17.510  0.00  0.00    +0.000 A 
ATOM     14  C   UNL     1       7.001   6.565  16.784  0.00  0.00    +0.000 A 
ATOM     15  C   UNL     1       7.647   7.681  17.316  0.00  0.00    +0.000 A 
ATOM     16  C   UNL     1       8.245   7.604  18.572  0.00  0.00    +0.000 A 
ATOM     17  C   UNL     1       8.196   6.415  19.299  0.00  0.00    +0.000 A 
ATOM     18  C   UNL     1       7.542   5.300  18.772  0.00  0.00    +0.000 A 
ENDBRANCH  12  13
ENDBRANCH  10  12
ENDBRANCH   3  10
TORSDOF 3
ENDMDL
MODEL 6
REMARK VINA RESULT:      -6.6      1.315      4.997
REMARK  Name = 
REMARK  6 active torsions:
REMARK  status: ('A' for Active; 'I' for Inactive)
REMARK    1  A    between atoms: C_1  and  C_2
REMARK    2  A    between atoms: C_3  and  C_4
REMARK    3  A    between atoms: C_4  and  C_6
REMARK    4  A    between atoms: C_6  and  C_7
REMARK    5  A    between atoms: C_13  and  C_14
REMARK    6  A    between atoms: C_13  and  C_15
REMARK                            x       y       z     vdW  Elec       q    Type
REMARK                         _______ _______ _______ _____ _____    ______ ____
ROOT
ATOM      1  C   UNL     1       5.968   3.525  14.781  0.00  0.00    +0.000 C 
ATOM      2  C   UNL     1       5.737   4.533  15.886  0.00  0.00    +0.000 C 
ATOM      3  C   UNL     1       4.749   4.598  16.825  0.00  0.00    +0.000 C 
ATOM      4  C   UNL     1       4.696   5.770  17.866  0.00  0.00    +0.000 C 
ATOM      5  C   UNL     1       3.301   6.441  17.924  0.00  0.00    +0.000 C 
ATOM      6  C   UNL     1       5.071   5.271  19.282  0.00  0.00    +0.000 C 
ATOM      7  C   UNL     1       5.677   6.922  17.501  0.00  0.00    +0.000 C 
ATOM      8  C   UNL     1       7.032   6.400  17.080  0.00  0.00    +0.000 C 
ATOM      9  C   UNL     1       6.868   5.555  15.833  0.00  0.00    +0.000 C 
ENDROOT
BRANCH   3  10
ATOM     10  C   UNL     1       3.624   3.567  17.003  0.00  0.00    +0.000 C 
ATOM     11  O   UNL     1       2.598   3.673  16.324  0.00  0.00    +0.000 OA
BRANCH  10  12
ATOM     12  C   UNL     1       3.733   2.455  18.028  0.00  0.00    +0.000 C 
BRANCH  12  13
ATOM     13  C   UNL     1       2.866   2.619  19.255  0.00  0.00    +0.000 A 
ATOM     14  C   UNL     1       3.414   2.410  20.529  0.00  0.00    +0.000 A 
ATOM     15  C   UNL     1       2.640   2.597  21.673  0.00  0.00    +0.000 A 
ATOM     16  C   UNL     1       1.306   2.982  21.555  0.00  0.00    +0.000 A 
ATOM     17  C   UNL     1       0.745   3.181  20.294  0.00  0.00    +0.000 A 
ATOM     18  C   UNL     1       1.520   3.002  19.147  0.00  0.00    +0.000 A 
ENDBRANCH  12  13
ENDBRANCH  10  12
ENDBRANCH   3  10
TORSDOF 3
ENDMDL
MODEL 7
REMARK VINA RESULT:      -6.6      1.308      5.100
REMARK  Name = 
REMARK  6 active torsions:
REMARK  status: ('A' for Active; 'I' for Inactive)
REMARK    1  A    between atoms: C_1  and  C_2
REMARK    2  A    between atoms: C_3  and  C_4
REMARK    3  A    between atoms: C_4  and  C_6
REMARK    4  A    between atoms: C_6  and  C_7
REMARK    5  A    between atoms: C_13  and  C_14
REMARK    6  A    between atoms: C_13  and  C_15
REMARK                            x       y       z     vdW  Elec       q    Type
REMARK                         _______ _______ _______ _____ _____    ______ ____
ROOT
ATOM      1  C   UNL     1       5.858   3.579  14.652  0.00  0.00    +0.000 C 
ATOM      2  C   UNL     1       5.704   4.565  15.790  0.00  0.00    +0.000 C 
ATOM      3  C   UNL     1       4.767   4.628  16.780  0.00  0.00    +0.000 C 
ATOM      4  C   UNL     1       4.792   5.775  17.848  0.00  0.00    +0.000 C 
ATOM      5  C   UNL     1       3.416   6.473  17.993  0.00  0.00    +0.000 C 
ATOM      6  C   UNL     1       5.227   5.235  19.232  0.00  0.00    +0.000 C 
ATOM      7  C   UNL     1       5.778   6.915  17.460  0.00  0.00    +0.000 C 
ATOM      8  C   UNL     1       7.098   6.375  16.959  0.00  0.00    +0.000 C 
ATOM      9  C   UNL     1       6.853   5.564  15.703  0.00  0.00    +0.000 C 
ENDROOT
BRANCH   3  10
ATOM     10  C   UNL     1       3.630   3.616  16.991  0.00  0.00    +0.000 C 
ATOM     11  O   UNL     1       2.589   3.736  16.340  0.00  0.00    +0.000 OA
BRANCH  10  12
ATOM     12  C   UNL     1       3.748   2.505  18.017  0.00  0.00    +0.000 C 
BRANCH  12  13
ATOM     13  C   UNL     1       2.904   2.678  19.259  0.00  0.00    +0.000 A 
ATOM     14  C   UNL     1       1.559   3.054  19.140  0.00  0.00    +0.000 A 
ATOM     15  C   UNL     1       0.755   3.178  20.272  0.00  0.00    +0.000 A 
ATOM     16  C   UNL     1       1.292   2.941  21.536  0.00  0.00    +0.000 A 
ATOM     17  C   UNL     1       2.633   2.578  21.669  0.00  0.00    +0.000 A 
ATOM     18  C   UNL     1       3.437   2.446  20.536  0.00  0.00    +0.000 A 
ENDBRANCH  12  13
ENDBRANCH  10  12
ENDBRANCH   3  10
TORSDOF 3
ENDMDL
MODEL 8
REMARK VINA RESULT:      -6.5      1.191      1.885
REMARK  Name = 
REMARK  6 active torsions:
REMARK  status: ('A' for Active; 'I' for Inactive)
REMARK    1  A    between atoms: C_1  and  C_2
REMARK    2  A    between atoms: C_3  and  C_4
REMARK    3  A    between atoms: C_4  and  C_6
REMARK    4  A    between atoms: C_6  and  C_7
REMARK    5  A    between atoms: C_13  and  C_14
REMARK    6  A    between atoms: C_13  and  C_15
REMARK                            x       y       z     vdW  Elec       q    Type
REMARK                         _______ _______ _______ _____ _____    ______ ____
ROOT
ATOM      1  C   UNL     1       2.327   6.803  19.598  0.00  0.00    +0.000 C 
ATOM      2  C   UNL     1       2.371   5.297  19.734  0.00  0.00    +0.000 C 
ATOM      3  C   UNL     1       2.874   4.352  18.888  0.00  0.00    +0.000 C 
ATOM      4  C   UNL     1       2.780   2.824  19.230  0.00  0.00    +0.000 C 
ATOM      5  C   UNL     1       2.191   1.996  18.060  0.00  0.00    +0.000 C 
ATOM      6  C   UNL     1       4.169   2.252  19.599  0.00  0.00    +0.000 C 
ATOM      7  C   UNL     1       1.827   2.551  20.430  0.00  0.00    +0.000 C 
ATOM      8  C   UNL     1       2.052   3.526  21.563  0.00  0.00    +0.000 C 
ATOM      9  C   UNL     1       1.747   4.928  21.075  0.00  0.00    +0.000 C 
ENDROOT
BRANCH   3  10
ATOM     10  C   UNL     1       3.594   4.640  17.561  0.00  0.00    +0.000 C 
ATOM     11  O   UNL     1       3.724   3.730  16.737  0.00  0.00    +0.000 OA
BRANCH  10  12
ATOM     12  C   UNL     1       4.186   6.005  17.269  0.00  0.00    +0.000 C 
BRANCH  12  13
ATOM     13  C   UNL     1       5.595   6.220  17.772  0.00  0.00    +0.000 A 
ATOM     14  C   UNL     1       6.395   7.218  17.198  0.00  0.00    +0.000 A 
ATOM     15  C   UNL     1       7.683   7.458  17.677  0.00  0.00    +0.000 A 
ATOM     16  C   UNL     1       8.187   6.693  18.726  0.00  0.00    +0.000 A 
ATOM     17  C   UNL     1       7.406   5.689  19.299  0.00  0.00    +0.000 A 
ATOM     18  C   UNL     1       6.115   5.453  18.825  0.00  0.00    +0.000 A 
ENDBRANCH  12  13
ENDBRANCH  10  12
ENDBRANCH   3  10
TORSDOF 3
ENDMDL
MODEL 9
REMARK VINA RESULT:      -6.4      1.292      2.793
REMARK  Name = 
REMARK  6 active torsions:
REMARK  status: ('A' for Active; 'I' for Inactive)
REMARK    1  A    between atoms: C_1  and  C_2
REMARK    2  A    between atoms: C_3  and  C_4
REMARK    3  A    between atoms: C_4  and  C_6
REMARK    4  A    between atoms: C_6  and  C_7
REMARK    5  A    between atoms: C_13  and  C_14
REMARK    6  A    between atoms: C_13  and  C_15
REMARK                            x       y       z     vdW  Elec       q    Type
REMARK                         _______ _______ _______ _____ _____    ______ ____
ROOT
ATOM      1  C   UNL     1       4.489   1.729  20.799  0.00  0.00    +0.000 C 
ATOM      2  C   UNL     1       3.489   2.784  20.379  0.00  0.00    +0.000 C 
ATOM      3  C   UNL     1       3.556   3.712  19.381  0.00  0.00    +0.000 C 
ATOM      4  C   UNL     1       2.393   4.738  19.149  0.00  0.00    +0.000 C 
ATOM      5  C   UNL     1       2.906   6.198  19.062  0.00  0.00    +0.000 C 
ATOM      6  C   UNL     1       1.610   4.405  17.857  0.00  0.00    +0.000 C 
ATOM      7  C   UNL     1       1.374   4.744  20.326  0.00  0.00    +0.000 C 
ATOM      8  C   UNL     1       1.015   3.345  20.770  0.00  0.00    +0.000 C 
ATOM      9  C   UNL     1       2.264   2.655  21.279  0.00  0.00    +0.000 C 
ENDROOT
BRANCH   3  10
ATOM     10  C   UNL     1       4.711   3.855  18.378  0.00  0.00    +0.000 C 
ATOM     11  O   UNL     1       4.499   3.633  17.182  0.00  0.00    +0.000 OA
BRANCH  10  12
ATOM     12  C   UNL     1       6.109   4.218  18.837  0.00  0.00    +0.000 C 
BRANCH  12  13
ATOM     13  C   UNL     1       6.605   5.575  18.391  0.00  0.00    +0.000 A 
ATOM     14  C   UNL     1       7.770   6.111  18.957  0.00  0.00    +0.000 A 
ATOM     15  C   UNL     1       8.265   7.343  18.529  0.00  0.00    +0.000 A 
ATOM     16  C   UNL     1       7.590   8.056  17.540  0.00  0.00    +0.000 A 
ATOM     17  C   UNL     1       6.423   7.540  16.978  0.00  0.00    +0.000 A 
ATOM     18  C   UNL     1       5.931   6.304  17.400  0.00  0.00    +0.000 A 
ENDBRANCH  12  13
ENDBRANCH  10  12
ENDBRANCH   3  10
TORSDOF 3
ENDMDL
