MODEL 1
REMARK VINA RESULT:      -7.6      0.000      0.000
REMARK  Name = 
REMARK  6 active torsions:
REMARK  status: ('A' for Active; 'I' for Inactive)
REMARK    1  A    between atoms: O_1  and  C_2
REMARK    2  A    between atoms: C_2  and  C_3
REMARK    3  A    between atoms: C_3  and  N_4
REMARK    4  A    between atoms: C_6  and  C_7
REMARK    5  A    between atoms: C_14  and  C_15
REMARK    6  A    between atoms: C_18  and  C_19
REMARK                            x       y       z     vdW  Elec       q    Type
REMARK                         _______ _______ _______ _____ _____    ______ ____
ROOT
ATOM      1  N   UNL     1       2.426   4.873  19.946  0.00  0.00    +0.000 N 
ATOM      2  N   UNL     1       3.308   3.966  19.456  0.00  0.00    +0.000 NA
ATOM      3  C   UNL     1       4.180   4.754  18.810  0.00  0.00    +0.000 A 
ATOM      4  N   UNL     1       3.928   6.089  18.919  0.00  0.00    +0.000 NA
ATOM      5  C   UNL     1       2.807   6.149  19.608  0.00  0.00    +0.000 A 
ENDROOT
BRANCH   3   6
ATOM      6  C   UNL     1       5.325   4.273  17.973  0.00  0.00    +0.000 C 
ATOM      7  C   UNL     1       6.644   4.960  18.345  0.00  0.00    +0.000 C 
ATOM      8  C   UNL     1       7.765   4.523  17.408  0.00  0.00    +0.000 C 
ATOM      9  O   UNL     1       7.402   4.739  16.046  0.00  0.00    +0.000 OA
ATOM     10  C   UNL     1       6.259   3.972  15.667  0.00  0.00    +0.000 C 
ATOM     11  C   UNL     1       5.042   4.377  16.476  0.00  0.00    +0.000 C 
ENDBRANCH   3   6
BRANCH   5  12
ATOM     12  C   UNL     1       2.084   7.364  19.827  0.00  0.00    +0.000 A 
ATOM     13  C   UNL     1       1.527   7.871  20.982  0.00  0.00    +0.000 A 
ATOM     14  C   UNL     1       0.847   9.103  20.764  0.00  0.00    +0.000 A 
ATOM     15  C   UNL     1       0.919   9.515  19.442  0.00  0.00    +0.000 A 
ATOM     16  S   UNL     1       1.821   8.416  18.495  0.00  0.00    +0.000 S 
BRANCH  15  17
ATOM     17  C   UNL     1       0.364  10.740  18.796  0.00  0.00    +0.000 C 
ATOM     18  C   UNL     1      -0.267  11.692  19.802  0.00  0.00    +0.000 C 
ATOM     19  C   UNL     1      -1.460  12.219  19.046  0.00  0.00    +0.000 C 
ATOM     20  C   UNL     1      -1.878  11.017  18.231  0.00  0.00    +0.000 C 
ATOM     21  O   UNL     1      -0.672  10.328  17.885  0.00  0.00    +0.000 OA
ENDBRANCH  15  17
ENDBRANCH   5  12
BRANCH   1  22
ATOM     22  C   UNL     1       1.180   4.429  20.528  0.00  0.00    +0.000 C 
BRANCH  22  23
ATOM     23  C   UNL     1       1.254   3.059  21.184  0.00  0.00    +0.000 C 
BRANCH  23  24
ATOM     24  O   UNL     1       2.243   3.093  22.214  0.00  0.00    +0.000 OA
ATOM     25  H   UNL     1       2.901   3.767  21.971  0.00  0.00    +0.000 HD
ENDBRANCH  23  24
ENDBRANCH  22  23
ENDBRANCH   1  22
TORSDOF 6
ENDMDL
MODEL 2
REMARK VINA RESULT:      -7.4      0.894      1.141
REMARK  Name = 
REMARK  6 active torsions:
REMARK  status: ('A' for Active; 'I' for Inactive)
REMARK    1  A    between atoms: O_1  and  C_2
REMARK    2  A    between atoms: C_2  and  C_3
REMARK    3  A    between atoms: C_3  and  N_4
REMARK    4  A    between atoms: C_6  and  C_7
REMARK    5  A    between atoms: C_14  and  C_15
REMARK    6  A    between atoms: C_18  and  C_19
REMARK                            x       y       z     vdW  Elec       q    Type
REMARK                         _______ _______ _______ _____ _____    ______ ____
ROOT
ATOM      1  N   UNL     1       2.374   4.805  19.856  0.00  0.00    +0.000 N 
ATOM      2  N   UNL     1       3.249   3.906  19.338  0.00  0.00    +0.000 NA
ATOM      3  C   UNL     1       4.135   4.706  18.729  0.00  0.00    +0.000 A 
ATOM      4  N   UNL     1       3.899   6.040  18.886  0.00  0.00    +0.000 NA
ATOM      5  C   UNL     1       2.774   6.088  19.568  0.00  0.00    +0.000 A 
ENDROOT
BRANCH   3   6
ATOM      6  C   UNL     1       5.281   4.242  17.884  0.00  0.00    +0.000 C 
ATOM      7  C   UNL     1       6.598   4.931  18.262  0.00  0.00    +0.000 C 
ATOM      8  C   UNL     1       7.719   4.512  17.317  0.00  0.00    +0.000 C 
ATOM      9  O   UNL     1       7.352   4.744  15.958  0.00  0.00    +0.000 OA
ATOM     10  C   UNL     1       6.212   3.977  15.571  0.00  0.00    +0.000 C 
ATOM     11  C   UNL     1       4.994   4.366  16.388  0.00  0.00    +0.000 C 
ENDBRANCH   3   6
BRANCH   5  12
ATOM     12  C   UNL     1       2.064   7.304  19.826  0.00  0.00    +0.000 A 
ATOM     13  C   UNL     1       1.405   7.724  20.963  0.00  0.00    +0.000 A 
ATOM     14  C   UNL     1       0.783   8.993  20.794  0.00  0.00    +0.000 A 
ATOM     15  C   UNL     1       1.001   9.520  19.530  0.00  0.00    +0.000 A 
ATOM     16  S   UNL     1       1.966   8.480  18.579  0.00  0.00    +0.000 S 
BRANCH  15  17
ATOM     17  C   UNL     1       0.547  10.817  18.949  0.00  0.00    +0.000 C 
ATOM     18  C   UNL     1       1.710  11.724  18.572  0.00  0.00    +0.000 C 
ATOM     19  C   UNL     1       1.189  13.090  18.937  0.00  0.00    +0.000 C 
ATOM     20  C   UNL     1       0.352  12.796  20.161  0.00  0.00    +0.000 C 
ATOM     21  O   UNL     1      -0.226  11.504  19.950  0.00  0.00    +0.000 OA
ENDBRANCH  15  17
ENDBRANCH   5  12
BRANCH   1  22
ATOM     22  C   UNL     1       1.118   4.357  20.412  0.00  0.00    +0.000 C 
BRANCH  22  23
ATOM     23  C   UNL     1       1.213   3.049  21.184  0.00  0.00    +0.000 C 
BRANCH  23  24
ATOM     24  O   UNL     1       2.246   3.165  22.163  0.00  0.00    +0.000 OA
ATOM     25  H   UNL     1       2.429   2.273  22.509  0.00  0.00    +0.000 HD
ENDBRANCH  23  24
ENDBRANCH  22  23
ENDBRANCH   1  22
TORSDOF 6
ENDMDL
MODEL 3
REMARK VINA RESULT:      -7.4      3.604      5.758
REMARK  Name = 
REMARK  6 active torsions:
REMARK  status: ('A' for Active; 'I' for Inactive)
REMARK    1  A    between atoms: O_1  and  C_2
REMARK    2  A    between atoms: C_2  and  C_3
REMARK    3  A    between atoms: C_3  and  N_4
REMARK    4  A    between atoms: C_6  and  C_7
REMARK    5  A    between atoms: C_14  and  C_15
REMARK    6  A    between atoms: C_18  and  C_19
REMARK                            x       y       z     vdW  Elec       q    Type
REMARK                         _______ _______ _______ _____ _____    ______ ____
ROOT
ATOM      1  N   UNL     1       6.592   6.161  16.972  0.00  0.00    +0.000 N 
ATOM      2  N   UNL     1       7.333   5.714  15.926  0.00  0.00    +0.000 NA
ATOM      3  C   UNL     1       6.409   5.086  15.185  0.00  0.00    +0.000 A 
ATOM      4  N   UNL     1       5.138   5.167  15.673  0.00  0.00    +0.000 NA
ATOM      5  C   UNL     1       5.272   5.817  16.810  0.00  0.00    +0.000 A 
ENDROOT
BRANCH   3   6
ATOM      6  C   UNL     1       6.688   4.295  13.944  0.00  0.00    +0.000 C 
ATOM      7  C   UNL     1       7.407   5.127  12.876  0.00  0.00    +0.000 C 
ATOM      8  C   UNL     1       7.583   4.324  11.592  0.00  0.00    +0.000 C 
ATOM      9  O   UNL     1       6.331   3.815  11.135  0.00  0.00    +0.000 OA
ATOM     10  C   UNL     1       5.740   2.918  12.076  0.00  0.00    +0.000 C 
ATOM     11  C   UNL     1       5.434   3.626  13.382  0.00  0.00    +0.000 C 
ENDBRANCH   3   6
BRANCH   5  12
ATOM     12  C   UNL     1       4.202   5.992  17.744  0.00  0.00    +0.000 A 
ATOM     13  C   UNL     1       3.496   7.128  18.083  0.00  0.00    +0.000 A 
ATOM     14  C   UNL     1       2.528   6.884  19.099  0.00  0.00    +0.000 A 
ATOM     15  C   UNL     1       2.508   5.556  19.497  0.00  0.00    +0.000 A 
ATOM     16  S   UNL     1       3.646   4.627  18.625  0.00  0.00    +0.000 S 
BRANCH  15  17
ATOM     17  C   UNL     1       1.648   4.880  20.510  0.00  0.00    +0.000 C 
ATOM     18  C   UNL     1       2.458   4.071  21.514  0.00  0.00    +0.000 C 
ATOM     19  C   UNL     1       1.585   2.863  21.738  0.00  0.00    +0.000 C 
ATOM     20  C   UNL     1       0.969   2.656  20.374  0.00  0.00    +0.000 C 
ATOM     21  O   UNL     1       0.785   3.960  19.815  0.00  0.00    +0.000 OA
ENDBRANCH  15  17
ENDBRANCH   5  12
BRANCH   1  22
ATOM     22  C   UNL     1       7.244   6.708  18.140  0.00  0.00    +0.000 C 
BRANCH  22  23
ATOM     23  C   UNL     1       7.772   5.658  19.106  0.00  0.00    +0.000 C 
BRANCH  23  24
ATOM     24  O   UNL     1       7.770   4.388  18.453  0.00  0.00    +0.000 OA
ATOM     25  H   UNL     1       7.102   3.830  18.891  0.00  0.00    +0.000 HD
ENDBRANCH  23  24
ENDBRANCH  22  23
ENDBRANCH   1  22
TORSDOF 6
ENDMDL
MODEL 4
REMARK VINA RESULT:      -7.3      1.261      1.632
REMARK  Name = 
REMARK  6 active torsions:
REMARK  status: ('A' for Active; 'I' for Inactive)
REMARK    1  A    between atoms: O_1  and  C_2
REMARK    2  A    between atoms: C_2  and  C_3
REMARK    3  A    between atoms: C_3  and  N_4
REMARK    4  A    between atoms: C_6  and  C_7
REMARK    5  A    between atoms: C_14  and  C_15
REMARK    6  A    between atoms: C_18  and  C_19
REMARK                            x       y       z     vdW  Elec       q    Type
REMARK                         _______ _______ _______ _____ _____    ______ ____
ROOT
ATOM      1  N   UNL     1       2.530   5.284  19.867  0.00  0.00    +0.000 N 
ATOM      2  N   UNL     1       3.424   4.328  19.505  0.00  0.00    +0.000 NA
ATOM      3  C   UNL     1       4.222   5.004  18.666  0.00  0.00    +0.000 A 
ATOM      4  N   UNL     1       3.916   6.327  18.532  0.00  0.00    +0.000 NA
ATOM      5  C   UNL     1       2.834   6.482  19.267  0.00  0.00    +0.000 A 
ENDROOT
BRANCH   3   6
ATOM      6  C   UNL     1       5.339   4.408  17.867  0.00  0.00    +0.000 C 
ATOM      7  C   UNL     1       6.700   5.018  18.227  0.00  0.00    +0.000 C 
ATOM      8  C   UNL     1       7.797   4.463  17.325  0.00  0.00    +0.000 C 
ATOM      9  O   UNL     1       7.465   4.644  15.950  0.00  0.00    +0.000 OA
ATOM     10  C   UNL     1       6.275   3.943  15.588  0.00  0.00    +0.000 C 
ATOM     11  C   UNL     1       5.080   4.467  16.363  0.00  0.00    +0.000 C 
ENDBRANCH   3   6
BRANCH   5  12
ATOM     12  C   UNL     1       2.070   7.692  19.292  0.00  0.00    +0.000 A 
ATOM     13  C   UNL     1       1.750   8.562  18.271  0.00  0.00    +0.000 A 
ATOM     14  C   UNL     1       1.000   9.683  18.727  0.00  0.00    +0.000 A 
ATOM     15  C   UNL     1       0.750   9.629  20.090  0.00  0.00    +0.000 A 
ATOM     16  S   UNL     1       1.410   8.216  20.788  0.00  0.00    +0.000 S 
BRANCH  15  17
ATOM     17  C   UNL     1      -0.003  10.580  20.958  0.00  0.00    +0.000 C 
ATOM     18  C   UNL     1      -1.060  11.358  20.186  0.00  0.00    +0.000 C 
ATOM     19  C   UNL     1      -0.988  12.722  20.822  0.00  0.00    +0.000 C 
ATOM     20  C   UNL     1       0.484  12.849  21.139  0.00  0.00    +0.000 C 
ATOM     21  O   UNL     1       0.935  11.536  21.485  0.00  0.00    +0.000 OA
ENDBRANCH  15  17
ENDBRANCH   5  12
BRANCH   1  22
ATOM     22  C   UNL     1       1.340   4.921  20.601  0.00  0.00    +0.000 C 
BRANCH  22  23
ATOM     23  C   UNL     1       1.258   3.445  20.961  0.00  0.00    +0.000 C 
BRANCH  23  24
ATOM     24  O   UNL     1       2.100   3.197  22.087  0.00  0.00    +0.000 OA
ATOM     25  H   UNL     1       2.941   2.836  21.755  0.00  0.00    +0.000 HD
ENDBRANCH  23  24
ENDBRANCH  22  23
ENDBRANCH   1  22
TORSDOF 6
ENDMDL
MODEL 5
REMARK VINA RESULT:      -7.0      1.894      7.292
REMARK  Name = 
REMARK  6 active torsions:
REMARK  status: ('A' for Active; 'I' for Inactive)
REMARK    1  A    between atoms: O_1  and  C_2
REMARK    2  A    between atoms: C_2  and  C_3
REMARK    3  A    between atoms: C_3  and  N_4
REMARK    4  A    between atoms: C_6  and  C_7
REMARK    5  A    between atoms: C_14  and  C_15
REMARK    6  A    between atoms: C_18  and  C_19
REMARK                            x       y       z     vdW  Elec       q    Type
REMARK                         _______ _______ _______ _____ _____    ______ ____
ROOT
ATOM      1  N   UNL     1       2.509   4.998  20.289  0.00  0.00    +0.000 N 
ATOM      2  N   UNL     1       1.499   5.748  20.799  0.00  0.00    +0.000 NA
ATOM      3  C   UNL     1       1.762   6.953  20.272  0.00  0.00    +0.000 A 
ATOM      4  N   UNL     1       2.830   6.983  19.425  0.00  0.00    +0.000 NA
ATOM      5  C   UNL     1       3.309   5.757  19.469  0.00  0.00    +0.000 A 
ENDROOT
BRANCH   3   6
ATOM      6  C   UNL     1       1.019   8.215  20.587  0.00  0.00    +0.000 C 
ATOM      7  C   UNL     1       1.315   9.331  19.578  0.00  0.00    +0.000 C 
ATOM      8  C   UNL     1       0.624  10.627  19.986  0.00  0.00    +0.000 C 
ATOM      9  O   UNL     1       0.974  10.991  21.320  0.00  0.00    +0.000 OA
ATOM     10  C   UNL     1       0.555  10.013  22.271  0.00  0.00    +0.000 C 
ATOM     11  C   UNL     1       1.245   8.684  22.023  0.00  0.00    +0.000 C 
ENDBRANCH   3   6
BRANCH   5  12
ATOM     12  C   UNL     1       4.538   5.372  18.846  0.00  0.00    +0.000 A 
ATOM     13  C   UNL     1       5.826   5.382  19.341  0.00  0.00    +0.000 A 
ATOM     14  C   UNL     1       6.782   4.957  18.375  0.00  0.00    +0.000 A 
ATOM     15  C   UNL     1       6.193   4.614  17.168  0.00  0.00    +0.000 A 
ATOM     16  S   UNL     1       4.496   4.796  17.229  0.00  0.00    +0.000 S 
BRANCH  15  17
ATOM     17  C   UNL     1       6.821   4.111  15.912  0.00  0.00    +0.000 C 
ATOM     18  C   UNL     1       7.302   5.239  15.010  0.00  0.00    +0.000 C 
ATOM     19  C   UNL     1       6.987   4.712  13.634  0.00  0.00    +0.000 C 
ATOM     20  C   UNL     1       5.710   3.940  13.873  0.00  0.00    +0.000 C 
ATOM     21  O   UNL     1       5.823   3.374  15.182  0.00  0.00    +0.000 OA
ENDBRANCH  15  17
ENDBRANCH   5  12
BRANCH   1  22
ATOM     22  C   UNL     1       2.742   3.662  20.788  0.00  0.00    +0.000 C 
BRANCH  22  23
ATOM     23  C   UNL     1       1.483   2.945  21.254  0.00  0.00    +0.000 C 
BRANCH  23  24
ATOM     24  O   UNL     1       0.454   3.142  20.284  0.00  0.00    +0.000 OA
ATOM     25  H   UNL     1       0.833   3.656  19.549  0.00  0.00    +0.000 HD
ENDBRANCH  23  24
ENDBRANCH  22  23
ENDBRANCH   1  22
TORSDOF 6
ENDMDL
MODEL 6
REMARK VINA RESULT:      -7.0      3.565      5.783
REMARK  Name = 
REMARK  6 active torsions:
REMARK  status: ('A' for Active; 'I' for Inactive)
REMARK    1  A    between atoms: O_1  and  C_2
REMARK    2  A    between atoms: C_2  and  C_3
REMARK    3  A    between atoms: C_3  and  N_4
REMARK    4  A    between atoms: C_6  and  C_7
REMARK    5  A    between atoms: C_14  and  C_15
REMARK    6  A    between atoms: C_18  and  C_19
REMARK                            x       y       z     vdW  Elec       q    Type
REMARK                         _______ _______ _______ _____ _____    ______ ____
ROOT
ATOM      1  N   UNL     1       6.410   6.182  16.924  0.00  0.00    +0.000 N 
ATOM      2  N   UNL     1       7.038   5.869  15.762  0.00  0.00    +0.000 NA
ATOM      3  C   UNL     1       6.008   5.507  14.984  0.00  0.00    +0.000 A 
ATOM      4  N   UNL     1       4.783   5.632  15.569  0.00  0.00    +0.000 NA
ATOM      5  C   UNL     1       5.052   6.027  16.796  0.00  0.00    +0.000 A 
ENDROOT
BRANCH   3   6
ATOM      6  C   UNL     1       6.125   4.950  13.599  0.00  0.00    +0.000 C 
ATOM      7  C   UNL     1       5.471   3.569  13.471  0.00  0.00    +0.000 C 
ATOM      8  C   UNL     1       5.698   2.990  12.079  0.00  0.00    +0.000 C 
ATOM      9  O   UNL     1       7.087   2.968  11.757  0.00  0.00    +0.000 OA
ATOM     10  C   UNL     1       7.652   4.279  11.728  0.00  0.00    +0.000 C 
ATOM     11  C   UNL     1       7.566   4.937  13.092  0.00  0.00    +0.000 C 
ENDBRANCH   3   6
BRANCH   5  12
ATOM     12  C   UNL     1       4.059   6.134  17.821  0.00  0.00    +0.000 A 
ATOM     13  C   UNL     1       3.422   7.247  18.328  0.00  0.00    +0.000 A 
ATOM     14  C   UNL     1       2.521   6.926  19.383  0.00  0.00    +0.000 A 
ATOM     15  C   UNL     1       2.481   5.565  19.643  0.00  0.00    +0.000 A 
ATOM     16  S   UNL     1       3.518   4.700  18.596  0.00  0.00    +0.000 S 
BRANCH  15  17
ATOM     17  C   UNL     1       1.671   4.811  20.643  0.00  0.00    +0.000 C 
ATOM     18  C   UNL     1       2.528   3.922  21.533  0.00  0.00    +0.000 C 
ATOM     19  C   UNL     1       1.661   2.702  21.706  0.00  0.00    +0.000 C 
ATOM     20  C   UNL     1       0.972   2.607  20.365  0.00  0.00    +0.000 C 
ATOM     21  O   UNL     1       0.767   3.953  19.923  0.00  0.00    +0.000 OA
ENDBRANCH  15  17
ENDBRANCH   5  12
BRANCH   1  22
ATOM     22  C   UNL     1       7.182   6.411  18.124  0.00  0.00    +0.000 C 
BRANCH  22  23
ATOM     23  C   UNL     1       7.568   5.141  18.867  0.00  0.00    +0.000 C 
BRANCH  23  24
ATOM     24  O   UNL     1       7.968   4.154  17.916  0.00  0.00    +0.000 OA
ATOM     25  H   UNL     1       8.936   4.067  17.968  0.00  0.00    +0.000 HD
ENDBRANCH  23  24
ENDBRANCH  22  23
ENDBRANCH   1  22
TORSDOF 6
ENDMDL
MODEL 7
REMARK VINA RESULT:      -6.9      1.519      1.760
REMARK  Name = 
REMARK  6 active torsions:
REMARK  status: ('A' for Active; 'I' for Inactive)
REMARK    1  A    between atoms: O_1  and  C_2
REMARK    2  A    between atoms: C_2  and  C_3
REMARK    3  A    between atoms: C_3  and  N_4
REMARK    4  A    between atoms: C_6  and  C_7
REMARK    5  A    between atoms: C_14  and  C_15
REMARK    6  A    between atoms: C_18  and  C_19
REMARK                            x       y       z     vdW  Elec       q    Type
REMARK                         _______ _______ _______ _____ _____    ______ ____
ROOT
ATOM      1  N   UNL     1       2.558   4.233  17.967  0.00  0.00    +0.000 N 
ATOM      2  N   UNL     1       3.386   3.557  17.131  0.00  0.00    +0.000 NA
ATOM      3  C   UNL     1       4.394   4.430  16.981  0.00  0.00    +0.000 A 
ATOM      4  N   UNL     1       4.271   5.571  17.716  0.00  0.00    +0.000 NA
ATOM      5  C   UNL     1       3.100   5.449  18.305  0.00  0.00    +0.000 A 
ENDROOT
BRANCH   3   6
ATOM      6  C   UNL     1       5.560   4.253  16.059  0.00  0.00    +0.000 C 
ATOM      7  C   UNL     1       6.632   5.330  16.265  0.00  0.00    +0.000 C 
ATOM      8  C   UNL     1       7.754   5.181  15.243  0.00  0.00    +0.000 C 
ATOM      9  O   UNL     1       7.234   5.175  13.915  0.00  0.00    +0.000 OA
ATOM     10  C   UNL     1       6.353   4.075  13.687  0.00  0.00    +0.000 C 
ATOM     11  C   UNL     1       5.139   4.156  14.594  0.00  0.00    +0.000 C 
ENDBRANCH   3   6
BRANCH   5  12
ATOM     12  C   UNL     1       2.487   6.500  19.060  0.00  0.00    +0.000 A 
ATOM     13  C   UNL     1       2.065   6.521  20.372  0.00  0.00    +0.000 A 
ATOM     14  C   UNL     1       1.461   7.760  20.730  0.00  0.00    +0.000 A 
ATOM     15  C   UNL     1       1.456   8.664  19.679  0.00  0.00    +0.000 A 
ATOM     16  S   UNL     1       2.196   8.005  18.287  0.00  0.00    +0.000 S 
BRANCH  15  17
ATOM     17  C   UNL     1       0.941  10.063  19.630  0.00  0.00    +0.000 C 
ATOM     18  C   UNL     1      -0.222  10.288  20.585  0.00  0.00    +0.000 C 
ATOM     19  C   UNL     1      -1.113  11.216  19.801  0.00  0.00    +0.000 C 
ATOM     20  C   UNL     1      -0.908  10.733  18.384  0.00  0.00    +0.000 C 
ATOM     21  O   UNL     1       0.456  10.310  18.297  0.00  0.00    +0.000 OA
ENDBRANCH  15  17
ENDBRANCH   5  12
BRANCH   1  22
ATOM     22  C   UNL     1       1.222   3.742  18.215  0.00  0.00    +0.000 C 
BRANCH  22  23
ATOM     23  C   UNL     1       1.139   2.698  19.319  0.00  0.00    +0.000 C 
BRANCH  23  24
ATOM     24  O   UNL     1       0.557   3.297  20.477  0.00  0.00    +0.000 OA
ATOM     25  H   UNL     1       1.018   4.139  20.639  0.00  0.00    +0.000 HD
ENDBRANCH  23  24
ENDBRANCH  22  23
ENDBRANCH   1  22
TORSDOF 6
ENDMDL
MODEL 8
REMARK VINA RESULT:      -6.9      1.769      7.375
REMARK  Name = 
REMARK  6 active torsions:
REMARK  status: ('A' for Active; 'I' for Inactive)
REMARK    1  A    between atoms: O_1  and  C_2
REMARK    2  A    between atoms: C_2  and  C_3
REMARK    3  A    between atoms: C_3  and  N_4
REMARK    4  A    between atoms: C_6  and  C_7
REMARK    5  A    between atoms: C_14  and  C_15
REMARK    6  A    between atoms: C_18  and  C_19
REMARK                            x       y       z     vdW  Elec       q    Type
REMARK                         _______ _______ _______ _____ _____    ______ ____
ROOT
ATOM      1  N   UNL     1       2.661   5.099  20.000  0.00  0.00    +0.000 N 
ATOM      2  N   UNL     1       1.718   5.896  20.565  0.00  0.00    +0.000 NA
ATOM      3  C   UNL     1       2.105   7.111  20.153  0.00  0.00    +0.000 A 
ATOM      4  N   UNL     1       3.188   7.112  19.324  0.00  0.00    +0.000 NA
ATOM      5  C   UNL     1       3.546   5.847  19.262  0.00  0.00    +0.000 A 
ENDROOT
BRANCH   3   6
ATOM      6  C   UNL     1       1.480   8.406  20.572  0.00  0.00    +0.000 C 
ATOM      7  C   UNL     1       0.274   8.196  21.496  0.00  0.00    +0.000 C 
ATOM      8  C   UNL     1      -0.398   9.525  21.820  0.00  0.00    +0.000 C 
ATOM      9  O   UNL     1      -0.741  10.226  20.625  0.00  0.00    +0.000 OA
ATOM     10  C   UNL     1       0.409  10.553  19.845  0.00  0.00    +0.000 C 
ATOM     11  C   UNL     1       1.126   9.298  19.383  0.00  0.00    +0.000 C 
ENDBRANCH   3   6
BRANCH   5  12
ATOM     12  C   UNL     1       4.745   5.401  18.621  0.00  0.00    +0.000 A 
ATOM     13  C   UNL     1       6.031   5.303  19.110  0.00  0.00    +0.000 A 
ATOM     14  C   UNL     1       6.955   4.849  18.127  0.00  0.00    +0.000 A 
ATOM     15  C   UNL     1       6.342   4.593  16.909  0.00  0.00    +0.000 A 
ATOM     16  S   UNL     1       4.661   4.889  16.984  0.00  0.00    +0.000 S 
BRANCH  15  17
ATOM     17  C   UNL     1       6.932   4.094  15.634  0.00  0.00    +0.000 C 
ATOM     18  C   UNL     1       7.339   5.226  14.700  0.00  0.00    +0.000 C 
ATOM     19  C   UNL     1       6.983   4.673  13.345  0.00  0.00    +0.000 C 
ATOM     20  C   UNL     1       5.743   3.864  13.645  0.00  0.00    +0.000 C 
ATOM     21  O   UNL     1       5.928   3.318  14.955  0.00  0.00    +0.000 OA
ENDBRANCH  15  17
ENDBRANCH   5  12
BRANCH   1  22
ATOM     22  C   UNL     1       2.755   3.708  20.380  0.00  0.00    +0.000 C 
BRANCH  22  23
ATOM     23  C   UNL     1       1.620   3.230  21.273  0.00  0.00    +0.000 C 
BRANCH  23  24
ATOM     24  O   UNL     1       0.423   3.152  20.497  0.00  0.00    +0.000 OA
ATOM     25  H   UNL     1      -0.278   3.619  20.985  0.00  0.00    +0.000 HD
ENDBRANCH  23  24
ENDBRANCH  22  23
ENDBRANCH   1  22
TORSDOF 6
ENDMDL
MODEL 9
REMARK VINA RESULT:      -6.9      1.813      7.352
REMARK  Name = 
REMARK  6 active torsions:
REMARK  status: ('A' for Active; 'I' for Inactive)
REMARK    1  A    between atoms: O_1  and  C_2
REMARK    2  A    between atoms: C_2  and  C_3
REMARK    3  A    between atoms: C_3  and  N_4
REMARK    4  A    between atoms: C_6  and  C_7
REMARK    5  A    between atoms: C_14  and  C_15
REMARK    6  A    between atoms: C_18  and  C_19
REMARK                            x       y       z     vdW  Elec       q    Type
REMARK                         _______ _______ _______ _____ _____    ______ ____
ROOT
ATOM      1  N   UNL     1       2.054   5.390  20.551  0.00  0.00    +0.000 N 
ATOM      2  N   UNL     1       1.496   6.426  21.227  0.00  0.00    +0.000 NA
ATOM      3  C   UNL     1       1.615   7.426  20.341  0.00  0.00    +0.000 A 
ATOM      4  N   UNL     1       2.154   7.061  19.142  0.00  0.00    +0.000 NA
ATOM      5  C   UNL     1       2.453   5.788  19.298  0.00  0.00    +0.000 A 
ENDROOT
BRANCH   3   6
ATOM      6  C   UNL     1       1.258   8.857  20.598  0.00  0.00    +0.000 C 
ATOM      7  C   UNL     1       0.118   8.996  21.616  0.00  0.00    +0.000 C 
ATOM      8  C   UNL     1      -0.288  10.457  21.777  0.00  0.00    +0.000 C 
ATOM      9  O   UNL     1      -0.610  11.037  20.514  0.00  0.00    +0.000 OA
ATOM     10  C   UNL     1       0.507  11.041  19.624  0.00  0.00    +0.000 C 
ATOM     11  C   UNL     1       0.957   9.626  19.313  0.00  0.00    +0.000 C 
ENDBRANCH   3   6
BRANCH   5  12
ATOM     12  C   UNL     1       3.191   5.032  18.333  0.00  0.00    +0.000 A 
ATOM     13  C   UNL     1       2.864   3.858  17.687  0.00  0.00    +0.000 A 
ATOM     14  C   UNL     1       3.902   3.404  16.824  0.00  0.00    +0.000 A 
ATOM     15  C   UNL     1       4.994   4.259  16.822  0.00  0.00    +0.000 A 
ATOM     16  S   UNL     1       4.736   5.601  17.847  0.00  0.00    +0.000 S 
BRANCH  15  17
ATOM     17  C   UNL     1       6.272   4.168  16.058  0.00  0.00    +0.000 C 
ATOM     18  C   UNL     1       6.722   5.518  15.516  0.00  0.00    +0.000 C 
ATOM     19  C   UNL     1       7.298   5.153  14.172  0.00  0.00    +0.000 C 
ATOM     20  C   UNL     1       6.400   4.017  13.738  0.00  0.00    +0.000 C 
ATOM     21  O   UNL     1       6.052   3.304  14.929  0.00  0.00    +0.000 OA
ENDBRANCH  15  17
ENDBRANCH   5  12
BRANCH   1  22
ATOM     22  C   UNL     1       2.340   4.150  21.235  0.00  0.00    +0.000 C 
BRANCH  22  23
ATOM     23  C   UNL     1       1.322   3.049  20.979  0.00  0.00    +0.000 C 
BRANCH  23  24
ATOM     24  O   UNL     1       0.241   3.588  20.218  0.00  0.00    +0.000 OA
ATOM     25  H   UNL     1      -0.405   2.874  20.074  0.00  0.00    +0.000 HD
ENDBRANCH  23  24
ENDBRANCH  22  23
ENDBRANCH   1  22
TORSDOF 6
ENDMDL
