MODEL 1
REMARK VINA RESULT:      -8.2      0.000      0.000
REMARK  Name = 
REMARK  3 active torsions:
REMARK  status: ('A' for Active; 'I' for Inactive)
REMARK    1  A    between atoms: C_1  and  C_2
REMARK    2  A    between atoms: C_6  and  C_7
REMARK    3  A    between atoms: C_10  and  C_11
REMARK                            x       y       z     vdW  Elec       q    Type
REMARK                         _______ _______ _______ _____ _____    ______ ____
ROOT
ATOM      1  C   UNL     1      -0.470   9.872  23.024  0.00  0.00    +0.000 C 
ATOM      2  C   UNL     1       0.164   9.499  21.735  0.00  0.00    +0.000 A 
ATOM      3  N   UNL     1       0.979   8.438  21.668  0.00  0.00    +0.000 NA
ATOM      4  N   UNL     1       1.381   8.390  20.371  0.00  0.00    +0.000 N 
ATOM      5  C   UNL     1       2.263   7.481  19.794  0.00  0.00    +0.000 A 
ATOM      6  C   UNL     1       2.582   7.579  18.493  0.00  0.00    +0.000 A 
ATOM      7  C   UNL     1       1.902   8.689  17.760  0.00  0.00    +0.000 A 
ATOM      8  N   UNL     1       1.079   9.558  18.268  0.00  0.00    +0.000 NA
ATOM      9  C   UNL     1       0.815   9.418  19.606  0.00  0.00    +0.000 A 
ATOM     10  C   UNL     1       0.039  10.130  20.486  0.00  0.00    +0.000 A 
ATOM     11 BR   UNL     1      -0.992  11.650  20.120  0.00  0.00    +0.000 Br
ENDROOT
BRANCH   6  12
ATOM     12  C   UNL     1       3.524   6.696  17.811  0.00  0.00    +0.000 A 
ATOM     13  N   UNL     1       4.658   7.304  17.376  0.00  0.00    +0.000 NA
ATOM     14  C   UNL     1       5.589   6.534  16.764  0.00  0.00    +0.000 A 
ATOM     15  C   UNL     1       5.457   5.169  16.566  0.00  0.00    +0.000 A 
ATOM     16  C   UNL     1       4.280   4.561  17.020  0.00  0.00    +0.000 A 
ATOM     17  C   UNL     1       3.299   5.327  17.649  0.00  0.00    +0.000 A 
ATOM     18 CL   UNL     1       1.868   4.544  18.207  0.00  0.00    +0.000 Cl
BRANCH  15  19
ATOM     19  C   UNL     1       6.542   4.379  15.895  0.00  0.00    +0.000 C 
ATOM     20  F   UNL     1       6.126   3.169  15.434  0.00  0.00    +0.000 F 
ATOM     21  F   UNL     1       7.066   5.031  14.822  0.00  0.00    +0.000 F 
ATOM     22  F   UNL     1       7.587   4.125  16.728  0.00  0.00    +0.000 F 
ENDBRANCH  15  19
ENDBRANCH   6  12
TORSDOF 2
ENDMDL
MODEL 2
REMARK VINA RESULT:      -7.7      0.972      1.922
REMARK  Name = 
REMARK  3 active torsions:
REMARK  status: ('A' for Active; 'I' for Inactive)
REMARK    1  A    between atoms: C_1  and  C_2
REMARK    2  A    between atoms: C_6  and  C_7
REMARK    3  A    between atoms: C_10  and  C_11
REMARK                            x       y       z     vdW  Elec       q    Type
REMARK                         _______ _______ _______ _____ _____    ______ ____
ROOT
ATOM      1  C   UNL     1      -1.026  12.010  19.789  0.00  0.00    +0.000 C 
ATOM      2  C   UNL     1      -0.152  10.810  19.779  0.00  0.00    +0.000 A 
ATOM      3  N   UNL     1       0.512  10.471  18.666  0.00  0.00    +0.000 NA
ATOM      4  N   UNL     1       1.195   9.343  18.998  0.00  0.00    +0.000 N 
ATOM      5  C   UNL     1       2.016   8.580  18.174  0.00  0.00    +0.000 A 
ATOM      6  C   UNL     1       2.607   7.471  18.647  0.00  0.00    +0.000 A 
ATOM      7  C   UNL     1       2.331   7.174  20.084  0.00  0.00    +0.000 A 
ATOM      8  N   UNL     1       1.565   7.861  20.881  0.00  0.00    +0.000 NA
ATOM      9  C   UNL     1       0.972   8.967  20.329  0.00  0.00    +0.000 A 
ATOM     10  C   UNL     1       0.104   9.907  20.825  0.00  0.00    +0.000 A 
ATOM     11 BR   UNL     1      -0.616   9.992  22.551  0.00  0.00    +0.000 Br
ENDROOT
BRANCH   6  12
ATOM     12  C   UNL     1       3.454   6.590  17.848  0.00  0.00    +0.000 A 
ATOM     13  N   UNL     1       4.553   7.187  17.318  0.00  0.00    +0.000 NA
ATOM     14  C   UNL     1       5.400   6.417  16.592  0.00  0.00    +0.000 A 
ATOM     15  C   UNL     1       5.215   5.061  16.370  0.00  0.00    +0.000 A 
ATOM     16  C   UNL     1       4.075   4.465  16.923  0.00  0.00    +0.000 A 
ATOM     17  C   UNL     1       3.181   5.232  17.670  0.00  0.00    +0.000 A 
ATOM     18 CL   UNL     1       1.794   4.463  18.347  0.00  0.00    +0.000 Cl
BRANCH  15  19
ATOM     19  C   UNL     1       6.207   4.270  15.570  0.00  0.00    +0.000 C 
ATOM     20  F   UNL     1       6.353   4.715  14.293  0.00  0.00    +0.000 F 
ATOM     21  F   UNL     1       7.449   4.293  16.122  0.00  0.00    +0.000 F 
ATOM     22  F   UNL     1       5.862   2.957  15.473  0.00  0.00    +0.000 F 
ENDBRANCH  15  19
ENDBRANCH   6  12
TORSDOF 2
ENDMDL
MODEL 3
REMARK VINA RESULT:      -6.8      1.261      1.571
REMARK  Name = 
REMARK  3 active torsions:
REMARK  status: ('A' for Active; 'I' for Inactive)
REMARK    1  A    between atoms: C_1  and  C_2
REMARK    2  A    between atoms: C_6  and  C_7
REMARK    3  A    between atoms: C_10  and  C_11
REMARK                            x       y       z     vdW  Elec       q    Type
REMARK                         _______ _______ _______ _____ _____    ______ ____
ROOT
ATOM      1  C   UNL     1      -1.183  11.374  22.979  0.00  0.00    +0.000 C 
ATOM      2  C   UNL     1      -0.538  10.764  21.790  0.00  0.00    +0.000 A 
ATOM      3  N   UNL     1       0.232   9.676  21.926  0.00  0.00    +0.000 NA
ATOM      4  N   UNL     1       0.660   9.394  20.667  0.00  0.00    +0.000 N 
ATOM      5  C   UNL     1       1.515   8.367  20.277  0.00  0.00    +0.000 A 
ATOM      6  C   UNL     1       1.866   8.232  18.988  0.00  0.00    +0.000 A 
ATOM      7  C   UNL     1       1.253   9.228  18.060  0.00  0.00    +0.000 A 
ATOM      8  N   UNL     1       0.457  10.203  18.390  0.00  0.00    +0.000 NA
ATOM      9  C   UNL     1       0.158  10.300  19.724  0.00  0.00    +0.000 A 
ATOM     10  C   UNL     1      -0.607  11.180  20.449  0.00  0.00    +0.000 A 
ATOM     11 BR   UNL     1      -1.561  12.656  19.804  0.00  0.00    +0.000 Br
ENDROOT
BRANCH   6  12
ATOM     12  C   UNL     1       2.784   7.210  18.491  0.00  0.00    +0.000 A 
ATOM     13  N   UNL     1       3.621   7.630  17.507  0.00  0.00    +0.000 NA
ATOM     14  C   UNL     1       4.521   6.740  17.024  0.00  0.00    +0.000 A 
ATOM     15  C   UNL     1       4.643   5.437  17.481  0.00  0.00    +0.000 A 
ATOM     16  C   UNL     1       3.770   5.023  18.495  0.00  0.00    +0.000 A 
ATOM     17  C   UNL     1       2.827   5.914  19.009  0.00  0.00    +0.000 A 
ATOM     18 CL   UNL     1       1.777   5.375  20.265  0.00  0.00    +0.000 Cl
BRANCH  15  19
ATOM     19  C   UNL     1       5.678   4.514  16.909  0.00  0.00    +0.000 C 
ATOM     20  F   UNL     1       6.700   4.247  17.766  0.00  0.00    +0.000 F 
ATOM     21  F   UNL     1       5.155   3.308  16.559  0.00  0.00    +0.000 F 
ATOM     22  F   UNL     1       6.253   5.016  15.783  0.00  0.00    +0.000 F 
ENDBRANCH  15  19
ENDBRANCH   6  12
TORSDOF 2
ENDMDL
MODEL 4
REMARK VINA RESULT:      -6.7      5.757      8.197
REMARK  Name = 
REMARK  3 active torsions:
REMARK  status: ('A' for Active; 'I' for Inactive)
REMARK    1  A    between atoms: C_1  and  C_2
REMARK    2  A    between atoms: C_6  and  C_7
REMARK    3  A    between atoms: C_10  and  C_11
REMARK                            x       y       z     vdW  Elec       q    Type
REMARK                         _______ _______ _______ _____ _____    ______ ____
ROOT
ATOM      1  C   UNL     1       7.025   3.821  11.195  0.00  0.00    +0.000 C 
ATOM      2  C   UNL     1       6.810   4.126  12.632  0.00  0.00    +0.000 A 
ATOM      3  N   UNL     1       5.807   3.544  13.301  0.00  0.00    +0.000 NA
ATOM      4  N   UNL     1       5.894   4.044  14.562  0.00  0.00    +0.000 N 
ATOM      5  C   UNL     1       5.054   3.771  15.638  0.00  0.00    +0.000 A 
ATOM      6  C   UNL     1       5.258   4.366  16.824  0.00  0.00    +0.000 A 
ATOM      7  C   UNL     1       6.438   5.281  16.875  0.00  0.00    +0.000 A 
ATOM      8  N   UNL     1       7.238   5.564  15.890  0.00  0.00    +0.000 NA
ATOM      9  C   UNL     1       6.960   4.942  14.700  0.00  0.00    +0.000 A 
ATOM     10  C   UNL     1       7.542   4.995  13.458  0.00  0.00    +0.000 A 
ATOM     11 BR   UNL     1       9.021   6.021  12.939  0.00  0.00    +0.000 Br
ENDROOT
BRANCH   6  12
ATOM     12  C   UNL     1       4.409   4.170  17.997  0.00  0.00    +0.000 A 
ATOM     13  N   UNL     1       4.518   2.947  18.577  0.00  0.00    +0.000 NA
ATOM     14  C   UNL     1       3.782   2.711  19.689  0.00  0.00    +0.000 A 
ATOM     15  C   UNL     1       2.937   3.643  20.271  0.00  0.00    +0.000 A 
ATOM     16  C   UNL     1       2.838   4.898  19.657  0.00  0.00    +0.000 A 
ATOM     17  C   UNL     1       3.578   5.170  18.506  0.00  0.00    +0.000 A 
ATOM     18 CL   UNL     1       3.441   6.728  17.783  0.00  0.00    +0.000 Cl
BRANCH  15  19
ATOM     19  C   UNL     1       2.167   3.314  21.515  0.00  0.00    +0.000 C 
ATOM     20  F   UNL     1       0.828   3.195  21.309  0.00  0.00    +0.000 F 
ATOM     21  F   UNL     1       2.568   2.140  22.075  0.00  0.00    +0.000 F 
ATOM     22  F   UNL     1       2.316   4.261  22.481  0.00  0.00    +0.000 F 
ENDBRANCH  15  19
ENDBRANCH   6  12
TORSDOF 2
ENDMDL
MODEL 5
REMARK VINA RESULT:      -6.6      2.502      3.046
REMARK  Name = 
REMARK  3 active torsions:
REMARK  status: ('A' for Active; 'I' for Inactive)
REMARK    1  A    between atoms: C_1  and  C_2
REMARK    2  A    between atoms: C_6  and  C_7
REMARK    3  A    between atoms: C_10  and  C_11
REMARK                            x       y       z     vdW  Elec       q    Type
REMARK                         _______ _______ _______ _____ _____    ______ ____
ROOT
ATOM      1  C   UNL     1      -0.256  12.402  21.852  0.00  0.00    +0.000 C 
ATOM      2  C   UNL     1       0.318  11.376  20.946  0.00  0.00    +0.000 A 
ATOM      3  N   UNL     1       0.532  10.130  21.390  0.00  0.00    +0.000 NA
ATOM      4  N   UNL     1       1.060   9.468  20.327  0.00  0.00    +0.000 N 
ATOM      5  C   UNL     1       1.484   8.143  20.284  0.00  0.00    +0.000 A 
ATOM      6  C   UNL     1       2.009   7.637  19.157  0.00  0.00    +0.000 A 
ATOM      7  C   UNL     1       2.060   8.585  18.004  0.00  0.00    +0.000 A 
ATOM      8  N   UNL     1       1.679   9.829  18.010  0.00  0.00    +0.000 NA
ATOM      9  C   UNL     1       1.176  10.291  19.199  0.00  0.00    +0.000 A 
ATOM     10  C   UNL     1       0.703  11.514  19.601  0.00  0.00    +0.000 A 
ATOM     11 BR   UNL     1       0.587  13.080  18.580  0.00  0.00    +0.000 Br
ENDROOT
BRANCH   6  12
ATOM     12  C   UNL     1       2.513   6.272  19.028  0.00  0.00    +0.000 A 
ATOM     13  N   UNL     1       1.829   5.345  19.747  0.00  0.00    +0.000 NA
ATOM     14  C   UNL     1       2.225   4.053  19.647  0.00  0.00    +0.000 A 
ATOM     15  C   UNL     1       3.275   3.625  18.850  0.00  0.00    +0.000 A 
ATOM     16  C   UNL     1       3.969   4.596  18.118  0.00  0.00    +0.000 A 
ATOM     17  C   UNL     1       3.590   5.936  18.205  0.00  0.00    +0.000 A 
ATOM     18 CL   UNL     1       4.458   7.103  17.281  0.00  0.00    +0.000 Cl
BRANCH  15  19
ATOM     19  C   UNL     1       3.643   2.173  18.777  0.00  0.00    +0.000 C 
ATOM     20  F   UNL     1       2.607   1.335  19.048  0.00  0.00    +0.000 F 
ATOM     21  F   UNL     1       4.102   1.819  17.546  0.00  0.00    +0.000 F 
ATOM     22  F   UNL     1       4.631   1.844  19.654  0.00  0.00    +0.000 F 
ENDBRANCH  15  19
ENDBRANCH   6  12
TORSDOF 2
ENDMDL
MODEL 6
REMARK VINA RESULT:      -6.6      2.625      3.715
REMARK  Name = 
REMARK  3 active torsions:
REMARK  status: ('A' for Active; 'I' for Inactive)
REMARK    1  A    between atoms: C_1  and  C_2
REMARK    2  A    between atoms: C_6  and  C_7
REMARK    3  A    between atoms: C_10  and  C_11
REMARK                            x       y       z     vdW  Elec       q    Type
REMARK                         _______ _______ _______ _____ _____    ______ ____
ROOT
ATOM      1  C   UNL     1      -0.296  13.442  19.082  0.00  0.00    +0.000 C 
ATOM      2  C   UNL     1       0.111  12.117  19.612  0.00  0.00    +0.000 A 
ATOM      3  N   UNL     1       0.722  11.231  18.814  0.00  0.00    +0.000 NA
ATOM      4  N   UNL     1       0.942  10.146  19.603  0.00  0.00    +0.000 N 
ATOM      5  C   UNL     1       1.527   8.939  19.233  0.00  0.00    +0.000 A 
ATOM      6  C   UNL     1       1.654   7.946  20.128  0.00  0.00    +0.000 A 
ATOM      7  C   UNL     1       1.157   8.266  21.499  0.00  0.00    +0.000 A 
ATOM      8  N   UNL     1       0.600   9.379  21.877  0.00  0.00    +0.000 NA
ATOM      9  C   UNL     1       0.477  10.342  20.909  0.00  0.00    +0.000 A 
ATOM     10  C   UNL     1      -0.059  11.606  20.910  0.00  0.00    +0.000 A 
ATOM     11 BR   UNL     1      -0.868  12.496  22.345  0.00  0.00    +0.000 Br
ENDROOT
BRANCH   6  12
ATOM     12  C   UNL     1       2.220   6.634  19.822  0.00  0.00    +0.000 A 
ATOM     13  N   UNL     1       1.870   5.650  20.690  0.00  0.00    +0.000 NA
ATOM     14  C   UNL     1       2.334   4.401  20.445  0.00  0.00    +0.000 A 
ATOM     15  C   UNL     1       3.133   4.070  19.362  0.00  0.00    +0.000 A 
ATOM     16  C   UNL     1       3.485   5.100  18.480  0.00  0.00    +0.000 A 
ATOM     17  C   UNL     1       3.028   6.398  18.708  0.00  0.00    +0.000 A 
ATOM     18 CL   UNL     1       3.470   7.639  17.596  0.00  0.00    +0.000 Cl
BRANCH  15  19
ATOM     19  C   UNL     1       3.595   2.660  19.147  0.00  0.00    +0.000 C 
ATOM     20  F   UNL     1       4.034   2.419  17.882  0.00  0.00    +0.000 F 
ATOM     21  F   UNL     1       4.621   2.321  19.973  0.00  0.00    +0.000 F 
ATOM     22  F   UNL     1       2.608   1.752  19.381  0.00  0.00    +0.000 F 
ENDBRANCH  15  19
ENDBRANCH   6  12
TORSDOF 2
ENDMDL
MODEL 7
REMARK VINA RESULT:      -6.6      5.608      7.927
REMARK  Name = 
REMARK  3 active torsions:
REMARK  status: ('A' for Active; 'I' for Inactive)
REMARK    1  A    between atoms: C_1  and  C_2
REMARK    2  A    between atoms: C_6  and  C_7
REMARK    3  A    between atoms: C_10  and  C_11
REMARK                            x       y       z     vdW  Elec       q    Type
REMARK                         _______ _______ _______ _____ _____    ______ ____
ROOT
ATOM      1  C   UNL     1       3.911   1.647  18.322  0.00  0.00    +0.000 C 
ATOM      2  C   UNL     1       3.672   3.110  18.392  0.00  0.00    +0.000 A 
ATOM      3  N   UNL     1       2.836   3.612  19.310  0.00  0.00    +0.000 NA
ATOM      4  N   UNL     1       2.845   4.954  19.092  0.00  0.00    +0.000 N 
ATOM      5  C   UNL     1       2.113   5.924  19.769  0.00  0.00    +0.000 A 
ATOM      6  C   UNL     1       2.213   7.216  19.418  0.00  0.00    +0.000 A 
ATOM      7  C   UNL     1       3.167   7.493  18.303  0.00  0.00    +0.000 A 
ATOM      8  N   UNL     1       3.862   6.612  17.645  0.00  0.00    +0.000 NA
ATOM      9  C   UNL     1       3.694   5.309  18.036  0.00  0.00    +0.000 A 
ATOM     10  C   UNL     1       4.219   4.123  17.587  0.00  0.00    +0.000 A 
ATOM     11 BR   UNL     1       5.427   3.876  16.177  0.00  0.00    +0.000 Br
ENDROOT
BRANCH   6  12
ATOM     12  C   UNL     1       1.457   8.297  20.045  0.00  0.00    +0.000 A 
ATOM     13  N   UNL     1       1.261   8.150  21.381  0.00  0.00    +0.000 NA
ATOM     14  C   UNL     1       0.595   9.135  22.031  0.00  0.00    +0.000 A 
ATOM     15  C   UNL     1       0.115  10.281  21.417  0.00  0.00    +0.000 A 
ATOM     16  C   UNL     1       0.326  10.412  20.039  0.00  0.00    +0.000 A 
ATOM     17  C   UNL     1       1.002   9.412  19.340  0.00  0.00    +0.000 A 
ATOM     18 CL   UNL     1       1.255   9.613  17.646  0.00  0.00    +0.000 Cl
BRANCH  15  19
ATOM     19  C   UNL     1      -0.598  11.337  22.208  0.00  0.00    +0.000 C 
ATOM     20  F   UNL     1       0.074  12.518  22.265  0.00  0.00    +0.000 F 
ATOM     21  F   UNL     1      -1.824  11.626  21.694  0.00  0.00    +0.000 F 
ATOM     22  F   UNL     1      -0.810  10.962  23.499  0.00  0.00    +0.000 F 
ENDBRANCH  15  19
ENDBRANCH   6  12
TORSDOF 2
ENDMDL
MODEL 8
REMARK VINA RESULT:      -6.5      1.553      2.393
REMARK  Name = 
REMARK  3 active torsions:
REMARK  status: ('A' for Active; 'I' for Inactive)
REMARK    1  A    between atoms: C_1  and  C_2
REMARK    2  A    between atoms: C_6  and  C_7
REMARK    3  A    between atoms: C_10  and  C_11
REMARK                            x       y       z     vdW  Elec       q    Type
REMARK                         _______ _______ _______ _____ _____    ______ ____
ROOT
ATOM      1  C   UNL     1      -2.276  12.388  19.524  0.00  0.00    +0.000 C 
ATOM      2  C   UNL     1      -1.250  11.340  19.749  0.00  0.00    +0.000 A 
ATOM      3  N   UNL     1      -0.636  10.764  18.707  0.00  0.00    +0.000 NA
ATOM      4  N   UNL     1       0.218   9.863  19.260  0.00  0.00    +0.000 N 
ATOM      5  C   UNL     1       1.068   8.985  18.594  0.00  0.00    +0.000 A 
ATOM      6  C   UNL     1       1.840   8.133  19.287  0.00  0.00    +0.000 A 
ATOM      7  C   UNL     1       1.722   8.241  20.771  0.00  0.00    +0.000 A 
ATOM      8  N   UNL     1       0.935   9.043  21.427  0.00  0.00    +0.000 NA
ATOM      9  C   UNL     1       0.155   9.869  20.660  0.00  0.00    +0.000 A 
ATOM     10  C   UNL     1      -0.791  10.814  20.969  0.00  0.00    +0.000 A 
ATOM     11 BR   UNL     1      -1.377  11.321  22.674  0.00  0.00    +0.000 Br
ENDROOT
BRANCH   6  12
ATOM     12  C   UNL     1       2.734   7.153  18.674  0.00  0.00    +0.000 A 
ATOM     13  N   UNL     1       3.504   7.641  17.668  0.00  0.00    +0.000 NA
ATOM     14  C   UNL     1       4.380   6.791  17.078  0.00  0.00    +0.000 A 
ATOM     15  C   UNL     1       4.540   5.465  17.447  0.00  0.00    +0.000 A 
ATOM     16  C   UNL     1       3.735   4.982  18.486  0.00  0.00    +0.000 A 
ATOM     17  C   UNL     1       2.819   5.829  19.109  0.00  0.00    +0.000 A 
ATOM     18 CL   UNL     1       1.852   5.204  20.392  0.00  0.00    +0.000 Cl
BRANCH  15  19
ATOM     19  C   UNL     1       5.545   4.590  16.759  0.00  0.00    +0.000 C 
ATOM     20  F   UNL     1       5.964   5.081  15.562  0.00  0.00    +0.000 F 
ATOM     21  F   UNL     1       6.667   4.407  17.505  0.00  0.00    +0.000 F 
ATOM     22  F   UNL     1       5.057   3.345  16.504  0.00  0.00    +0.000 F 
ENDBRANCH  15  19
ENDBRANCH   6  12
TORSDOF 2
ENDMDL
MODEL 9
REMARK VINA RESULT:      -6.4      5.690      8.196
REMARK  Name = 
REMARK  3 active torsions:
REMARK  status: ('A' for Active; 'I' for Inactive)
REMARK    1  A    between atoms: C_1  and  C_2
REMARK    2  A    between atoms: C_6  and  C_7
REMARK    3  A    between atoms: C_10  and  C_11
REMARK                            x       y       z     vdW  Elec       q    Type
REMARK                         _______ _______ _______ _____ _____    ______ ____
ROOT
ATOM      1  C   UNL     1       5.546   4.136  16.876  0.00  0.00    +0.000 C 
ATOM      2  C   UNL     1       4.560   4.713  17.823  0.00  0.00    +0.000 A 
ATOM      3  N   UNL     1       4.191   5.996  17.712  0.00  0.00    +0.000 NA
ATOM      4  N   UNL     1       3.302   6.191  18.722  0.00  0.00    +0.000 N 
ATOM      5  C   UNL     1       2.648   7.374  19.054  0.00  0.00    +0.000 A 
ATOM      6  C   UNL     1       1.810   7.413  20.102  0.00  0.00    +0.000 A 
ATOM      7  C   UNL     1       1.637   6.114  20.818  0.00  0.00    +0.000 A 
ATOM      8  N   UNL     1       2.235   4.994  20.540  0.00  0.00    +0.000 NA
ATOM      9  C   UNL     1       3.097   5.028  19.474  0.00  0.00    +0.000 A 
ATOM     10  C   UNL     1       3.909   4.083  18.898  0.00  0.00    +0.000 A 
ATOM     11 BR   UNL     1       4.129   2.299  19.423  0.00  0.00    +0.000 Br
ENDROOT
BRANCH   6  12
ATOM     12  C   UNL     1       1.109   8.615  20.547  0.00  0.00    +0.000 A 
ATOM     13  N   UNL     1       0.946   8.710  21.892  0.00  0.00    +0.000 NA
ATOM     14  C   UNL     1       0.332   9.818  22.374  0.00  0.00    +0.000 A 
ATOM     15  C   UNL     1      -0.126  10.857  21.579  0.00  0.00    +0.000 A 
ATOM     16  C   UNL     1       0.050  10.739  20.195  0.00  0.00    +0.000 A 
ATOM     17  C   UNL     1       0.672   9.607  19.667  0.00  0.00    +0.000 A 
ATOM     18 CL   UNL     1       0.884   9.500  17.960  0.00  0.00    +0.000 Cl
BRANCH  15  19
ATOM     19  C   UNL     1      -0.780  12.062  22.188  0.00  0.00    +0.000 C 
ATOM     20  F   UNL     1      -1.212  11.859  23.462  0.00  0.00    +0.000 F 
ATOM     21  F   UNL     1       0.057  13.132  22.239  0.00  0.00    +0.000 F 
ATOM     22  F   UNL     1      -1.870  12.470  21.483  0.00  0.00    +0.000 F 
ENDBRANCH  15  19
ENDBRANCH   6  12
TORSDOF 2
ENDMDL
