MODEL 1
REMARK VINA RESULT:      -7.9      0.000      0.000
REMARK  Name = 
REMARK  4 active torsions:
REMARK  status: ('A' for Active; 'I' for Inactive)
REMARK    1  A    between atoms: C_2  and  C_11
REMARK    2  A    between atoms: N_3  and  C_4
REMARK    3  A    between atoms: N_16  and  C_17
REMARK    4  A    between atoms: C_17  and  C_18
REMARK                            x       y       z     vdW  Elec       q    Type
REMARK                         _______ _______ _______ _____ _____    ______ ____
ROOT
ATOM      1  C   UNL     1       2.261   3.485  19.247  0.00  0.00    +0.000 C 
ATOM      2  C   UNL     1       1.982   3.485  20.750  0.00  0.00    +0.000 C 
ATOM      3  C   UNL     1       2.923   2.420  21.288  0.00  0.00    +0.000 C 
ATOM      4  C   UNL     1       4.093   2.499  20.343  0.00  0.00    +0.000 C 
ATOM      5  O   UNL     1       5.200   2.027  20.552  0.00  0.00    +0.000 OA
ATOM      6  N   UNL     1       3.674   3.148  19.185  0.00  0.00    +0.000 N 
ENDROOT
BRANCH   1   8
ATOM      7  O   UNL     1       1.354   4.944  17.573  0.00  0.00    +0.000 OA
ATOM      8  C   UNL     1       1.935   4.861  18.650  0.00  0.00    +0.000 C 
ATOM      9  N   UNL     1       2.243   5.910  19.508  0.00  0.00    +0.000 N 
ATOM     10  H   UNL     1       2.768   5.661  20.339  0.00  0.00    +0.000 HD
BRANCH   9  11
ATOM     11  C   UNL     1       2.006   7.280  19.296  0.00  0.00    +0.000 A 
ATOM     12  C   UNL     1       2.328   7.940  18.105  0.00  0.00    +0.000 A 
ATOM     13  C   UNL     1       2.108   9.313  17.972  0.00  0.00    +0.000 A 
ATOM     14  C   UNL     1       1.559  10.032  19.030  0.00  0.00    +0.000 A 
ATOM     15 BR   UNL     1       1.300  11.894  18.859  0.00  0.00    +0.000 Br
ATOM     16  C   UNL     1       1.208   9.384  20.212  0.00  0.00    +0.000 A 
ATOM     17  C   UNL     1       1.426   8.009  20.341  0.00  0.00    +0.000 A 
ENDBRANCH   9  11
ENDBRANCH   1   8
BRANCH   6  18
ATOM     18  C   UNL     1       4.429   3.117  17.933  0.00  0.00    +0.000 C 
BRANCH  18  19
ATOM     19  C   UNL     1       5.443   4.230  17.797  0.00  0.00    +0.000 A 
ATOM     20  C   UNL     1       5.885   4.890  18.960  0.00  0.00    +0.000 A 
ATOM     21  C   UNL     1       6.819   5.925  18.901  0.00  0.00    +0.000 A 
ATOM     22  C   UNL     1       7.327   6.333  17.673  0.00  0.00    +0.000 A 
ATOM     23  C   UNL     1       6.886   5.714  16.505  0.00  0.00    +0.000 A 
ATOM     24  C   UNL     1       5.950   4.673  16.563  0.00  0.00    +0.000 A 
ATOM     25 CL   UNL     1       5.438   3.994  15.059  0.00  0.00    +0.000 Cl
ENDBRANCH  18  19
ENDBRANCH   6  18
TORSDOF 4
ENDMDL
MODEL 2
REMARK VINA RESULT:      -7.7      3.300      5.830
REMARK  Name = 
REMARK  4 active torsions:
REMARK  status: ('A' for Active; 'I' for Inactive)
REMARK    1  A    between atoms: C_2  and  C_11
REMARK    2  A    between atoms: N_3  and  C_4
REMARK    3  A    between atoms: N_16  and  C_17
REMARK    4  A    between atoms: C_17  and  C_18
REMARK                            x       y       z     vdW  Elec       q    Type
REMARK                         _______ _______ _______ _____ _____    ______ ____
ROOT
ATOM      1  C   UNL     1       3.780   3.138  19.610  0.00  0.00    +0.000 C 
ATOM      2  C   UNL     1       3.083   2.009  18.851  0.00  0.00    +0.000 C 
ATOM      3  C   UNL     1       1.676   2.006  19.425  0.00  0.00    +0.000 C 
ATOM      4  C   UNL     1       1.456   3.454  19.776  0.00  0.00    +0.000 C 
ATOM      5  O   UNL     1       0.371   3.966  20.004  0.00  0.00    +0.000 OA
ATOM      6  N   UNL     1       2.698   4.079  19.845  0.00  0.00    +0.000 N 
ENDROOT
BRANCH   1   8
ATOM      7  O   UNL     1       5.984   4.030  19.291  0.00  0.00    +0.000 OA
ATOM      8  C   UNL     1       4.921   3.718  18.764  0.00  0.00    +0.000 C 
ATOM      9  N   UNL     1       4.645   3.706  17.402  0.00  0.00    +0.000 N 
ATOM     10  H   UNL     1       3.694   3.463  17.146  0.00  0.00    +0.000 HD
BRANCH   9  11
ATOM     11  C   UNL     1       5.499   4.099  16.357  0.00  0.00    +0.000 A 
ATOM     12  C   UNL     1       6.618   4.917  16.546  0.00  0.00    +0.000 A 
ATOM     13  C   UNL     1       7.404   5.309  15.459  0.00  0.00    +0.000 A 
ATOM     14  C   UNL     1       7.075   4.880  14.177  0.00  0.00    +0.000 A 
ATOM     15 BR   UNL     1       8.117   5.444  12.707  0.00  0.00    +0.000 Br
ATOM     16  C   UNL     1       5.980   4.043  13.975  0.00  0.00    +0.000 A 
ATOM     17  C   UNL     1       5.198   3.649  15.066  0.00  0.00    +0.000 A 
ENDBRANCH   9  11
ENDBRANCH   1   8
BRANCH   6  18
ATOM     18  C   UNL     1       2.902   5.384  20.474  0.00  0.00    +0.000 C 
BRANCH  18  19
ATOM     19  C   UNL     1       2.656   6.558  19.551  0.00  0.00    +0.000 A 
ATOM     20  C   UNL     1       3.279   6.569  18.289  0.00  0.00    +0.000 A 
ATOM     21  C   UNL     1       3.092   7.623  17.393  0.00  0.00    +0.000 A 
ATOM     22  C   UNL     1       2.284   8.698  17.744  0.00  0.00    +0.000 A 
ATOM     23  C   UNL     1       1.678   8.724  18.998  0.00  0.00    +0.000 A 
ATOM     24  C   UNL     1       1.863   7.665  19.898  0.00  0.00    +0.000 A 
ATOM     25 CL   UNL     1       1.100   7.805  21.441  0.00  0.00    +0.000 Cl
ENDBRANCH  18  19
ENDBRANCH   6  18
TORSDOF 4
ENDMDL
MODEL 3
REMARK VINA RESULT:      -7.5      1.521      2.148
REMARK  Name = 
REMARK  4 active torsions:
REMARK  status: ('A' for Active; 'I' for Inactive)
REMARK    1  A    between atoms: C_2  and  C_11
REMARK    2  A    between atoms: N_3  and  C_4
REMARK    3  A    between atoms: N_16  and  C_17
REMARK    4  A    between atoms: C_17  and  C_18
REMARK                            x       y       z     vdW  Elec       q    Type
REMARK                         _______ _______ _______ _____ _____    ______ ____
ROOT
ATOM      1  C   UNL     1       2.618   4.252  19.007  0.00  0.00    +0.000 C 
ATOM      2  C   UNL     1       1.764   3.098  19.528  0.00  0.00    +0.000 C 
ATOM      3  C   UNL     1       2.719   1.916  19.526  0.00  0.00    +0.000 C 
ATOM      4  C   UNL     1       4.051   2.563  19.794  0.00  0.00    +0.000 C 
ATOM      5  O   UNL     1       5.059   1.975  20.156  0.00  0.00    +0.000 OA
ATOM      6  N   UNL     1       3.941   3.921  19.509  0.00  0.00    +0.000 N 
ENDROOT
BRANCH   1   8
ATOM      7  O   UNL     1       1.658   5.671  20.686  0.00  0.00    +0.000 OA
ATOM      8  C   UNL     1       2.081   5.588  19.538  0.00  0.00    +0.000 C 
ATOM      9  N   UNL     1       2.262   6.637  18.645  0.00  0.00    +0.000 N 
ATOM     10  H   UNL     1       2.581   6.378  17.718  0.00  0.00    +0.000 HD
BRANCH   9  11
ATOM     11  C   UNL     1       1.947   7.992  18.849  0.00  0.00    +0.000 A 
ATOM     12  C   UNL     1       1.378   8.480  20.030  0.00  0.00    +0.000 A 
ATOM     13  C   UNL     1       1.048   9.831  20.155  0.00  0.00    +0.000 A 
ATOM     14  C   UNL     1       1.291  10.704  19.099  0.00  0.00    +0.000 A 
ATOM     15 BR   UNL     1       0.807  12.522  19.258  0.00  0.00    +0.000 Br
ATOM     16  C   UNL     1       1.883  10.240  17.926  0.00  0.00    +0.000 A 
ATOM     17  C   UNL     1       2.216   8.887  17.806  0.00  0.00    +0.000 A 
ENDBRANCH   9  11
ENDBRANCH   1   8
BRANCH   6  18
ATOM     18  C   UNL     1       5.099   4.798  19.336  0.00  0.00    +0.000 C 
BRANCH  18  19
ATOM     19  C   UNL     1       5.623   4.854  17.917  0.00  0.00    +0.000 A 
ATOM     20  C   UNL     1       4.902   4.196  16.903  0.00  0.00    +0.000 A 
ATOM     21  C   UNL     1       5.333   4.210  15.575  0.00  0.00    +0.000 A 
ATOM     22  C   UNL     1       6.504   4.877  15.232  0.00  0.00    +0.000 A 
ATOM     23  C   UNL     1       7.249   5.513  16.222  0.00  0.00    +0.000 A 
ATOM     24  C   UNL     1       6.817   5.502  17.556  0.00  0.00    +0.000 A 
ATOM     25 CL   UNL     1       7.827   6.287  18.715  0.00  0.00    +0.000 Cl
ENDBRANCH  18  19
ENDBRANCH   6  18
TORSDOF 4
ENDMDL
MODEL 4
REMARK VINA RESULT:      -7.5      1.649      2.416
REMARK  Name = 
REMARK  4 active torsions:
REMARK  status: ('A' for Active; 'I' for Inactive)
REMARK    1  A    between atoms: C_2  and  C_11
REMARK    2  A    between atoms: N_3  and  C_4
REMARK    3  A    between atoms: N_16  and  C_17
REMARK    4  A    between atoms: C_17  and  C_18
REMARK                            x       y       z     vdW  Elec       q    Type
REMARK                         _______ _______ _______ _____ _____    ______ ____
ROOT
ATOM      1  C   UNL     1       3.127   4.875  18.403  0.00  0.00    +0.000 C 
ATOM      2  C   UNL     1       1.971   4.130  19.069  0.00  0.00    +0.000 C 
ATOM      3  C   UNL     1       2.552   2.757  19.363  0.00  0.00    +0.000 C 
ATOM      4  C   UNL     1       4.009   3.055  19.602  0.00  0.00    +0.000 C 
ATOM      5  O   UNL     1       4.802   2.300  20.143  0.00  0.00    +0.000 OA
ATOM      6  N   UNL     1       4.293   4.303  19.056  0.00  0.00    +0.000 N 
ENDROOT
BRANCH   1   8
ATOM      7  O   UNL     1       3.552   7.178  17.887  0.00  0.00    +0.000 OA
ATOM      8  C   UNL     1       2.981   6.386  18.629  0.00  0.00    +0.000 C 
ATOM      9  N   UNL     1       2.067   6.698  19.627  0.00  0.00    +0.000 N 
ATOM     10  H   UNL     1       1.727   5.915  20.175  0.00  0.00    +0.000 HD
BRANCH   9  11
ATOM     11  C   UNL     1       1.652   7.979  20.031  0.00  0.00    +0.000 A 
ATOM     12  C   UNL     1       1.398   8.320  21.364  0.00  0.00    +0.000 A 
ATOM     13  C   UNL     1       0.947   9.599  21.697  0.00  0.00    +0.000 A 
ATOM     14  C   UNL     1       0.751  10.547  20.696  0.00  0.00    +0.000 A 
ATOM     15 BR   UNL     1       0.103  12.262  21.147  0.00  0.00    +0.000 Br
ATOM     16  C   UNL     1       1.026  10.232  19.368  0.00  0.00    +0.000 A 
ATOM     17  C   UNL     1       1.482   8.951  19.038  0.00  0.00    +0.000 A 
ENDBRANCH   9  11
ENDBRANCH   1   8
BRANCH   6  18
ATOM     18  C   UNL     1       5.655   4.775  18.807  0.00  0.00    +0.000 C 
BRANCH  18  19
ATOM     19  C   UNL     1       6.050   4.771  17.346  0.00  0.00    +0.000 A 
ATOM     20  C   UNL     1       5.562   3.744  16.516  0.00  0.00    +0.000 A 
ATOM     21  C   UNL     1       5.891   3.685  15.161  0.00  0.00    +0.000 A 
ATOM     22  C   UNL     1       6.726   4.647  14.605  0.00  0.00    +0.000 A 
ATOM     23  C   UNL     1       7.244   5.658  15.412  0.00  0.00    +0.000 A 
ATOM     24  C   UNL     1       6.914   5.720  16.773  0.00  0.00    +0.000 A 
ATOM     25 CL   UNL     1       7.634   6.988  17.698  0.00  0.00    +0.000 Cl
ENDBRANCH  18  19
ENDBRANCH   6  18
TORSDOF 4
ENDMDL
MODEL 5
REMARK VINA RESULT:      -7.4      1.620      2.222
REMARK  Name = 
REMARK  4 active torsions:
REMARK  status: ('A' for Active; 'I' for Inactive)
REMARK    1  A    between atoms: C_2  and  C_11
REMARK    2  A    between atoms: N_3  and  C_4
REMARK    3  A    between atoms: N_16  and  C_17
REMARK    4  A    between atoms: C_17  and  C_18
REMARK                            x       y       z     vdW  Elec       q    Type
REMARK                         _______ _______ _______ _____ _____    ______ ____
ROOT
ATOM      1  C   UNL     1       3.209   4.846  18.277  0.00  0.00    +0.000 C 
ATOM      2  C   UNL     1       2.064   4.125  18.985  0.00  0.00    +0.000 C 
ATOM      3  C   UNL     1       2.659   2.774  19.345  0.00  0.00    +0.000 C 
ATOM      4  C   UNL     1       4.114   3.097  19.561  0.00  0.00    +0.000 C 
ATOM      5  O   UNL     1       4.917   2.378  20.135  0.00  0.00    +0.000 OA
ATOM      6  N   UNL     1       4.384   4.319  18.951  0.00  0.00    +0.000 N 
ENDROOT
BRANCH   1   8
ATOM      7  O   UNL     1       3.650   7.126  17.674  0.00  0.00    +0.000 OA
ATOM      8  C   UNL     1       3.049   6.365  18.426  0.00  0.00    +0.000 C 
ATOM      9  N   UNL     1       2.092   6.718  19.370  0.00  0.00    +0.000 N 
ATOM     10  H   UNL     1       1.731   5.960  19.937  0.00  0.00    +0.000 HD
BRANCH   9  11
ATOM     11  C   UNL     1       1.658   8.015  19.696  0.00  0.00    +0.000 A 
ATOM     12  C   UNL     1       1.515   9.038  18.753  0.00  0.00    +0.000 A 
ATOM     13  C   UNL     1       1.120  10.319  19.148  0.00  0.00    +0.000 A 
ATOM     14  C   UNL     1       0.862  10.581  20.490  0.00  0.00    +0.000 A 
ATOM     15 BR   UNL     1       0.367  12.323  21.024  0.00  0.00    +0.000 Br
ATOM     16  C   UNL     1       0.973   9.566  21.437  0.00  0.00    +0.000 A 
ATOM     17  C   UNL     1       1.364   8.284  21.038  0.00  0.00    +0.000 A 
ENDBRANCH   9  11
ENDBRANCH   1   8
BRANCH   6  18
ATOM     18  C   UNL     1       5.739   4.791  18.671  0.00  0.00    +0.000 C 
BRANCH  18  19
ATOM     19  C   UNL     1       6.100   4.791  17.201  0.00  0.00    +0.000 A 
ATOM     20  C   UNL     1       5.636   3.738  16.390  0.00  0.00    +0.000 A 
ATOM     21  C   UNL     1       5.934   3.681  15.028  0.00  0.00    +0.000 A 
ATOM     22  C   UNL     1       6.715   4.673  14.446  0.00  0.00    +0.000 A 
ATOM     23  C   UNL     1       7.209   5.711  15.233  0.00  0.00    +0.000 A 
ATOM     24  C   UNL     1       6.908   5.771  16.601  0.00  0.00    +0.000 A 
ATOM     25 CL   UNL     1       7.596   7.076  17.499  0.00  0.00    +0.000 Cl
ENDBRANCH  18  19
ENDBRANCH   6  18
TORSDOF 4
ENDMDL
MODEL 6
REMARK VINA RESULT:      -7.2      1.429      2.118
REMARK  Name = 
REMARK  4 active torsions:
REMARK  status: ('A' for Active; 'I' for Inactive)
REMARK    1  A    between atoms: C_2  and  C_11
REMARK    2  A    between atoms: N_3  and  C_4
REMARK    3  A    between atoms: N_16  and  C_17
REMARK    4  A    between atoms: C_17  and  C_18
REMARK                            x       y       z     vdW  Elec       q    Type
REMARK                         _______ _______ _______ _____ _____    ______ ____
ROOT
ATOM      1  C   UNL     1       2.953   3.525  18.020  0.00  0.00    +0.000 C 
ATOM      2  C   UNL     1       2.093   2.397  18.587  0.00  0.00    +0.000 C 
ATOM      3  C   UNL     1       3.110   1.422  19.157  0.00  0.00    +0.000 C 
ATOM      4  C   UNL     1       4.236   2.325  19.583  0.00  0.00    +0.000 C 
ATOM      5  O   UNL     1       5.140   2.013  20.343  0.00  0.00    +0.000 OA
ATOM      6  N   UNL     1       4.091   3.543  18.924  0.00  0.00    +0.000 N 
ENDROOT
BRANCH   1   8
ATOM      7  O   UNL     1       1.080   4.903  17.434  0.00  0.00    +0.000 OA
ATOM      8  C   UNL     1       2.161   4.839  18.010  0.00  0.00    +0.000 C 
ATOM      9  N   UNL     1       2.736   5.824  18.803  0.00  0.00    +0.000 N 
ATOM     10  H   UNL     1       3.661   5.615  19.165  0.00  0.00    +0.000 HD
BRANCH   9  11
ATOM     11  C   UNL     1       2.231   7.110  19.064  0.00  0.00    +0.000 A 
ATOM     12  C   UNL     1       1.738   7.502  20.314  0.00  0.00    +0.000 A 
ATOM     13  C   UNL     1       1.208   8.782  20.498  0.00  0.00    +0.000 A 
ATOM     14  C   UNL     1       1.173   9.677  19.433  0.00  0.00    +0.000 A 
ATOM     15 BR   UNL     1       0.420  11.391  19.677  0.00  0.00    +0.000 Br
ATOM     16  C   UNL     1       1.685   9.311  18.191  0.00  0.00    +0.000 A 
ATOM     17  C   UNL     1       2.218   8.030  18.010  0.00  0.00    +0.000 A 
ENDBRANCH   9  11
ENDBRANCH   1   8
BRANCH   6  18
ATOM     18  C   UNL     1       5.162   4.535  18.834  0.00  0.00    +0.000 C 
BRANCH  18  19
ATOM     19  C   UNL     1       5.809   4.622  17.469  0.00  0.00    +0.000 A 
ATOM     20  C   UNL     1       5.304   3.819  16.429  0.00  0.00    +0.000 A 
ATOM     21  C   UNL     1       5.857   3.853  15.148  0.00  0.00    +0.000 A 
ATOM     22  C   UNL     1       6.939   4.685  14.880  0.00  0.00    +0.000 A 
ATOM     23  C   UNL     1       7.473   5.469  15.899  0.00  0.00    +0.000 A 
ATOM     24  C   UNL     1       6.918   5.438  17.186  0.00  0.00    +0.000 A 
ATOM     25 CL   UNL     1       7.673   6.418  18.391  0.00  0.00    +0.000 Cl
ENDBRANCH  18  19
ENDBRANCH   6  18
TORSDOF 4
ENDMDL
MODEL 7
REMARK VINA RESULT:      -7.2      1.217      1.603
REMARK  Name = 
REMARK  4 active torsions:
REMARK  status: ('A' for Active; 'I' for Inactive)
REMARK    1  A    between atoms: C_2  and  C_11
REMARK    2  A    between atoms: N_3  and  C_4
REMARK    3  A    between atoms: N_16  and  C_17
REMARK    4  A    between atoms: C_17  and  C_18
REMARK                            x       y       z     vdW  Elec       q    Type
REMARK                         _______ _______ _______ _____ _____    ______ ____
ROOT
ATOM      1  C   UNL     1       2.287   3.349  19.255  0.00  0.00    +0.000 C 
ATOM      2  C   UNL     1       2.062   3.412  20.765  0.00  0.00    +0.000 C 
ATOM      3  C   UNL     1       2.988   2.338  21.311  0.00  0.00    +0.000 C 
ATOM      4  C   UNL     1       4.124   2.344  20.323  0.00  0.00    +0.000 C 
ATOM      5  O   UNL     1       5.223   1.844  20.511  0.00  0.00    +0.000 OA
ATOM      6  N   UNL     1       3.685   2.964  19.157  0.00  0.00    +0.000 N 
ENDROOT
BRANCH   1   8
ATOM      7  O   UNL     1       1.417   4.773  17.532  0.00  0.00    +0.000 OA
ATOM      8  C   UNL     1       1.982   4.712  18.619  0.00  0.00    +0.000 C 
ATOM      9  N   UNL     1       2.289   5.780  19.454  0.00  0.00    +0.000 N 
ATOM     10  H   UNL     1       2.800   5.547  20.298  0.00  0.00    +0.000 HD
BRANCH   9  11
ATOM     11  C   UNL     1       2.069   7.146  19.204  0.00  0.00    +0.000 A 
ATOM     12  C   UNL     1       2.447   7.780  18.015  0.00  0.00    +0.000 A 
ATOM     13  C   UNL     1       2.240   9.151  17.845  0.00  0.00    +0.000 A 
ATOM     14  C   UNL     1       1.649   9.894  18.862  0.00  0.00    +0.000 A 
ATOM     15 BR   UNL     1       1.408  11.754  18.642  0.00  0.00    +0.000 Br
ATOM     16  C   UNL     1       1.242   9.272  20.040  0.00  0.00    +0.000 A 
ATOM     17  C   UNL     1       1.447   7.899  20.206  0.00  0.00    +0.000 A 
ENDBRANCH   9  11
ENDBRANCH   1   8
BRANCH   6  18
ATOM     18  C   UNL     1       4.393   2.862  17.881  0.00  0.00    +0.000 C 
BRANCH  18  19
ATOM     19  C   UNL     1       4.841   4.193  17.317  0.00  0.00    +0.000 A 
ATOM     20  C   UNL     1       4.669   4.438  15.941  0.00  0.00    +0.000 A 
ATOM     21  C   UNL     1       5.062   5.644  15.361  0.00  0.00    +0.000 A 
ATOM     22  C   UNL     1       5.648   6.633  16.143  0.00  0.00    +0.000 A 
ATOM     23  C   UNL     1       5.854   6.405  17.502  0.00  0.00    +0.000 A 
ATOM     24  C   UNL     1       5.458   5.194  18.087  0.00  0.00    +0.000 A 
ATOM     25 CL   UNL     1       5.788   4.991  19.770  0.00  0.00    +0.000 Cl
ENDBRANCH  18  19
ENDBRANCH   6  18
TORSDOF 4
ENDMDL
MODEL 8
REMARK VINA RESULT:      -7.2      2.026      4.032
REMARK  Name = 
REMARK  4 active torsions:
REMARK  status: ('A' for Active; 'I' for Inactive)
REMARK    1  A    between atoms: C_2  and  C_11
REMARK    2  A    between atoms: N_3  and  C_4
REMARK    3  A    between atoms: N_16  and  C_17
REMARK    4  A    between atoms: C_17  and  C_18
REMARK                            x       y       z     vdW  Elec       q    Type
REMARK                         _______ _______ _______ _____ _____    ______ ____
ROOT
ATOM      1  C   UNL     1       4.593   5.735  18.164  0.00  0.00    +0.000 C 
ATOM      2  C   UNL     1       6.041   6.084  17.823  0.00  0.00    +0.000 C 
ATOM      3  C   UNL     1       6.634   4.758  17.376  0.00  0.00    +0.000 C 
ATOM      4  C   UNL     1       5.453   4.054  16.763  0.00  0.00    +0.000 C 
ATOM      5  O   UNL     1       5.517   3.082  16.027  0.00  0.00    +0.000 OA
ATOM      6  N   UNL     1       4.292   4.669  17.222  0.00  0.00    +0.000 N 
ENDROOT
BRANCH   1   8
ATOM      7  O   UNL     1       3.672   7.572  16.926  0.00  0.00    +0.000 OA
ATOM      8  C   UNL     1       3.698   6.970  17.995  0.00  0.00    +0.000 C 
ATOM      9  N   UNL     1       2.883   7.202  19.096  0.00  0.00    +0.000 N 
ATOM     10  H   UNL     1       3.075   6.635  19.915  0.00  0.00    +0.000 HD
BRANCH   9  11
ATOM     11  C   UNL     1       1.905   8.202  19.235  0.00  0.00    +0.000 A 
ATOM     12  C   UNL     1       1.455   8.990  18.170  0.00  0.00    +0.000 A 
ATOM     13  C   UNL     1       0.511   9.998  18.381  0.00  0.00    +0.000 A 
ATOM     14  C   UNL     1       0.010  10.221  19.660  0.00  0.00    +0.000 A 
ATOM     15 BR   UNL     1      -1.235  11.611  19.947  0.00  0.00    +0.000 Br
ATOM     16  C   UNL     1       0.427   9.427  20.725  0.00  0.00    +0.000 A 
ATOM     17  C   UNL     1       1.368   8.415  20.510  0.00  0.00    +0.000 A 
ENDBRANCH   9  11
ENDBRANCH   1   8
BRANCH   6  18
ATOM     18  C   UNL     1       2.966   4.063  17.106  0.00  0.00    +0.000 C 
BRANCH  18  19
ATOM     19  C   UNL     1       2.376   3.613  18.425  0.00  0.00    +0.000 A 
ATOM     20  C   UNL     1       1.488   4.473  19.098  0.00  0.00    +0.000 A 
ATOM     21  C   UNL     1       0.911   4.116  20.318  0.00  0.00    +0.000 A 
ATOM     22  C   UNL     1       1.219   2.892  20.900  0.00  0.00    +0.000 A 
ATOM     23  C   UNL     1       2.116   2.034  20.267  0.00  0.00    +0.000 A 
ATOM     24  C   UNL     1       2.695   2.390  19.041  0.00  0.00    +0.000 A 
ATOM     25 CL   UNL     1       3.822   1.278  18.353  0.00  0.00    +0.000 Cl
ENDBRANCH  18  19
ENDBRANCH   6  18
TORSDOF 4
ENDMDL
MODEL 9
REMARK VINA RESULT:      -7.1      2.277      4.486
REMARK  Name = 
REMARK  4 active torsions:
REMARK  status: ('A' for Active; 'I' for Inactive)
REMARK    1  A    between atoms: C_2  and  C_11
REMARK    2  A    between atoms: N_3  and  C_4
REMARK    3  A    between atoms: N_16  and  C_17
REMARK    4  A    between atoms: C_17  and  C_18
REMARK                            x       y       z     vdW  Elec       q    Type
REMARK                         _______ _______ _______ _____ _____    ______ ____
ROOT
ATOM      1  C   UNL     1       5.963   5.170  17.252  0.00  0.00    +0.000 C 
ATOM      2  C   UNL     1       6.246   6.192  16.152  0.00  0.00    +0.000 C 
ATOM      3  C   UNL     1       6.549   5.334  14.935  0.00  0.00    +0.000 C 
ATOM      4  C   UNL     1       5.701   4.111  15.170  0.00  0.00    +0.000 C 
ATOM      5  O   UNL     1       5.411   3.283  14.320  0.00  0.00    +0.000 OA
ATOM      6  N   UNL     1       5.360   4.070  16.518  0.00  0.00    +0.000 N 
ENDROOT
BRANCH   1   8
ATOM      7  O   UNL     1       5.277   5.626  19.505  0.00  0.00    +0.000 OA
ATOM      8  C   UNL     1       5.035   5.778  18.312  0.00  0.00    +0.000 C 
ATOM      9  N   UNL     1       4.041   6.581  17.765  0.00  0.00    +0.000 N 
ATOM     10  H   UNL     1       3.956   6.551  16.756  0.00  0.00    +0.000 HD
BRANCH   9  11
ATOM     11  C   UNL     1       3.078   7.334  18.459  0.00  0.00    +0.000 A 
ATOM     12  C   UNL     1       2.574   6.970  19.712  0.00  0.00    +0.000 A 
ATOM     13  C   UNL     1       1.585   7.738  20.331  0.00  0.00    +0.000 A 
ATOM     14  C   UNL     1       1.098   8.879  19.700  0.00  0.00    +0.000 A 
ATOM     15 BR   UNL     1      -0.266   9.892  20.523  0.00  0.00    +0.000 Br
ATOM     16  C   UNL     1       1.609   9.270  18.465  0.00  0.00    +0.000 A 
ATOM     17  C   UNL     1       2.602   8.501  17.850  0.00  0.00    +0.000 A 
ENDBRANCH   9  11
ENDBRANCH   1   8
BRANCH   6  18
ATOM     18  C   UNL     1       4.830   2.874  17.173  0.00  0.00    +0.000 C 
BRANCH  18  19
ATOM     19  C   UNL     1       3.530   3.101  17.913  0.00  0.00    +0.000 A 
ATOM     20  C   UNL     1       2.459   3.709  17.231  0.00  0.00    +0.000 A 
ATOM     21  C   UNL     1       1.236   3.947  17.858  0.00  0.00    +0.000 A 
ATOM     22  C   UNL     1       1.057   3.590  19.190  0.00  0.00    +0.000 A 
ATOM     23  C   UNL     1       2.110   3.012  19.895  0.00  0.00    +0.000 A 
ATOM     24  C   UNL     1       3.339   2.771  19.266  0.00  0.00    +0.000 A 
ATOM     25 CL   UNL     1       4.594   2.083  20.233  0.00  0.00    +0.000 Cl
ENDBRANCH  18  19
ENDBRANCH   6  18
TORSDOF 4
ENDMDL
