MODEL 1
REMARK VINA RESULT:      -7.0      0.000      0.000
REMARK  Name = 
REMARK  9 active torsions:
REMARK  status: ('A' for Active; 'I' for Inactive)
REMARK    1  A    between atoms: C_1  and  O_2
REMARK    2  A    between atoms: O_2  and  C_3
REMARK    3  A    between atoms: C_8  and  C_9
REMARK    4  A    between atoms: C_15  and  S_16
REMARK    5  A    between atoms: S_16  and  C_17
REMARK    6  A    between atoms: C_17  and  C_18
REMARK    7  A    between atoms: C_18  and  N_19
REMARK    8  A    between atoms: N_19  and  C_20
REMARK    9  A    between atoms: N_19  and  C_21
REMARK                            x       y       z     vdW  Elec       q    Type
REMARK                         _______ _______ _______ _____ _____    ______ ____
ROOT
ATOM      1  C   UNL     1       1.005   8.887  19.958  0.00  0.00    +0.000 A 
ATOM      2  C   UNL     1       1.312   9.619  18.802  0.00  0.00    +0.000 A 
ATOM      3  C   UNL     1       2.251   9.135  17.885  0.00  0.00    +0.000 A 
ATOM      4  C   UNL     1       2.893   7.911  18.120  0.00  0.00    +0.000 A 
ATOM      5  C   UNL     1       3.768   7.363  17.181  0.00  0.00    +0.000 A 
ATOM      6  C   UNL     1       4.365   6.104  17.401  0.00  0.00    +0.000 A 
ATOM      7  C   UNL     1       4.119   5.458  18.648  0.00  0.00    +0.000 A 
ATOM      8  N   UNL     1       3.267   6.026  19.544  0.00  0.00    +0.000 NA
ATOM      9  C   UNL     1       2.627   7.196  19.301  0.00  0.00    +0.000 A 
ATOM     10  C   UNL     1       1.691   7.682  20.215  0.00  0.00    +0.000 A 
ENDROOT
BRANCH   6  11
ATOM     11  C   UNL     1       5.196   5.500  16.310  0.00  0.00    +0.000 A 
ATOM     12  C   UNL     1       4.642   4.605  15.373  0.00  0.00    +0.000 A 
ATOM     13  C   UNL     1       5.447   4.008  14.395  0.00  0.00    +0.000 A 
ATOM     14  C   UNL     1       6.813   4.280  14.346  0.00  0.00    +0.000 A 
ATOM     15  C   UNL     1       7.383   5.148  15.276  0.00  0.00    +0.000 A 
ATOM     16  C   UNL     1       6.586   5.749  16.249  0.00  0.00    +0.000 A 
ENDBRANCH   6  11
BRANCH   1  18
ATOM     17  C   UNL     1      -0.487   8.677  21.865  0.00  0.00    +0.000 C 
ATOM     18  O   UNL     1       0.036   9.358  20.785  0.00  0.00    +0.000 OA
ENDBRANCH   1  18
BRANCH   7  19
ATOM     19  S   UNL     1       5.043   3.993  19.157  0.00  0.00    +0.000 S 
BRANCH  19  20
ATOM     20  C   UNL     1       3.824   2.714  18.709  0.00  0.00    +0.000 C 
BRANCH  20  21
ATOM     21  C   UNL     1       3.108   2.244  19.984  0.00  0.00    +0.000 C 
BRANCH  21  22
ATOM     22  N   UNL     1       1.640   2.447  19.932  0.00  0.00    +0.000 NA
ATOM     23  C   UNL     1       1.171   3.468  20.883  0.00  0.00    +0.000 C 
ATOM     24  C   UNL     1       1.224   2.807  18.568  0.00  0.00    +0.000 C 
ENDBRANCH  21  22
ENDBRANCH  20  21
ENDBRANCH  19  20
ENDBRANCH   7  19
TORSDOF 6
ENDMDL
MODEL 2
REMARK VINA RESULT:      -7.0      0.343      1.241
REMARK  Name = 
REMARK  9 active torsions:
REMARK  status: ('A' for Active; 'I' for Inactive)
REMARK    1  A    between atoms: C_1  and  O_2
REMARK    2  A    between atoms: O_2  and  C_3
REMARK    3  A    between atoms: C_8  and  C_9
REMARK    4  A    between atoms: C_15  and  S_16
REMARK    5  A    between atoms: S_16  and  C_17
REMARK    6  A    between atoms: C_17  and  C_18
REMARK    7  A    between atoms: C_18  and  N_19
REMARK    8  A    between atoms: N_19  and  C_20
REMARK    9  A    between atoms: N_19  and  C_21
REMARK                            x       y       z     vdW  Elec       q    Type
REMARK                         _______ _______ _______ _____ _____    ______ ____
ROOT
ATOM      1  C   UNL     1       0.991   8.918  19.893  0.00  0.00    +0.000 A 
ATOM      2  C   UNL     1       1.268   9.594  18.696  0.00  0.00    +0.000 A 
ATOM      3  C   UNL     1       2.209   9.085  17.794  0.00  0.00    +0.000 A 
ATOM      4  C   UNL     1       2.884   7.891  18.087  0.00  0.00    +0.000 A 
ATOM      5  C   UNL     1       3.763   7.315  17.169  0.00  0.00    +0.000 A 
ATOM      6  C   UNL     1       4.393   6.084  17.449  0.00  0.00    +0.000 A 
ATOM      7  C   UNL     1       4.175   5.500  18.731  0.00  0.00    +0.000 A 
ATOM      8  N   UNL     1       3.319   6.094  19.606  0.00  0.00    +0.000 NA
ATOM      9  C   UNL     1       2.648   7.234  19.308  0.00  0.00    +0.000 A 
ATOM     10  C   UNL     1       1.710   7.746  20.205  0.00  0.00    +0.000 A 
ENDROOT
BRANCH   6  11
ATOM     11  C   UNL     1       5.227   5.443  16.382  0.00  0.00    +0.000 A 
ATOM     12  C   UNL     1       6.594   5.750  16.232  0.00  0.00    +0.000 A 
ATOM     13  C   UNL     1       7.343   5.183  15.194  0.00  0.00    +0.000 A 
ATOM     14  C   UNL     1       6.739   4.316  14.283  0.00  0.00    +0.000 A 
ATOM     15  C   UNL     1       5.384   4.014  14.404  0.00  0.00    +0.000 A 
ATOM     16  C   UNL     1       4.635   4.572  15.439  0.00  0.00    +0.000 A 
ENDBRANCH   6  11
BRANCH   1  18
ATOM     17  C   UNL     1      -0.262   8.950  21.974  0.00  0.00    +0.000 C 
ATOM     18  O   UNL     1       0.019   9.409  20.704  0.00  0.00    +0.000 OA
ENDBRANCH   1  18
BRANCH   7  19
ATOM     19  S   UNL     1       5.141   4.087  19.307  0.00  0.00    +0.000 S 
BRANCH  19  20
ATOM     20  C   UNL     1       3.981   2.750  18.870  0.00  0.00    +0.000 C 
BRANCH  20  21
ATOM     21  C   UNL     1       3.228   2.315  20.137  0.00  0.00    +0.000 C 
BRANCH  21  22
ATOM     22  N   UNL     1       1.970   3.071  20.351  0.00  0.00    +0.000 NA
ATOM     23  C   UNL     1       0.985   2.854  19.280  0.00  0.00    +0.000 C 
ATOM     24  C   UNL     1       1.379   2.718  21.651  0.00  0.00    +0.000 C 
ENDBRANCH  21  22
ENDBRANCH  20  21
ENDBRANCH  19  20
ENDBRANCH   7  19
TORSDOF 6
ENDMDL
MODEL 3
REMARK VINA RESULT:      -6.5      1.525      2.341
REMARK  Name = 
REMARK  9 active torsions:
REMARK  status: ('A' for Active; 'I' for Inactive)
REMARK    1  A    between atoms: C_1  and  O_2
REMARK    2  A    between atoms: O_2  and  C_3
REMARK    3  A    between atoms: C_8  and  C_9
REMARK    4  A    between atoms: C_15  and  S_16
REMARK    5  A    between atoms: S_16  and  C_17
REMARK    6  A    between atoms: C_17  and  C_18
REMARK    7  A    between atoms: C_18  and  N_19
REMARK    8  A    between atoms: N_19  and  C_20
REMARK    9  A    between atoms: N_19  and  C_21
REMARK                            x       y       z     vdW  Elec       q    Type
REMARK                         _______ _______ _______ _____ _____    ______ ____
ROOT
ATOM      1  C   UNL     1      -0.099  10.572  20.058  0.00  0.00    +0.000 A 
ATOM      2  C   UNL     1       0.447  11.083  18.872  0.00  0.00    +0.000 A 
ATOM      3  C   UNL     1       1.390  10.345  18.150  0.00  0.00    +0.000 A 
ATOM      4  C   UNL     1       1.798   9.086  18.613  0.00  0.00    +0.000 A 
ATOM      5  C   UNL     1       2.671   8.291  17.869  0.00  0.00    +0.000 A 
ATOM      6  C   UNL     1       3.031   7.002  18.316  0.00  0.00    +0.000 A 
ATOM      7  C   UNL     1       2.548   6.579  19.588  0.00  0.00    +0.000 A 
ATOM      8  N   UNL     1       1.705   7.384  20.291  0.00  0.00    +0.000 NA
ATOM      9  C   UNL     1       1.292   8.589  19.827  0.00  0.00    +0.000 A 
ATOM     10  C   UNL     1       0.352   9.328  20.546  0.00  0.00    +0.000 A 
ENDROOT
BRANCH   6  11
ATOM     11  C   UNL     1       3.868   6.138  17.423  0.00  0.00    +0.000 A 
ATOM     12  C   UNL     1       4.874   6.685  16.602  0.00  0.00    +0.000 A 
ATOM     13  C   UNL     1       5.608   5.867  15.733  0.00  0.00    +0.000 A 
ATOM     14  C   UNL     1       5.340   4.501  15.658  0.00  0.00    +0.000 A 
ATOM     15  C   UNL     1       4.337   3.944  16.449  0.00  0.00    +0.000 A 
ATOM     16  C   UNL     1       3.606   4.752  17.320  0.00  0.00    +0.000 A 
ENDBRANCH   6  11
BRANCH   1  18
ATOM     17  C   UNL     1      -1.773  12.332  20.129  0.00  0.00    +0.000 C 
ATOM     18  O   UNL     1      -1.065  11.289  20.689  0.00  0.00    +0.000 OA
ENDBRANCH   1  18
BRANCH   7  19
ATOM     19  S   UNL     1       3.163   5.081  20.387  0.00  0.00    +0.000 S 
BRANCH  19  20
ATOM     20  C   UNL     1       1.576   4.225  20.653  0.00  0.00    +0.000 C 
BRANCH  20  21
ATOM     21  C   UNL     1       1.850   2.728  20.868  0.00  0.00    +0.000 C 
BRANCH  21  22
ATOM     22  N   UNL     1       1.673   1.925  19.634  0.00  0.00    +0.000 NA
ATOM     23  C   UNL     1       0.775   2.566  18.659  0.00  0.00    +0.000 C 
ATOM     24  C   UNL     1       2.978   1.658  19.009  0.00  0.00    +0.000 C 
ENDBRANCH  21  22
ENDBRANCH  20  21
ENDBRANCH  19  20
ENDBRANCH   7  19
TORSDOF 6
ENDMDL
MODEL 4
REMARK VINA RESULT:      -6.4      1.261      1.646
REMARK  Name = 
REMARK  9 active torsions:
REMARK  status: ('A' for Active; 'I' for Inactive)
REMARK    1  A    between atoms: C_1  and  O_2
REMARK    2  A    between atoms: O_2  and  C_3
REMARK    3  A    between atoms: C_8  and  C_9
REMARK    4  A    between atoms: C_15  and  S_16
REMARK    5  A    between atoms: S_16  and  C_17
REMARK    6  A    between atoms: C_17  and  C_18
REMARK    7  A    between atoms: C_18  and  N_19
REMARK    8  A    between atoms: N_19  and  C_20
REMARK    9  A    between atoms: N_19  and  C_21
REMARK                            x       y       z     vdW  Elec       q    Type
REMARK                         _______ _______ _______ _____ _____    ______ ____
ROOT
ATOM      1  C   UNL     1       0.298  10.109  19.973  0.00  0.00    +0.000 A 
ATOM      2  C   UNL     1       0.718  10.623  18.738  0.00  0.00    +0.000 A 
ATOM      3  C   UNL     1       1.624   9.912  17.944  0.00  0.00    +0.000 A 
ATOM      4  C   UNL     1       2.118   8.675  18.383  0.00  0.00    +0.000 A 
ATOM      5  C   UNL     1       2.954   7.903  17.575  0.00  0.00    +0.000 A 
ATOM      6  C   UNL     1       3.400   6.635  18.003  0.00  0.00    +0.000 A 
ATOM      7  C   UNL     1       3.047   6.212  19.317  0.00  0.00    +0.000 A 
ATOM      8  N   UNL     1       2.238   6.994  20.082  0.00  0.00    +0.000 NA
ATOM      9  C   UNL     1       1.740   8.176  19.643  0.00  0.00    +0.000 A 
ATOM     10  C   UNL     1       0.837   8.890  20.433  0.00  0.00    +0.000 A 
ENDROOT
BRANCH   6  11
ATOM     11  C   UNL     1       4.190   5.791  17.050  0.00  0.00    +0.000 A 
ATOM     12  C   UNL     1       4.120   4.383  17.082  0.00  0.00    +0.000 A 
ATOM     13  C   UNL     1       4.908   3.611  16.220  0.00  0.00    +0.000 A 
ATOM     14  C   UNL     1       5.786   4.225  15.328  0.00  0.00    +0.000 A 
ATOM     15  C   UNL     1       5.882   5.616  15.294  0.00  0.00    +0.000 A 
ATOM     16  C   UNL     1       5.097   6.390  16.147  0.00  0.00    +0.000 A 
ENDBRANCH   6  11
BRANCH   1  18
ATOM     17  C   UNL     1      -0.406  11.464  21.863  0.00  0.00    +0.000 C 
ATOM     18  O   UNL     1      -0.637  10.798  20.678  0.00  0.00    +0.000 OA
ENDBRANCH   1  18
BRANCH   7  19
ATOM     19  S   UNL     1       3.787   4.750  20.075  0.00  0.00    +0.000 S 
BRANCH  19  20
ATOM     20  C   UNL     1       2.308   4.077  20.903  0.00  0.00    +0.000 C 
BRANCH  20  21
ATOM     21  C   UNL     1       2.380   2.542  20.874  0.00  0.00    +0.000 C 
BRANCH  21  22
ATOM     22  N   UNL     1       1.776   1.958  19.652  0.00  0.00    +0.000 NA
ATOM     23  C   UNL     1       0.866   2.888  18.964  0.00  0.00    +0.000 C 
ATOM     24  C   UNL     1       2.829   1.514  18.726  0.00  0.00    +0.000 C 
ENDBRANCH  21  22
ENDBRANCH  20  21
ENDBRANCH  19  20
ENDBRANCH   7  19
TORSDOF 6
ENDMDL
MODEL 5
REMARK VINA RESULT:      -6.3      0.685      1.289
REMARK  Name = 
REMARK  9 active torsions:
REMARK  status: ('A' for Active; 'I' for Inactive)
REMARK    1  A    between atoms: C_1  and  O_2
REMARK    2  A    between atoms: O_2  and  C_3
REMARK    3  A    between atoms: C_8  and  C_9
REMARK    4  A    between atoms: C_15  and  S_16
REMARK    5  A    between atoms: S_16  and  C_17
REMARK    6  A    between atoms: C_17  and  C_18
REMARK    7  A    between atoms: C_18  and  N_19
REMARK    8  A    between atoms: N_19  and  C_20
REMARK    9  A    between atoms: N_19  and  C_21
REMARK                            x       y       z     vdW  Elec       q    Type
REMARK                         _______ _______ _______ _____ _____    ______ ____
ROOT
ATOM      1  C   UNL     1       0.964   8.901  19.897  0.00  0.00    +0.000 A 
ATOM      2  C   UNL     1       1.156   9.490  18.639  0.00  0.00    +0.000 A 
ATOM      3  C   UNL     1       2.092   8.962  17.744  0.00  0.00    +0.000 A 
ATOM      4  C   UNL     1       2.847   7.836  18.104  0.00  0.00    +0.000 A 
ATOM      5  C   UNL     1       3.725   7.236  17.200  0.00  0.00    +0.000 A 
ATOM      6  C   UNL     1       4.437   6.070  17.551  0.00  0.00    +0.000 A 
ATOM      7  C   UNL     1       4.301   5.583  18.884  0.00  0.00    +0.000 A 
ATOM      8  N   UNL     1       3.443   6.198  19.742  0.00  0.00    +0.000 NA
ATOM      9  C   UNL     1       2.695   7.270  19.382  0.00  0.00    +0.000 A 
ATOM     10  C   UNL     1       1.761   7.800  20.273  0.00  0.00    +0.000 A 
ENDROOT
BRANCH   6  11
ATOM     11  C   UNL     1       5.268   5.392  16.506  0.00  0.00    +0.000 A 
ATOM     12  C   UNL     1       6.639   5.680  16.354  0.00  0.00    +0.000 A 
ATOM     13  C   UNL     1       7.386   5.076  15.335  0.00  0.00    +0.000 A 
ATOM     14  C   UNL     1       6.777   4.191  14.445  0.00  0.00    +0.000 A 
ATOM     15  C   UNL     1       5.418   3.907  14.569  0.00  0.00    +0.000 A 
ATOM     16  C   UNL     1       4.670   4.502  15.585  0.00  0.00    +0.000 A 
ENDBRANCH   6  11
BRANCH   1  18
ATOM     17  C   UNL     1      -0.436   8.823  21.882  0.00  0.00    +0.000 C 
ATOM     18  O   UNL     1      -0.006   9.401  20.706  0.00  0.00    +0.000 OA
ENDBRANCH   1  18
BRANCH   7  19
ATOM     19  S   UNL     1       5.369   4.279  19.531  0.00  0.00    +0.000 S 
BRANCH  19  20
ATOM     20  C   UNL     1       4.328   2.834  19.139  0.00  0.00    +0.000 C 
BRANCH  20  21
ATOM     21  C   UNL     1       2.891   3.118  19.605  0.00  0.00    +0.000 C 
BRANCH  21  22
ATOM     22  N   UNL     1       1.880   2.862  18.551  0.00  0.00    +0.000 NA
ATOM     23  C   UNL     1       1.297   4.099  18.008  0.00  0.00    +0.000 C 
ATOM     24  C   UNL     1       2.470   2.068  17.462  0.00  0.00    +0.000 C 
ENDBRANCH  21  22
ENDBRANCH  20  21
ENDBRANCH  19  20
ENDBRANCH   7  19
TORSDOF 6
ENDMDL
MODEL 6
REMARK VINA RESULT:      -6.1      3.074      7.135
REMARK  Name = 
REMARK  9 active torsions:
REMARK  status: ('A' for Active; 'I' for Inactive)
REMARK    1  A    between atoms: C_1  and  O_2
REMARK    2  A    between atoms: O_2  and  C_3
REMARK    3  A    between atoms: C_8  and  C_9
REMARK    4  A    between atoms: C_15  and  S_16
REMARK    5  A    between atoms: S_16  and  C_17
REMARK    6  A    between atoms: C_17  and  C_18
REMARK    7  A    between atoms: C_18  and  N_19
REMARK    8  A    between atoms: N_19  and  C_20
REMARK    9  A    between atoms: N_19  and  C_21
REMARK                            x       y       z     vdW  Elec       q    Type
REMARK                         _______ _______ _______ _____ _____    ______ ____
ROOT
ATOM      1  C   UNL     1       6.593   5.260  14.367  0.00  0.00    +0.000 A 
ATOM      2  C   UNL     1       6.760   3.919  14.741  0.00  0.00    +0.000 A 
ATOM      3  C   UNL     1       6.075   3.399  15.844  0.00  0.00    +0.000 A 
ATOM      4  C   UNL     1       5.215   4.221  16.585  0.00  0.00    +0.000 A 
ATOM      5  C   UNL     1       4.453   3.709  17.636  0.00  0.00    +0.000 A 
ATOM      6  C   UNL     1       3.548   4.532  18.339  0.00  0.00    +0.000 A 
ATOM      7  C   UNL     1       3.507   5.916  18.003  0.00  0.00    +0.000 A 
ATOM      8  N   UNL     1       4.271   6.384  16.978  0.00  0.00    +0.000 NA
ATOM      9  C   UNL     1       5.080   5.580  16.247  0.00  0.00    +0.000 A 
ATOM     10  C   UNL     1       5.766   6.096  15.146  0.00  0.00    +0.000 A 
ENDROOT
BRANCH   6  11
ATOM     11  C   UNL     1       2.662   3.908  19.373  0.00  0.00    +0.000 A 
ATOM     12  C   UNL     1       1.329   3.552  19.082  0.00  0.00    +0.000 A 
ATOM     13  C   UNL     1       0.499   3.022  20.077  0.00  0.00    +0.000 A 
ATOM     14  C   UNL     1       0.977   2.853  21.377  0.00  0.00    +0.000 A 
ATOM     15  C   UNL     1       2.286   3.216  21.688  0.00  0.00    +0.000 A 
ATOM     16  C   UNL     1       3.119   3.740  20.700  0.00  0.00    +0.000 A 
ENDBRANCH   6  11
BRANCH   1  18
ATOM     17  C   UNL     1       7.591   4.915  12.179  0.00  0.00    +0.000 C 
ATOM     18  O   UNL     1       7.220   5.704  13.247  0.00  0.00    +0.000 OA
ENDBRANCH   1  18
BRANCH   7  19
ATOM     19  S   UNL     1       2.606   7.112  19.013  0.00  0.00    +0.000 S 
BRANCH  19  20
ATOM     20  C   UNL     1       2.586   8.514  17.847  0.00  0.00    +0.000 C 
BRANCH  20  21
ATOM     21  C   UNL     1       1.232   9.231  17.959  0.00  0.00    +0.000 C 
BRANCH  21  22
ATOM     22  N   UNL     1       1.299  10.470  18.771  0.00  0.00    +0.000 NA
ATOM     23  C   UNL     1       2.181  11.491  18.183  0.00  0.00    +0.000 C 
ATOM     24  C   UNL     1      -0.049  11.027  18.964  0.00  0.00    +0.000 C 
ENDBRANCH  21  22
ENDBRANCH  20  21
ENDBRANCH  19  20
ENDBRANCH   7  19
TORSDOF 6
ENDMDL
MODEL 7
REMARK VINA RESULT:      -6.0      1.660      2.440
REMARK  Name = 
REMARK  9 active torsions:
REMARK  status: ('A' for Active; 'I' for Inactive)
REMARK    1  A    between atoms: C_1  and  O_2
REMARK    2  A    between atoms: O_2  and  C_3
REMARK    3  A    between atoms: C_8  and  C_9
REMARK    4  A    between atoms: C_15  and  S_16
REMARK    5  A    between atoms: S_16  and  C_17
REMARK    6  A    between atoms: C_17  and  C_18
REMARK    7  A    between atoms: C_18  and  N_19
REMARK    8  A    between atoms: N_19  and  C_20
REMARK    9  A    between atoms: N_19  and  C_21
REMARK                            x       y       z     vdW  Elec       q    Type
REMARK                         _______ _______ _______ _____ _____    ______ ____
ROOT
ATOM      1  C   UNL     1       0.034  10.965  19.911  0.00  0.00    +0.000 A 
ATOM      2  C   UNL     1       0.611  11.424  18.719  0.00  0.00    +0.000 A 
ATOM      3  C   UNL     1       1.516  10.623  18.014  0.00  0.00    +0.000 A 
ATOM      4  C   UNL     1       1.853   9.351  18.501  0.00  0.00    +0.000 A 
ATOM      5  C   UNL     1       2.684   8.497  17.776  0.00  0.00    +0.000 A 
ATOM      6  C   UNL     1       2.971   7.199  18.246  0.00  0.00    +0.000 A 
ATOM      7  C   UNL     1       2.461   6.825  19.524  0.00  0.00    +0.000 A 
ATOM      8  N   UNL     1       1.661   7.687  20.209  0.00  0.00    +0.000 NA
ATOM      9  C   UNL     1       1.316   8.905  19.721  0.00  0.00    +0.000 A 
ATOM     10  C   UNL     1       0.415   9.707  20.423  0.00  0.00    +0.000 A 
ENDROOT
BRANCH   6  11
ATOM     11  C   UNL     1       3.763   6.274  17.373  0.00  0.00    +0.000 A 
ATOM     12  C   UNL     1       3.526   4.885  17.366  0.00  0.00    +0.000 A 
ATOM     13  C   UNL     1       4.315   4.031  16.585  0.00  0.00    +0.000 A 
ATOM     14  C   UNL     1       5.357   4.545  15.814  0.00  0.00    +0.000 A 
ATOM     15  C   UNL     1       5.618   5.915  15.822  0.00  0.00    +0.000 A 
ATOM     16  C   UNL     1       4.833   6.770  16.594  0.00  0.00    +0.000 A 
ENDBRANCH   6  11
BRANCH   1  18
ATOM     17  C   UNL     1      -1.863  12.482  19.878  0.00  0.00    +0.000 C 
ATOM     18  O   UNL     1      -0.894  11.744  20.524  0.00  0.00    +0.000 OA
ENDBRANCH   1  18
BRANCH   7  19
ATOM     19  S   UNL     1       2.991   5.311  20.352  0.00  0.00    +0.000 S 
BRANCH  19  20
ATOM     20  C   UNL     1       1.354   4.614  20.751  0.00  0.00    +0.000 C 
BRANCH  20  21
ATOM     21  C   UNL     1       1.001   3.546  19.704  0.00  0.00    +0.000 C 
BRANCH  21  22
ATOM     22  N   UNL     1       1.547   2.208  20.036  0.00  0.00    +0.000 NA
ATOM     23  C   UNL     1       2.647   1.803  19.146  0.00  0.00    +0.000 C 
ATOM     24  C   UNL     1       2.000   2.176  21.435  0.00  0.00    +0.000 C 
ENDBRANCH  21  22
ENDBRANCH  20  21
ENDBRANCH  19  20
ENDBRANCH   7  19
TORSDOF 6
ENDMDL
MODEL 8
REMARK VINA RESULT:      -6.0      2.508      6.203
REMARK  Name = 
REMARK  9 active torsions:
REMARK  status: ('A' for Active; 'I' for Inactive)
REMARK    1  A    between atoms: C_1  and  O_2
REMARK    2  A    between atoms: O_2  and  C_3
REMARK    3  A    between atoms: C_8  and  C_9
REMARK    4  A    between atoms: C_15  and  S_16
REMARK    5  A    between atoms: S_16  and  C_17
REMARK    6  A    between atoms: C_17  and  C_18
REMARK    7  A    between atoms: C_18  and  N_19
REMARK    8  A    between atoms: N_19  and  C_20
REMARK    9  A    between atoms: N_19  and  C_21
REMARK                            x       y       z     vdW  Elec       q    Type
REMARK                         _______ _______ _______ _____ _____    ______ ____
ROOT
ATOM      1  C   UNL     1       5.509   4.867  15.726  0.00  0.00    +0.000 A 
ATOM      2  C   UNL     1       5.539   6.225  15.379  0.00  0.00    +0.000 A 
ATOM      3  C   UNL     1       4.755   7.152  16.071  0.00  0.00    +0.000 A 
ATOM      4  C   UNL     1       3.928   6.725  17.121  0.00  0.00    +0.000 A 
ATOM      5  C   UNL     1       3.200   7.638  17.885  0.00  0.00    +0.000 A 
ATOM      6  C   UNL     1       2.416   7.203  18.975  0.00  0.00    +0.000 A 
ATOM      7  C   UNL     1       2.320   5.801  19.209  0.00  0.00    +0.000 A 
ATOM      8  N   UNL     1       3.036   4.937  18.438  0.00  0.00    +0.000 NA
ATOM      9  C   UNL     1       3.855   5.358  17.442  0.00  0.00    +0.000 A 
ATOM     10  C   UNL     1       4.638   4.434  16.748  0.00  0.00    +0.000 A 
ENDROOT
BRANCH   6  11
ATOM     11  C   UNL     1       1.757   8.231  19.842  0.00  0.00    +0.000 A 
ATOM     12  C   UNL     1       1.647   8.056  21.236  0.00  0.00    +0.000 A 
ATOM     13  C   UNL     1       0.977   9.002  22.023  0.00  0.00    +0.000 A 
ATOM     14  C   UNL     1       0.395  10.123  21.432  0.00  0.00    +0.000 A 
ATOM     15  C   UNL     1       0.478  10.304  20.052  0.00  0.00    +0.000 A 
ATOM     16  C   UNL     1       1.147   9.368  19.265  0.00  0.00    +0.000 A 
ENDBRANCH   6  11
BRANCH   1  18
ATOM     17  C   UNL     1       6.300   3.738  13.725  0.00  0.00    +0.000 C 
ATOM     18  O   UNL     1       6.341   4.012  15.076  0.00  0.00    +0.000 OA
ENDBRANCH   1  18
BRANCH   7  19
ATOM     19  S   UNL     1       1.133   5.114  20.384  0.00  0.00    +0.000 S 
BRANCH  19  20
ATOM     20  C   UNL     1       2.212   3.890  21.198  0.00  0.00    +0.000 C 
BRANCH  20  21
ATOM     21  C   UNL     1       1.795   2.483  20.744  0.00  0.00    +0.000 C 
BRANCH  21  22
ATOM     22  N   UNL     1       2.859   1.781  19.986  0.00  0.00    +0.000 NA
ATOM     23  C   UNL     1       2.629   1.797  18.532  0.00  0.00    +0.000 C 
ATOM     24  C   UNL     1       4.173   2.369  20.289  0.00  0.00    +0.000 C 
ENDBRANCH  21  22
ENDBRANCH  20  21
ENDBRANCH  19  20
ENDBRANCH   7  19
TORSDOF 6
ENDMDL
MODEL 9
REMARK VINA RESULT:      -6.0      2.419      6.175
REMARK  Name = 
REMARK  9 active torsions:
REMARK  status: ('A' for Active; 'I' for Inactive)
REMARK    1  A    between atoms: C_1  and  O_2
REMARK    2  A    between atoms: O_2  and  C_3
REMARK    3  A    between atoms: C_8  and  C_9
REMARK    4  A    between atoms: C_15  and  S_16
REMARK    5  A    between atoms: S_16  and  C_17
REMARK    6  A    between atoms: C_17  and  C_18
REMARK    7  A    between atoms: C_18  and  N_19
REMARK    8  A    between atoms: N_19  and  C_20
REMARK    9  A    between atoms: N_19  and  C_21
REMARK                            x       y       z     vdW  Elec       q    Type
REMARK                         _______ _______ _______ _____ _____    ______ ____
ROOT
ATOM      1  C   UNL     1       5.730   5.193  16.033  0.00  0.00    +0.000 A 
ATOM      2  C   UNL     1       5.474   6.473  15.520  0.00  0.00    +0.000 A 
ATOM      3  C   UNL     1       4.551   7.317  16.146  0.00  0.00    +0.000 A 
ATOM      4  C   UNL     1       3.873   6.884  17.294  0.00  0.00    +0.000 A 
ATOM      5  C   UNL     1       3.012   7.734  17.989  0.00  0.00    +0.000 A 
ATOM      6  C   UNL     1       2.379   7.308  19.175  0.00  0.00    +0.000 A 
ATOM      7  C   UNL     1       2.574   5.957  19.586  0.00  0.00    +0.000 A 
ATOM      8  N   UNL     1       3.413   5.152  18.880  0.00  0.00    +0.000 NA
ATOM      9  C   UNL     1       4.087   5.584  17.786  0.00  0.00    +0.000 A 
ATOM     10  C   UNL     1       5.008   4.743  17.158  0.00  0.00    +0.000 A 
ENDROOT
BRANCH   6  11
ATOM     11  C   UNL     1       1.566   8.297  19.953  0.00  0.00    +0.000 A 
ATOM     12  C   UNL     1       0.876   9.348  19.315  0.00  0.00    +0.000 A 
ATOM     13  C   UNL     1       0.168  10.295  20.065  0.00  0.00    +0.000 A 
ATOM     14  C   UNL     1       0.149  10.219  21.458  0.00  0.00    +0.000 A 
ATOM     15  C   UNL     1       0.840   9.198  22.108  0.00  0.00    +0.000 A 
ATOM     16  C   UNL     1       1.543   8.249  21.366  0.00  0.00    +0.000 A 
ENDBRANCH   6  11
BRANCH   1  18
ATOM     17  C   UNL     1       7.062   4.527  14.113  0.00  0.00    +0.000 C 
ATOM     18  O   UNL     1       6.686   4.435  15.437  0.00  0.00    +0.000 OA
ENDBRANCH   1  18
BRANCH   7  19
ATOM     19  S   UNL     1       1.600   5.220  20.916  0.00  0.00    +0.000 S 
BRANCH  19  20
ATOM     20  C   UNL     1       2.408   3.587  20.992  0.00  0.00    +0.000 C 
BRANCH  20  21
ATOM     21  C   UNL     1       1.603   2.596  20.137  0.00  0.00    +0.000 C 
BRANCH  21  22
ATOM     22  N   UNL     1       2.451   1.810  19.209  0.00  0.00    +0.000 NA
ATOM     23  C   UNL     1       2.261   2.192  17.800  0.00  0.00    +0.000 C 
ATOM     24  C   UNL     1       3.869   1.948  19.576  0.00  0.00    +0.000 C 
ENDBRANCH  21  22
ENDBRANCH  20  21
ENDBRANCH  19  20
ENDBRANCH   7  19
TORSDOF 6
ENDMDL
