MODEL 1
REMARK VINA RESULT:      -7.0      0.000      0.000
REMARK  Name = 
REMARK  4 active torsions:
REMARK  status: ('A' for Active; 'I' for Inactive)
REMARK    1  A    between atoms: C_1  and  C_2
REMARK    2  A    between atoms: C_4  and  C_5
REMARK    3  A    between atoms: C_6  and  C_7
REMARK    4  A    between atoms: N_15  and  C_16
REMARK                            x       y       z     vdW  Elec       q    Type
REMARK                         _______ _______ _______ _____ _____    ______ ____
ROOT
ATOM      1  C   UNL     1       2.839   4.014  18.751  0.00  0.00    +0.000 A 
ATOM      2  C   UNL     1       3.832   3.412  17.989  0.00  0.00    +0.000 A 
ATOM      3  N   UNL     1       3.627   2.045  17.927  0.00  0.00    +0.000 NA
ATOM      4  C   UNL     1       2.553   1.821  18.645  0.00  0.00    +0.000 A 
ATOM      5  N   UNL     1       2.055   2.971  19.184  0.00  0.00    +0.000 N 
ATOM      6  C   UNL     1       0.819   3.061  19.922  0.00  0.00    +0.000 C 
ENDROOT
BRANCH   1  10
ATOM      7  C   UNL     1       2.134   8.855  17.928  0.00  0.00    +0.000 C 
ATOM      8  C   UNL     1       2.335   7.548  18.591  0.00  0.00    +0.000 A 
ATOM      9  N   UNL     1       2.568   6.396  18.005  0.00  0.00    +0.000 NA
ATOM     10  C   UNL     1       2.614   5.458  19.003  0.00  0.00    +0.000 A 
ATOM     11  C   UNL     1       2.434   6.061  20.227  0.00  0.00    +0.000 A 
ATOM     12  N   UNL     1       2.289   7.394  19.953  0.00  0.00    +0.000 N 
ATOM     13  H   UNL     1       2.163   8.135  20.626  0.00  0.00    +0.000 HD
ENDBRANCH   1  10
BRANCH   2  14
ATOM     14  C   UNL     1       4.979   4.046  17.350  0.00  0.00    +0.000 A 
ATOM     15  C   UNL     1       6.089   4.474  18.092  0.00  0.00    +0.000 A 
ATOM     16  C   UNL     1       7.145   5.153  17.481  0.00  0.00    +0.000 A 
ATOM     17  C   UNL     1       7.127   5.370  16.107  0.00  0.00    +0.000 A 
ATOM     18  C   UNL     1       6.065   4.889  15.343  0.00  0.00    +0.000 A 
ATOM     19  C   UNL     1       4.997   4.227  15.960  0.00  0.00    +0.000 A 
ENDBRANCH   2  14
TORSDOF 2
ENDMDL
MODEL 2
REMARK VINA RESULT:      -7.0      0.161      1.146
REMARK  Name = 
REMARK  4 active torsions:
REMARK  status: ('A' for Active; 'I' for Inactive)
REMARK    1  A    between atoms: C_1  and  C_2
REMARK    2  A    between atoms: C_4  and  C_5
REMARK    3  A    between atoms: C_6  and  C_7
REMARK    4  A    between atoms: N_15  and  C_16
REMARK                            x       y       z     vdW  Elec       q    Type
REMARK                         _______ _______ _______ _____ _____    ______ ____
ROOT
ATOM      1  C   UNL     1       2.723   4.031  18.697  0.00  0.00    +0.000 A 
ATOM      2  C   UNL     1       3.698   3.411  17.926  0.00  0.00    +0.000 A 
ATOM      3  N   UNL     1       3.480   2.045  17.884  0.00  0.00    +0.000 NA
ATOM      4  C   UNL     1       2.415   1.840  18.622  0.00  0.00    +0.000 A 
ATOM      5  N   UNL     1       1.937   3.001  19.155  0.00  0.00    +0.000 N 
ATOM      6  C   UNL     1       0.714   3.112  19.911  0.00  0.00    +0.000 C 
ENDROOT
BRANCH   1  10
ATOM      7  C   UNL     1       2.099   8.876  17.828  0.00  0.00    +0.000 C 
ATOM      8  C   UNL     1       2.273   7.571  18.504  0.00  0.00    +0.000 A 
ATOM      9  N   UNL     1       2.497   6.411  17.929  0.00  0.00    +0.000 NA
ATOM     10  C   UNL     1       2.517   5.481  18.935  0.00  0.00    +0.000 A 
ATOM     11  C   UNL     1       2.331   6.095  20.152  0.00  0.00    +0.000 A 
ATOM     12  N   UNL     1       2.208   7.428  19.866  0.00  0.00    +0.000 N 
ATOM     13  H   UNL     1       2.086   8.177  20.532  0.00  0.00    +0.000 HD
ENDBRANCH   1  10
BRANCH   2  14
ATOM     14  C   UNL     1       4.841   4.026  17.261  0.00  0.00    +0.000 A 
ATOM     15  C   UNL     1       4.835   4.290  15.884  0.00  0.00    +0.000 A 
ATOM     16  C   UNL     1       5.964   4.804  15.245  0.00  0.00    +0.000 A 
ATOM     17  C   UNL     1       7.102   5.107  15.985  0.00  0.00    +0.000 A 
ATOM     18  C   UNL     1       7.103   4.917  17.366  0.00  0.00    +0.000 A 
ATOM     19  C   UNL     1       5.976   4.383  18.003  0.00  0.00    +0.000 A 
ENDBRANCH   2  14
TORSDOF 2
ENDMDL
MODEL 3
REMARK VINA RESULT:      -7.0      1.828      5.320
REMARK  Name = 
REMARK  4 active torsions:
REMARK  status: ('A' for Active; 'I' for Inactive)
REMARK    1  A    between atoms: C_1  and  C_2
REMARK    2  A    between atoms: C_4  and  C_5
REMARK    3  A    between atoms: C_6  and  C_7
REMARK    4  A    between atoms: N_15  and  C_16
REMARK                            x       y       z     vdW  Elec       q    Type
REMARK                         _______ _______ _______ _____ _____    ______ ____
ROOT
ATOM      1  C   UNL     1       3.448   5.351  17.915  0.00  0.00    +0.000 A 
ATOM      2  C   UNL     1       3.379   6.735  17.815  0.00  0.00    +0.000 A 
ATOM      3  N   UNL     1       4.356   7.203  16.954  0.00  0.00    +0.000 NA
ATOM      4  C   UNL     1       5.010   6.137  16.557  0.00  0.00    +0.000 A 
ATOM      5  N   UNL     1       4.518   5.000  17.127  0.00  0.00    +0.000 N 
ATOM      6  C   UNL     1       4.953   3.665  16.797  0.00  0.00    +0.000 C 
ENDROOT
BRANCH   1  10
ATOM      7  C   UNL     1       1.523   2.605  21.572  0.00  0.00    +0.000 C 
ATOM      8  C   UNL     1       1.766   3.241  20.258  0.00  0.00    +0.000 A 
ATOM      9  N   UNL     1       2.770   4.024  19.936  0.00  0.00    +0.000 NA
ATOM     10  C   UNL     1       2.543   4.431  18.647  0.00  0.00    +0.000 A 
ATOM     11  C   UNL     1       1.389   3.857  18.166  0.00  0.00    +0.000 A 
ATOM     12  N   UNL     1       0.921   3.079  19.190  0.00  0.00    +0.000 N 
ATOM     13  H   UNL     1       0.099   2.493  19.172  0.00  0.00    +0.000 HD
ENDBRANCH   1  10
BRANCH   2  14
ATOM     14  C   UNL     1       2.472   7.640  18.512  0.00  0.00    +0.000 A 
ATOM     15  C   UNL     1       1.842   8.702  17.848  0.00  0.00    +0.000 A 
ATOM     16  C   UNL     1       1.041   9.610  18.543  0.00  0.00    +0.000 A 
ATOM     17  C   UNL     1       0.819   9.438  19.905  0.00  0.00    +0.000 A 
ATOM     18  C   UNL     1       1.380   8.347  20.567  0.00  0.00    +0.000 A 
ATOM     19  C   UNL     1       2.200   7.449  19.874  0.00  0.00    +0.000 A 
ENDBRANCH   2  14
TORSDOF 2
ENDMDL
MODEL 4
REMARK VINA RESULT:      -7.0      1.832      5.217
REMARK  Name = 
REMARK  4 active torsions:
REMARK  status: ('A' for Active; 'I' for Inactive)
REMARK    1  A    between atoms: C_1  and  C_2
REMARK    2  A    between atoms: C_4  and  C_5
REMARK    3  A    between atoms: C_6  and  C_7
REMARK    4  A    between atoms: N_15  and  C_16
REMARK                            x       y       z     vdW  Elec       q    Type
REMARK                         _______ _______ _______ _____ _____    ______ ____
ROOT
ATOM      1  C   UNL     1       3.452   5.349  17.904  0.00  0.00    +0.000 A 
ATOM      2  C   UNL     1       3.408   6.735  17.815  0.00  0.00    +0.000 A 
ATOM      3  N   UNL     1       4.382   7.190  16.944  0.00  0.00    +0.000 NA
ATOM      4  C   UNL     1       5.010   6.115  16.531  0.00  0.00    +0.000 A 
ATOM      5  N   UNL     1       4.505   4.983  17.100  0.00  0.00    +0.000 N 
ATOM      6  C   UNL     1       4.909   3.643  16.756  0.00  0.00    +0.000 C 
ENDROOT
BRANCH   1  10
ATOM      7  C   UNL     1       1.512   2.634  21.575  0.00  0.00    +0.000 C 
ATOM      8  C   UNL     1       1.755   3.264  20.260  0.00  0.00    +0.000 A 
ATOM      9  N   UNL     1       2.768   4.035  19.931  0.00  0.00    +0.000 NA
ATOM     10  C   UNL     1       2.540   4.441  18.643  0.00  0.00    +0.000 A 
ATOM     11  C   UNL     1       1.377   3.881  18.168  0.00  0.00    +0.000 A 
ATOM     12  N   UNL     1       0.904   3.110  19.196  0.00  0.00    +0.000 N 
ATOM     13  H   UNL     1       0.075   2.534  19.182  0.00  0.00    +0.000 HD
ENDBRANCH   1  10
BRANCH   2  14
ATOM     14  C   UNL     1       2.528   7.652  18.530  0.00  0.00    +0.000 A 
ATOM     15  C   UNL     1       2.234   7.478  19.889  0.00  0.00    +0.000 A 
ATOM     16  C   UNL     1       1.327   8.313  20.542  0.00  0.00    +0.000 A 
ATOM     17  C   UNL     1       0.737   9.369  19.854  0.00  0.00    +0.000 A 
ATOM     18  C   UNL     1       1.071   9.600  18.521  0.00  0.00    +0.000 A 
ATOM     19  C   UNL     1       1.965   8.748  17.862  0.00  0.00    +0.000 A 
ENDBRANCH   2  14
TORSDOF 2
ENDMDL
MODEL 5
REMARK VINA RESULT:      -6.9      2.756      5.148
REMARK  Name = 
REMARK  4 active torsions:
REMARK  status: ('A' for Active; 'I' for Inactive)
REMARK    1  A    between atoms: C_1  and  C_2
REMARK    2  A    between atoms: C_4  and  C_5
REMARK    3  A    between atoms: C_6  and  C_7
REMARK    4  A    between atoms: N_15  and  C_16
REMARK                            x       y       z     vdW  Elec       q    Type
REMARK                         _______ _______ _______ _____ _____    ______ ____
ROOT
ATOM      1  C   UNL     1       6.032   5.487  16.616  0.00  0.00    +0.000 A 
ATOM      2  C   UNL     1       4.748   5.060  16.931  0.00  0.00    +0.000 A 
ATOM      3  N   UNL     1       4.299   4.153  15.987  0.00  0.00    +0.000 NA
ATOM      4  C   UNL     1       5.274   4.046  15.116  0.00  0.00    +0.000 A 
ATOM      5  N   UNL     1       6.330   4.848  15.436  0.00  0.00    +0.000 N 
ATOM      6  C   UNL     1       7.590   4.861  14.736  0.00  0.00    +0.000 C 
ENDROOT
BRANCH   1  10
ATOM      7  C   UNL     1       8.477   9.552  18.070  0.00  0.00    +0.000 C 
ATOM      8  C   UNL     1       7.978   8.163  17.967  0.00  0.00    +0.000 A 
ATOM      9  N   UNL     1       7.166   7.685  17.051  0.00  0.00    +0.000 NA
ATOM     10  C   UNL     1       6.926   6.380  17.394  0.00  0.00    +0.000 A 
ATOM     11  C   UNL     1       7.631   6.051  18.528  0.00  0.00    +0.000 A 
ATOM     12  N   UNL     1       8.320   7.185  18.864  0.00  0.00    +0.000 N 
ATOM     13  H   UNL     1       8.962   7.291  19.636  0.00  0.00    +0.000 HD
ENDBRANCH   1  10
BRANCH   2  14
ATOM     14  C   UNL     1       3.909   5.487  18.045  0.00  0.00    +0.000 A 
ATOM     15  C   UNL     1       3.679   4.656  19.150  0.00  0.00    +0.000 A 
ATOM     16  C   UNL     1       2.809   5.041  20.171  0.00  0.00    +0.000 A 
ATOM     17  C   UNL     1       2.195   6.289  20.125  0.00  0.00    +0.000 A 
ATOM     18  C   UNL     1       2.467   7.157  19.069  0.00  0.00    +0.000 A 
ATOM     19  C   UNL     1       3.324   6.760  18.035  0.00  0.00    +0.000 A 
ENDBRANCH   2  14
TORSDOF 2
ENDMDL
MODEL 6
REMARK VINA RESULT:      -6.9      1.637      2.355
REMARK  Name = 
REMARK  4 active torsions:
REMARK  status: ('A' for Active; 'I' for Inactive)
REMARK    1  A    between atoms: C_1  and  C_2
REMARK    2  A    between atoms: C_4  and  C_5
REMARK    3  A    between atoms: C_6  and  C_7
REMARK    4  A    between atoms: N_15  and  C_16
REMARK                            x       y       z     vdW  Elec       q    Type
REMARK                         _______ _______ _______ _____ _____    ______ ____
ROOT
ATOM      1  C   UNL     1       3.209   5.016  18.395  0.00  0.00    +0.000 A 
ATOM      2  C   UNL     1       4.513   4.731  18.007  0.00  0.00    +0.000 A 
ATOM      3  N   UNL     1       4.599   3.435  17.530  0.00  0.00    +0.000 NA
ATOM      4  C   UNL     1       3.388   2.942  17.643  0.00  0.00    +0.000 A 
ATOM      5  N   UNL     1       2.521   3.846  18.181  0.00  0.00    +0.000 N 
ATOM      6  C   UNL     1       1.101   3.637  18.319  0.00  0.00    +0.000 C 
ENDROOT
BRANCH   1  10
ATOM      7  C   UNL     1       1.286   8.450  21.416  0.00  0.00    +0.000 C 
ATOM      8  C   UNL     1       1.796   7.745  20.220  0.00  0.00    +0.000 A 
ATOM      9  N   UNL     1       2.197   6.496  20.153  0.00  0.00    +0.000 NA
ATOM     10  C   UNL     1       2.648   6.303  18.874  0.00  0.00    +0.000 A 
ATOM     11  C   UNL     1       2.490   7.455  18.138  0.00  0.00    +0.000 A 
ATOM     12  N   UNL     1       1.918   8.354  18.998  0.00  0.00    +0.000 N 
ATOM     13  H   UNL     1       1.640   9.300  18.779  0.00  0.00    +0.000 HD
ENDBRANCH   1  10
BRANCH   2  14
ATOM     14  C   UNL     1       5.684   5.596  18.096  0.00  0.00    +0.000 A 
ATOM     15  C   UNL     1       5.856   6.689  17.236  0.00  0.00    +0.000 A 
ATOM     16  C   UNL     1       7.019   7.460  17.276  0.00  0.00    +0.000 A 
ATOM     17  C   UNL     1       8.007   7.176  18.213  0.00  0.00    +0.000 A 
ATOM     18  C   UNL     1       7.822   6.137  19.123  0.00  0.00    +0.000 A 
ATOM     19  C   UNL     1       6.664   5.352  19.068  0.00  0.00    +0.000 A 
ENDBRANCH   2  14
TORSDOF 2
ENDMDL
MODEL 7
REMARK VINA RESULT:      -6.9      1.476      1.833
REMARK  Name = 
REMARK  4 active torsions:
REMARK  status: ('A' for Active; 'I' for Inactive)
REMARK    1  A    between atoms: C_1  and  C_2
REMARK    2  A    between atoms: C_4  and  C_5
REMARK    3  A    between atoms: C_6  and  C_7
REMARK    4  A    between atoms: N_15  and  C_16
REMARK                            x       y       z     vdW  Elec       q    Type
REMARK                         _______ _______ _______ _____ _____    ______ ____
ROOT
ATOM      1  C   UNL     1       3.330   5.048  18.230  0.00  0.00    +0.000 A 
ATOM      2  C   UNL     1       4.639   4.733  17.888  0.00  0.00    +0.000 A 
ATOM      3  N   UNL     1       4.717   3.425  17.444  0.00  0.00    +0.000 NA
ATOM      4  C   UNL     1       3.496   2.954  17.530  0.00  0.00    +0.000 A 
ATOM      5  N   UNL     1       2.628   3.885  18.022  0.00  0.00    +0.000 N 
ATOM      6  C   UNL     1       1.201   3.702  18.121  0.00  0.00    +0.000 C 
ENDROOT
BRANCH   1  10
ATOM      7  C   UNL     1       1.692   9.728  18.051  0.00  0.00    +0.000 C 
ATOM      8  C   UNL     1       2.100   8.390  18.532  0.00  0.00    +0.000 A 
ATOM      9  N   UNL     1       2.633   7.425  17.818  0.00  0.00    +0.000 NA
ATOM     10  C   UNL     1       2.777   6.355  18.662  0.00  0.00    +0.000 A 
ATOM     11  C   UNL     1       2.347   6.688  19.926  0.00  0.00    +0.000 A 
ATOM     12  N   UNL     1       1.948   7.995  19.836  0.00  0.00    +0.000 N 
ATOM     13  H   UNL     1       1.599   8.568  20.590  0.00  0.00    +0.000 HD
ENDBRANCH   1  10
BRANCH   2  14
ATOM     14  C   UNL     1       5.822   5.580  17.993  0.00  0.00    +0.000 A 
ATOM     15  C   UNL     1       6.818   5.335  18.949  0.00  0.00    +0.000 A 
ATOM     16  C   UNL     1       7.904   6.200  19.094  0.00  0.00    +0.000 A 
ATOM     17  C   UNL     1       8.035   7.296  18.248  0.00  0.00    +0.000 A 
ATOM     18  C   UNL     1       7.092   7.515  17.245  0.00  0.00    +0.000 A 
ATOM     19  C   UNL     1       5.992   6.659  17.115  0.00  0.00    +0.000 A 
ENDBRANCH   2  14
TORSDOF 2
ENDMDL
MODEL 8
REMARK VINA RESULT:      -6.9      1.691      4.523
REMARK  Name = 
REMARK  4 active torsions:
REMARK  status: ('A' for Active; 'I' for Inactive)
REMARK    1  A    between atoms: C_1  and  C_2
REMARK    2  A    between atoms: C_4  and  C_5
REMARK    3  A    between atoms: C_6  and  C_7
REMARK    4  A    between atoms: N_15  and  C_16
REMARK                            x       y       z     vdW  Elec       q    Type
REMARK                         _______ _______ _______ _____ _____    ______ ____
ROOT
ATOM      1  C   UNL     1       3.358   3.821  18.735  0.00  0.00    +0.000 A 
ATOM      2  C   UNL     1       2.260   4.554  19.166  0.00  0.00    +0.000 A 
ATOM      3  N   UNL     1       1.218   3.706  19.500  0.00  0.00    +0.000 NA
ATOM      4  C   UNL     1       1.665   2.495  19.262  0.00  0.00    +0.000 A 
ATOM      5  N   UNL     1       2.939   2.512  18.777  0.00  0.00    +0.000 N 
ATOM      6  C   UNL     1       3.738   1.337  18.532  0.00  0.00    +0.000 C 
ENDROOT
BRANCH   1  10
ATOM      7  C   UNL     1       7.892   5.793  19.146  0.00  0.00    +0.000 C 
ATOM      8  C   UNL     1       6.655   5.193  18.600  0.00  0.00    +0.000 A 
ATOM      9  N   UNL     1       5.555   4.916  19.262  0.00  0.00    +0.000 NA
ATOM     10  C   UNL     1       4.710   4.310  18.370  0.00  0.00    +0.000 A 
ATOM     11  C   UNL     1       5.300   4.245  17.129  0.00  0.00    +0.000 A 
ATOM     12  N   UNL     1       6.525   4.837  17.282  0.00  0.00    +0.000 N 
ATOM     13  H   UNL     1       7.215   4.985  16.560  0.00  0.00    +0.000 HD
ENDBRANCH   1  10
BRANCH   2  14
ATOM     14  C   UNL     1       2.124   6.003  19.243  0.00  0.00    +0.000 A 
ATOM     15  C   UNL     1       1.783   6.646  20.442  0.00  0.00    +0.000 A 
ATOM     16  C   UNL     1       1.576   8.025  20.485  0.00  0.00    +0.000 A 
ATOM     17  C   UNL     1       1.755   8.790  19.337  0.00  0.00    +0.000 A 
ATOM     18  C   UNL     1       2.162   8.178  18.152  0.00  0.00    +0.000 A 
ATOM     19  C   UNL     1       2.350   6.791  18.106  0.00  0.00    +0.000 A 
ENDBRANCH   2  14
TORSDOF 2
ENDMDL
MODEL 9
REMARK VINA RESULT:      -6.8      1.372      1.845
REMARK  Name = 
REMARK  4 active torsions:
REMARK  status: ('A' for Active; 'I' for Inactive)
REMARK    1  A    between atoms: C_1  and  C_2
REMARK    2  A    between atoms: C_4  and  C_5
REMARK    3  A    between atoms: C_6  and  C_7
REMARK    4  A    between atoms: N_15  and  C_16
REMARK                            x       y       z     vdW  Elec       q    Type
REMARK                         _______ _______ _______ _____ _____    ______ ____
ROOT
ATOM      1  C   UNL     1       3.055   4.478  18.696  0.00  0.00    +0.000 A 
ATOM      2  C   UNL     1       4.303   4.291  18.115  0.00  0.00    +0.000 A 
ATOM      3  N   UNL     1       4.362   3.058  17.490  0.00  0.00    +0.000 NA
ATOM      4  C   UNL     1       3.191   2.505  17.700  0.00  0.00    +0.000 A 
ATOM      5  N   UNL     1       2.377   3.309  18.443  0.00  0.00    +0.000 N 
ATOM      6  C   UNL     1       0.994   3.026  18.737  0.00  0.00    +0.000 C 
ENDROOT
BRANCH   1  10
ATOM      7  C   UNL     1       1.522   9.133  19.466  0.00  0.00    +0.000 C 
ATOM      8  C   UNL     1       1.895   7.715  19.667  0.00  0.00    +0.000 A 
ATOM      9  N   UNL     1       2.415   6.904  18.774  0.00  0.00    +0.000 NA
ATOM     10  C   UNL     1       2.526   5.681  19.382  0.00  0.00    +0.000 A 
ATOM     11  C   UNL     1       2.090   5.760  20.684  0.00  0.00    +0.000 A 
ATOM     12  N   UNL     1       1.721   7.066  20.862  0.00  0.00    +0.000 N 
ATOM     13  H   UNL     1       1.376   7.482  21.714  0.00  0.00    +0.000 HD
ENDBRANCH   1  10
BRANCH   2  14
ATOM     14  C   UNL     1       5.451   5.190  18.149  0.00  0.00    +0.000 A 
ATOM     15  C   UNL     1       5.611   6.213  17.204  0.00  0.00    +0.000 A 
ATOM     16  C   UNL     1       6.754   7.014  17.196  0.00  0.00    +0.000 A 
ATOM     17  C   UNL     1       7.732   6.834  18.168  0.00  0.00    +0.000 A 
ATOM     18  C   UNL     1       7.558   5.869  19.158  0.00  0.00    +0.000 A 
ATOM     19  C   UNL     1       6.421   5.052  19.152  0.00  0.00    +0.000 A 
ENDBRANCH   2  14
TORSDOF 2
ENDMDL
