MODEL 1
REMARK VINA RESULT:      -9.1      0.000      0.000
REMARK  Name = 
REMARK  5 active torsions:
REMARK  status: ('A' for Active; 'I' for Inactive)
REMARK    1  A    between atoms: C_1  and  C_2
REMARK    2  A    between atoms: C_8  and  S_9
REMARK    3  A    between atoms: S_9  and  N_12
REMARK    4  A    between atoms: N_12  and  C_13
REMARK    5  A    between atoms: N_21  and  C_22
REMARK                            x       y       z     vdW  Elec       q    Type
REMARK                         _______ _______ _______ _____ _____    ______ ____
ROOT
ATOM      1  C   UNL     1       0.671   9.268  19.885  0.00  0.00    +0.000 A 
ATOM      2  C   UNL     1       1.059   9.946  18.713  0.00  0.00    +0.000 A 
ATOM      3  C   UNL     1       2.032   9.405  17.868  0.00  0.00    +0.000 A 
ATOM      4  C   UNL     1       2.570   8.184  18.224  0.00  0.00    +0.000 A 
ATOM      5  C   UNL     1       2.198   7.524  19.379  0.00  0.00    +0.000 A 
ATOM      6  C   UNL     1       1.253   8.046  20.243  0.00  0.00    +0.000 A 
ATOM      7  C   UNL     1       2.933   6.257  19.409  0.00  0.00    +0.000 C 
ATOM      8  O   UNL     1       2.851   5.442  20.306  0.00  0.00    +0.000 OA
ATOM      9  N   UNL     1       3.699   6.215  18.272  0.00  0.00    +0.000 N 
ATOM     10  C   UNL     1       3.519   7.333  17.510  0.00  0.00    +0.000 C 
ATOM     11  O   UNL     1       3.980   7.606  16.421  0.00  0.00    +0.000 OA
ENDROOT
BRANCH   9  12
ATOM     12  C   UNL     1       4.503   5.059  17.890  0.00  0.00    +0.000 C 
ATOM     13  C   UNL     1       3.723   3.891  17.287  0.00  0.00    +0.000 C 
ATOM     14  C   UNL     1       3.272   2.857  18.304  0.00  0.00    +0.000 C 
ATOM     15  C   UNL     1       4.403   2.420  19.199  0.00  0.00    +0.000 C 
ATOM     16  O   UNL     1       4.435   1.312  19.725  0.00  0.00    +0.000 OA
ATOM     17  N   UNL     1       5.374   3.353  19.463  0.00  0.00    +0.000 N 
ATOM     18  C   UNL     1       5.410   4.664  19.059  0.00  0.00    +0.000 C 
ATOM     19  O   UNL     1       6.131   5.474  19.643  0.00  0.00    +0.000 OA
ATOM     20  H   UNL     1       6.020   3.098  20.198  0.00  0.00    +0.000 HD
ENDBRANCH   9  12
BRANCH   1  21
ATOM     21  N   UNL     1      -0.362   9.813  20.685  0.00  0.00    +0.000 N 
ATOM     22  H   UNL     1      -1.301   9.876  20.293  0.00  0.00    +0.000 HD
BRANCH  21  23
ATOM     23  S   UNL     1      -0.034  10.982  21.849  0.00  0.00    +0.000 S 
ATOM     24  O   UNL     1       0.908  11.936  21.307  0.00  0.00    +0.000 OA
ATOM     25  O   UNL     1       0.271  10.246  23.059  0.00  0.00    +0.000 OA
BRANCH  23  33
ATOM     26  C   UNL     1      -1.782  12.670  19.722  0.00  0.00    +0.000 C 
ATOM     27  C   UNL     1      -2.313  12.524  21.124  0.00  0.00    +0.000 A 
ATOM     28  C   UNL     1      -3.519  13.151  21.507  0.00  0.00    +0.000 A 
ATOM     29 CL   UNL     1      -4.471  14.094  20.411  0.00  0.00    +0.000 Cl
ATOM     30  C   UNL     1      -4.016  13.049  22.814  0.00  0.00    +0.000 A 
ATOM     31  C   UNL     1      -3.323  12.327  23.775  0.00  0.00    +0.000 A 
ATOM     32  C   UNL     1      -2.131  11.699  23.430  0.00  0.00    +0.000 A 
ATOM     33  C   UNL     1      -1.624  11.784  22.115  0.00  0.00    +0.000 A 
ENDBRANCH  23  33
ENDBRANCH  21  23
ENDBRANCH   1  21
TORSDOF 4
ENDMDL
MODEL 2
REMARK VINA RESULT:      -9.0      2.137      3.497
REMARK  Name = 
REMARK  5 active torsions:
REMARK  status: ('A' for Active; 'I' for Inactive)
REMARK    1  A    between atoms: C_1  and  C_2
REMARK    2  A    between atoms: C_8  and  S_9
REMARK    3  A    between atoms: S_9  and  N_12
REMARK    4  A    between atoms: N_12  and  C_13
REMARK    5  A    between atoms: N_21  and  C_22
REMARK                            x       y       z     vdW  Elec       q    Type
REMARK                         _______ _______ _______ _____ _____    ______ ____
ROOT
ATOM      1  C   UNL     1       1.350   9.657  18.735  0.00  0.00    +0.000 A 
ATOM      2  C   UNL     1       0.840   9.120  19.933  0.00  0.00    +0.000 A 
ATOM      3  C   UNL     1       1.259   7.865  20.384  0.00  0.00    +0.000 A 
ATOM      4  C   UNL     1       2.197   7.199  19.619  0.00  0.00    +0.000 A 
ATOM      5  C   UNL     1       2.689   7.721  18.438  0.00  0.00    +0.000 A 
ATOM      6  C   UNL     1       2.276   8.951  17.958  0.00  0.00    +0.000 A 
ATOM      7  C   UNL     1       3.682   6.773  17.927  0.00  0.00    +0.000 C 
ATOM      8  O   UNL     1       4.294   6.921  16.888  0.00  0.00    +0.000 OA
ATOM      9  N   UNL     1       3.743   5.739  18.826  0.00  0.00    +0.000 N 
ATOM     10  C   UNL     1       2.887   5.938  19.871  0.00  0.00    +0.000 C 
ATOM     11  O   UNL     1       2.723   5.268  20.871  0.00  0.00    +0.000 OA
ENDROOT
BRANCH   9  12
ATOM     12  C   UNL     1       4.695   4.638  18.718  0.00  0.00    +0.000 C 
ATOM     13  C   UNL     1       6.121   4.961  19.165  0.00  0.00    +0.000 C 
ATOM     14  C   UNL     1       7.025   5.450  18.048  0.00  0.00    +0.000 C 
ATOM     15  C   UNL     1       6.968   4.545  16.844  0.00  0.00    +0.000 C 
ATOM     16  O   UNL     1       7.908   4.430  16.063  0.00  0.00    +0.000 OA
ATOM     17  N   UNL     1       5.779   3.901  16.614  0.00  0.00    +0.000 N 
ATOM     18  C   UNL     1       4.606   4.028  17.316  0.00  0.00    +0.000 C 
ATOM     19  O   UNL     1       3.539   3.682  16.809  0.00  0.00    +0.000 OA
ATOM     20  H   UNL     1       5.710   3.445  15.714  0.00  0.00    +0.000 HD
ENDBRANCH   9  12
BRANCH   1  21
ATOM     21  N   UNL     1       0.952  10.957  18.340  0.00  0.00    +0.000 N 
ATOM     22  H   UNL     1       1.594  11.515  17.779  0.00  0.00    +0.000 HD
BRANCH  21  23
ATOM     23  S   UNL     1      -0.083  11.876  19.296  0.00  0.00    +0.000 S 
ATOM     24  O   UNL     1       0.203  13.278  19.089  0.00  0.00    +0.000 OA
ATOM     25  O   UNL     1      -0.005  11.293  20.620  0.00  0.00    +0.000 OA
BRANCH  23  33
ATOM     26  C   UNL     1      -2.930  13.006  20.318  0.00  0.00    +0.000 C 
ATOM     27  C   UNL     1      -2.923  12.019  19.180  0.00  0.00    +0.000 A 
ATOM     28  C   UNL     1      -4.133  11.566  18.610  0.00  0.00    +0.000 A 
ATOM     29 CL   UNL     1      -5.684  12.116  19.149  0.00  0.00    +0.000 Cl
ATOM     30  C   UNL     1      -4.148  10.628  17.568  0.00  0.00    +0.000 A 
ATOM     31  C   UNL     1      -2.959  10.113  17.070  0.00  0.00    +0.000 A 
ATOM     32  C   UNL     1      -1.751  10.537  17.610  0.00  0.00    +0.000 A 
ATOM     33  C   UNL     1      -1.720  11.489  18.653  0.00  0.00    +0.000 A 
ENDBRANCH  23  33
ENDBRANCH  21  23
ENDBRANCH   1  21
TORSDOF 4
ENDMDL
MODEL 3
REMARK VINA RESULT:      -9.0      1.456      2.304
REMARK  Name = 
REMARK  5 active torsions:
REMARK  status: ('A' for Active; 'I' for Inactive)
REMARK    1  A    between atoms: C_1  and  C_2
REMARK    2  A    between atoms: C_8  and  S_9
REMARK    3  A    between atoms: S_9  and  N_12
REMARK    4  A    between atoms: N_12  and  C_13
REMARK    5  A    between atoms: N_21  and  C_22
REMARK                            x       y       z     vdW  Elec       q    Type
REMARK                         _______ _______ _______ _____ _____    ______ ____
ROOT
ATOM      1  C   UNL     1       1.007   9.983  19.692  0.00  0.00    +0.000 A 
ATOM      2  C   UNL     1       0.735   9.213  20.839  0.00  0.00    +0.000 A 
ATOM      3  C   UNL     1       1.187   7.894  20.934  0.00  0.00    +0.000 A 
ATOM      4  C   UNL     1       1.920   7.400  19.873  0.00  0.00    +0.000 A 
ATOM      5  C   UNL     1       2.178   8.151  18.743  0.00  0.00    +0.000 A 
ATOM      6  C   UNL     1       1.724   9.451  18.614  0.00  0.00    +0.000 A 
ATOM      7  C   UNL     1       3.006   7.329  17.857  0.00  0.00    +0.000 C 
ATOM      8  O   UNL     1       3.396   7.686  16.763  0.00  0.00    +0.000 OA
ATOM      9  N   UNL     1       3.211   6.135  18.500  0.00  0.00    +0.000 N 
ATOM     10  C   UNL     1       2.598   6.116  19.719  0.00  0.00    +0.000 C 
ATOM     11  O   UNL     1       2.618   5.258  20.578  0.00  0.00    +0.000 OA
ENDROOT
BRANCH   9  12
ATOM     12  C   UNL     1       4.076   5.082  17.978  0.00  0.00    +0.000 C 
ATOM     13  C   UNL     1       3.349   3.882  17.368  0.00  0.00    +0.000 C 
ATOM     14  C   UNL     1       3.081   2.755  18.349  0.00  0.00    +0.000 C 
ATOM     15  C   UNL     1       4.320   2.374  19.117  0.00  0.00    +0.000 C 
ATOM     16  O   UNL     1       4.494   1.245  19.565  0.00  0.00    +0.000 OA
ATOM     17  N   UNL     1       5.226   3.375  19.359  0.00  0.00    +0.000 N 
ATOM     18  C   UNL     1       5.112   4.705  19.039  0.00  0.00    +0.000 C 
ATOM     19  O   UNL     1       5.809   5.543  19.613  0.00  0.00    +0.000 OA
ATOM     20  H   UNL     1       5.954   3.139  20.020  0.00  0.00    +0.000 HD
ENDBRANCH   9  12
BRANCH   1  21
ATOM     21  N   UNL     1       0.587  11.335  19.655  0.00  0.00    +0.000 N 
ATOM     22  H   UNL     1       1.020  11.998  20.297  0.00  0.00    +0.000 HD
BRANCH  21  23
ATOM     23  S   UNL     1      -0.984  11.745  19.215  0.00  0.00    +0.000 S 
ATOM     24  O   UNL     1      -1.641  10.579  18.671  0.00  0.00    +0.000 OA
ATOM     25  O   UNL     1      -0.860  12.958  18.432  0.00  0.00    +0.000 OA
BRANCH  23  33
ATOM     26  C   UNL     1      -4.079  12.499  19.737  0.00  0.00    +0.000 C 
ATOM     27  C   UNL     1      -3.129  12.546  20.905  0.00  0.00    +0.000 A 
ATOM     28  C   UNL     1      -3.573  12.956  22.181  0.00  0.00    +0.000 A 
ATOM     29 CL   UNL     1      -5.215  13.403  22.500  0.00  0.00    +0.000 Cl
ATOM     30  C   UNL     1      -2.698  13.030  23.274  0.00  0.00    +0.000 A 
ATOM     31  C   UNL     1      -1.357  12.706  23.124  0.00  0.00    +0.000 A 
ATOM     32  C   UNL     1      -0.888  12.300  21.879  0.00  0.00    +0.000 A 
ATOM     33  C   UNL     1      -1.760  12.210  20.772  0.00  0.00    +0.000 A 
ENDBRANCH  23  33
ENDBRANCH  21  23
ENDBRANCH   1  21
TORSDOF 4
ENDMDL
MODEL 4
REMARK VINA RESULT:      -8.9      1.391      1.905
REMARK  Name = 
REMARK  5 active torsions:
REMARK  status: ('A' for Active; 'I' for Inactive)
REMARK    1  A    between atoms: C_1  and  C_2
REMARK    2  A    between atoms: C_8  and  S_9
REMARK    3  A    between atoms: S_9  and  N_12
REMARK    4  A    between atoms: N_12  and  C_13
REMARK    5  A    between atoms: N_21  and  C_22
REMARK                            x       y       z     vdW  Elec       q    Type
REMARK                         _______ _______ _______ _____ _____    ______ ____
ROOT
ATOM      1  C   UNL     1       0.716   9.183  19.883  0.00  0.00    +0.000 A 
ATOM      2  C   UNL     1       1.186   9.712  18.665  0.00  0.00    +0.000 A 
ATOM      3  C   UNL     1       2.182   9.053  17.940  0.00  0.00    +0.000 A 
ATOM      4  C   UNL     1       2.659   7.865  18.458  0.00  0.00    +0.000 A 
ATOM      5  C   UNL     1       2.207   7.351  19.658  0.00  0.00    +0.000 A 
ATOM      6  C   UNL     1       1.237   7.994  20.407  0.00  0.00    +0.000 A 
ATOM      7  C   UNL     1       2.897   6.076  19.870  0.00  0.00    +0.000 C 
ATOM      8  O   UNL     1       2.741   5.370  20.846  0.00  0.00    +0.000 OA
ATOM      9  N   UNL     1       3.717   5.884  18.787  0.00  0.00    +0.000 N 
ATOM     10  C   UNL     1       3.614   6.913  17.897  0.00  0.00    +0.000 C 
ATOM     11  O   UNL     1       4.139   7.048  16.811  0.00  0.00    +0.000 OA
ENDROOT
BRANCH   9  12
ATOM     12  C   UNL     1       4.501   4.670  18.581  0.00  0.00    +0.000 C 
ATOM     13  C   UNL     1       6.016   4.844  18.694  0.00  0.00    +0.000 C 
ATOM     14  C   UNL     1       6.705   5.148  17.376  0.00  0.00    +0.000 C 
ATOM     15  C   UNL     1       6.295   4.184  16.293  0.00  0.00    +0.000 C 
ATOM     16  O   UNL     1       7.027   3.906  15.348  0.00  0.00    +0.000 OA
ATOM     17  N   UNL     1       5.022   3.677  16.371  0.00  0.00    +0.000 N 
ATOM     18  C   UNL     1       4.048   3.990  17.286  0.00  0.00    +0.000 C 
ATOM     19  O   UNL     1       2.866   3.746  17.042  0.00  0.00    +0.000 OA
ATOM     20  H   UNL     1       4.713   3.177  15.548  0.00  0.00    +0.000 HD
ENDBRANCH   9  12
BRANCH   1  21
ATOM     21  N   UNL     1      -0.337   9.843  20.560  0.00  0.00    +0.000 N 
ATOM     22  H   UNL     1      -1.213  10.001  20.063  0.00  0.00    +0.000 HD
BRANCH  21  23
ATOM     23  S   UNL     1      -0.021  10.985  21.754  0.00  0.00    +0.000 S 
ATOM     24  O   UNL     1       0.907  11.965  21.236  0.00  0.00    +0.000 OA
ATOM     25  O   UNL     1       0.297  10.220  22.943  0.00  0.00    +0.000 OA
BRANCH  23  33
ATOM     26  C   UNL     1      -1.854  12.603  19.644  0.00  0.00    +0.000 C 
ATOM     27  C   UNL     1      -2.348  12.469  21.061  0.00  0.00    +0.000 A 
ATOM     28  C   UNL     1      -3.557  13.077  21.463  0.00  0.00    +0.000 A 
ATOM     29 CL   UNL     1      -4.555  13.983  20.376  0.00  0.00    +0.000 Cl
ATOM     30  C   UNL     1      -4.021  12.985  22.783  0.00  0.00    +0.000 A 
ATOM     31  C   UNL     1      -3.291  12.292  23.738  0.00  0.00    +0.000 A 
ATOM     32  C   UNL     1      -2.095  11.683  23.374  0.00  0.00    +0.000 A 
ATOM     33  C   UNL     1      -1.621  11.758  22.046  0.00  0.00    +0.000 A 
ENDBRANCH  23  33
ENDBRANCH  21  23
ENDBRANCH   1  21
TORSDOF 4
ENDMDL
MODEL 5
REMARK VINA RESULT:      -8.8      1.986      3.057
REMARK  Name = 
REMARK  5 active torsions:
REMARK  status: ('A' for Active; 'I' for Inactive)
REMARK    1  A    between atoms: C_1  and  C_2
REMARK    2  A    between atoms: C_8  and  S_9
REMARK    3  A    between atoms: S_9  and  N_12
REMARK    4  A    between atoms: N_12  and  C_13
REMARK    5  A    between atoms: N_21  and  C_22
REMARK                            x       y       z     vdW  Elec       q    Type
REMARK                         _______ _______ _______ _____ _____    ______ ____
ROOT
ATOM      1  C   UNL     1       1.178   9.490  19.515  0.00  0.00    +0.000 A 
ATOM      2  C   UNL     1       0.735   8.796  20.657  0.00  0.00    +0.000 A 
ATOM      3  C   UNL     1       1.166   7.491  20.908  0.00  0.00    +0.000 A 
ATOM      4  C   UNL     1       2.049   6.933  20.005  0.00  0.00    +0.000 A 
ATOM      5  C   UNL     1       2.475   7.609  18.878  0.00  0.00    +0.000 A 
ATOM      6  C   UNL     1       2.048   8.894  18.595  0.00  0.00    +0.000 A 
ATOM      7  C   UNL     1       3.425   6.736  18.183  0.00  0.00    +0.000 C 
ATOM      8  O   UNL     1       3.976   7.022  17.139  0.00  0.00    +0.000 OA
ATOM      9  N   UNL     1       3.529   5.589  18.929  0.00  0.00    +0.000 N 
ATOM     10  C   UNL     1       2.740   5.647  20.041  0.00  0.00    +0.000 C 
ATOM     11  O   UNL     1       2.629   4.849  20.949  0.00  0.00    +0.000 OA
ENDROOT
BRANCH   9  12
ATOM     12  C   UNL     1       4.461   4.511  18.615  0.00  0.00    +0.000 C 
ATOM     13  C   UNL     1       5.925   4.793  18.955  0.00  0.00    +0.000 C 
ATOM     14  C   UNL     1       6.720   5.401  17.814  0.00  0.00    +0.000 C 
ATOM     15  C   UNL     1       6.544   4.627  16.532  0.00  0.00    +0.000 C 
ATOM     16  O   UNL     1       7.403   4.600  15.657  0.00  0.00    +0.000 OA
ATOM     17  N   UNL     1       5.335   4.005  16.352  0.00  0.00    +0.000 N 
ATOM     18  C   UNL     1       4.235   4.051  17.172  0.00  0.00    +0.000 C 
ATOM     19  O   UNL     1       3.122   3.755  16.736  0.00  0.00    +0.000 OA
ATOM     20  H   UNL     1       5.177   3.645  15.420  0.00  0.00    +0.000 HD
ENDBRANCH   9  12
BRANCH   1  21
ATOM     21  N   UNL     1       0.771  10.833  19.324  0.00  0.00    +0.000 N 
ATOM     22  H   UNL     1       1.249  11.566  19.847  0.00  0.00    +0.000 HD
BRANCH  21  23
ATOM     23  S   UNL     1      -0.819  11.211  18.927  0.00  0.00    +0.000 S 
ATOM     24  O   UNL     1      -1.503  10.005  18.519  0.00  0.00    +0.000 OA
ATOM     25  O   UNL     1      -0.733  12.350  18.036  0.00  0.00    +0.000 OA
BRANCH  23  33
ATOM     26  C   UNL     1      -3.821  12.272  19.462  0.00  0.00    +0.000 C 
ATOM     27  C   UNL     1      -2.848  12.281  20.611  0.00  0.00    +0.000 A 
ATOM     28  C   UNL     1      -3.227  12.785  21.874  0.00  0.00    +0.000 A 
ATOM     29 CL   UNL     1      -4.815  13.397  22.198  0.00  0.00    +0.000 Cl
ATOM     30  C   UNL     1      -2.328  12.825  22.949  0.00  0.00    +0.000 A 
ATOM     31  C   UNL     1      -1.026  12.371  22.793  0.00  0.00    +0.000 A 
ATOM     32  C   UNL     1      -0.620  11.870  21.562  0.00  0.00    +0.000 A 
ATOM     33  C   UNL     1      -1.518  11.813  20.473  0.00  0.00    +0.000 A 
ENDBRANCH  23  33
ENDBRANCH  21  23
ENDBRANCH   1  21
TORSDOF 4
ENDMDL
MODEL 6
REMARK VINA RESULT:      -8.7      1.281      1.367
REMARK  Name = 
REMARK  5 active torsions:
REMARK  status: ('A' for Active; 'I' for Inactive)
REMARK    1  A    between atoms: C_1  and  C_2
REMARK    2  A    between atoms: C_8  and  S_9
REMARK    3  A    between atoms: S_9  and  N_12
REMARK    4  A    between atoms: N_12  and  C_13
REMARK    5  A    between atoms: N_21  and  C_22
REMARK                            x       y       z     vdW  Elec       q    Type
REMARK                         _______ _______ _______ _____ _____    ______ ____
ROOT
ATOM      1  C   UNL     1       0.945   9.186  19.592  0.00  0.00    +0.000 A 
ATOM      2  C   UNL     1       1.411   9.825  18.427  0.00  0.00    +0.000 A 
ATOM      3  C   UNL     1       2.391   9.226  17.630  0.00  0.00    +0.000 A 
ATOM      4  C   UNL     1       2.856   7.987  18.026  0.00  0.00    +0.000 A 
ATOM      5  C   UNL     1       2.407   7.365  19.175  0.00  0.00    +0.000 A 
ATOM      6  C   UNL     1       1.454   7.945  19.992  0.00  0.00    +0.000 A 
ATOM      7  C   UNL     1       3.081   6.066  19.254  0.00  0.00    +0.000 C 
ATOM      8  O   UNL     1       2.924   5.271  20.159  0.00  0.00    +0.000 OA
ATOM      9  N   UNL     1       3.889   5.970  18.150  0.00  0.00    +0.000 N 
ATOM     10  C   UNL     1       3.792   7.082  17.365  0.00  0.00    +0.000 C 
ATOM     11  O   UNL     1       4.310   7.315  16.292  0.00  0.00    +0.000 OA
ENDROOT
BRANCH   9  12
ATOM     12  C   UNL     1       4.653   4.772  17.818  0.00  0.00    +0.000 C 
ATOM     13  C   UNL     1       3.858   3.658  17.134  0.00  0.00    +0.000 C 
ATOM     14  C   UNL     1       3.263   2.643  18.093  0.00  0.00    +0.000 C 
ATOM     15  C   UNL     1       4.287   2.130  19.073  0.00  0.00    +0.000 C 
ATOM     16  O   UNL     1       4.209   1.016  19.582  0.00  0.00    +0.000 OA
ATOM     17  N   UNL     1       5.285   3.000  19.431  0.00  0.00    +0.000 N 
ATOM     18  C   UNL     1       5.433   4.311  19.052  0.00  0.00    +0.000 C 
ATOM     19  O   UNL     1       6.148   5.069  19.706  0.00  0.00    +0.000 OA
ATOM     20  H   UNL     1       5.851   2.698  20.213  0.00  0.00    +0.000 HD
ENDBRANCH   9  12
BRANCH   1  21
ATOM     21  N   UNL     1      -0.093   9.791  20.341  0.00  0.00    +0.000 N 
ATOM     22  H   UNL     1      -0.678  10.491  19.887  0.00  0.00    +0.000 HD
BRANCH  21  23
ATOM     23  S   UNL     1       0.044   9.999  22.004  0.00  0.00    +0.000 S 
ATOM     24  O   UNL     1       1.443  10.099  22.354  0.00  0.00    +0.000 OA
ATOM     25  O   UNL     1      -0.794   8.973  22.591  0.00  0.00    +0.000 OA
BRANCH  23  33
ATOM     26  C   UNL     1       0.939  12.927  20.977  0.00  0.00    +0.000 C 
ATOM     27  C   UNL     1      -0.295  12.819  21.834  0.00  0.00    +0.000 A 
ATOM     28  C   UNL     1      -1.010  13.975  22.217  0.00  0.00    +0.000 A 
ATOM     29 CL   UNL     1      -0.547  15.568  21.719  0.00  0.00    +0.000 Cl
ATOM     30  C   UNL     1      -2.145  13.898  23.035  0.00  0.00    +0.000 A 
ATOM     31  C   UNL     1      -2.595  12.670  23.501  0.00  0.00    +0.000 A 
ATOM     32  C   UNL     1      -1.911  11.513  23.144  0.00  0.00    +0.000 A 
ATOM     33  C   UNL     1      -0.773  11.575  22.311  0.00  0.00    +0.000 A 
ENDBRANCH  23  33
ENDBRANCH  21  23
ENDBRANCH   1  21
TORSDOF 4
ENDMDL
MODEL 7
REMARK VINA RESULT:      -8.7      1.859      2.966
REMARK  Name = 
REMARK  5 active torsions:
REMARK  status: ('A' for Active; 'I' for Inactive)
REMARK    1  A    between atoms: C_1  and  C_2
REMARK    2  A    between atoms: C_8  and  S_9
REMARK    3  A    between atoms: S_9  and  N_12
REMARK    4  A    between atoms: N_12  and  C_13
REMARK    5  A    between atoms: N_21  and  C_22
REMARK                            x       y       z     vdW  Elec       q    Type
REMARK                         _______ _______ _______ _____ _____    ______ ____
ROOT
ATOM      1  C   UNL     1       1.282   9.784  18.617  0.00  0.00    +0.000 A 
ATOM      2  C   UNL     1       0.761   9.281  19.825  0.00  0.00    +0.000 A 
ATOM      3  C   UNL     1       1.180   8.042  20.319  0.00  0.00    +0.000 A 
ATOM      4  C   UNL     1       2.129   7.358  19.586  0.00  0.00    +0.000 A 
ATOM      5  C   UNL     1       2.632   7.846  18.395  0.00  0.00    +0.000 A 
ATOM      6  C   UNL     1       2.219   9.059  17.873  0.00  0.00    +0.000 A 
ATOM      7  C   UNL     1       3.635   6.887  17.924  0.00  0.00    +0.000 C 
ATOM      8  O   UNL     1       4.258   7.006  16.888  0.00  0.00    +0.000 OA
ATOM      9  N   UNL     1       3.690   5.881  18.855  0.00  0.00    +0.000 N 
ATOM     10  C   UNL     1       2.822   6.108  19.884  0.00  0.00    +0.000 C 
ATOM     11  O   UNL     1       2.650   5.469  20.901  0.00  0.00    +0.000 OA
ENDROOT
BRANCH   9  12
ATOM     12  C   UNL     1       4.648   4.782  18.791  0.00  0.00    +0.000 C 
ATOM     13  C   UNL     1       6.071   5.129  19.230  0.00  0.00    +0.000 C 
ATOM     14  C   UNL     1       6.976   5.580  18.098  0.00  0.00    +0.000 C 
ATOM     15  C   UNL     1       6.928   4.631  16.929  0.00  0.00    +0.000 C 
ATOM     16  O   UNL     1       7.871   4.491  16.156  0.00  0.00    +0.000 OA
ATOM     17  N   UNL     1       5.743   3.973  16.720  0.00  0.00    +0.000 N 
ATOM     18  C   UNL     1       4.567   4.120  17.413  0.00  0.00    +0.000 C 
ATOM     19  O   UNL     1       3.503   3.749  16.916  0.00  0.00    +0.000 OA
ATOM     20  H   UNL     1       5.679   3.483  15.837  0.00  0.00    +0.000 HD
ENDBRANCH   9  12
BRANCH   1  21
ATOM     21  N   UNL     1       0.883  11.070  18.179  0.00  0.00    +0.000 N 
ATOM     22  H   UNL     1       0.904  11.273  17.180  0.00  0.00    +0.000 HD
BRANCH  21  23
ATOM     23  S   UNL     1       1.102  12.425  19.150  0.00  0.00    +0.000 S 
ATOM     24  O   UNL     1       1.149  13.603  18.314  0.00  0.00    +0.000 OA
ATOM     25  O   UNL     1       2.208  12.096  20.027  0.00  0.00    +0.000 OA
BRANCH  23  33
ATOM     26  C   UNL     1      -1.974  12.213  18.193  0.00  0.00    +0.000 C 
ATOM     27  C   UNL     1      -1.696  12.385  19.663  0.00  0.00    +0.000 A 
ATOM     28  C   UNL     1      -2.757  12.500  20.589  0.00  0.00    +0.000 A 
ATOM     29 CL   UNL     1      -4.422  12.427  20.117  0.00  0.00    +0.000 Cl
ATOM     30  C   UNL     1      -2.519  12.687  21.958  0.00  0.00    +0.000 A 
ATOM     31  C   UNL     1      -1.221  12.772  22.440  0.00  0.00    +0.000 A 
ATOM     32  C   UNL     1      -0.154  12.665  21.554  0.00  0.00    +0.000 A 
ATOM     33  C   UNL     1      -0.379  12.465  20.174  0.00  0.00    +0.000 A 
ENDBRANCH  23  33
ENDBRANCH  21  23
ENDBRANCH   1  21
TORSDOF 4
ENDMDL
MODEL 8
REMARK VINA RESULT:      -8.6      1.821      3.073
REMARK  Name = 
REMARK  5 active torsions:
REMARK  status: ('A' for Active; 'I' for Inactive)
REMARK    1  A    between atoms: C_1  and  C_2
REMARK    2  A    between atoms: C_8  and  S_9
REMARK    3  A    between atoms: S_9  and  N_12
REMARK    4  A    between atoms: N_12  and  C_13
REMARK    5  A    between atoms: N_21  and  C_22
REMARK                            x       y       z     vdW  Elec       q    Type
REMARK                         _______ _______ _______ _____ _____    ______ ____
ROOT
ATOM      1  C   UNL     1       1.119  10.034  19.560  0.00  0.00    +0.000 A 
ATOM      2  C   UNL     1       0.835   9.302  20.729  0.00  0.00    +0.000 A 
ATOM      3  C   UNL     1       1.265   7.978  20.861  0.00  0.00    +0.000 A 
ATOM      4  C   UNL     1       1.987   7.440  19.814  0.00  0.00    +0.000 A 
ATOM      5  C   UNL     1       2.256   8.155  18.662  0.00  0.00    +0.000 A 
ATOM      6  C   UNL     1       1.825   9.459  18.497  0.00  0.00    +0.000 A 
ATOM      7  C   UNL     1       3.068   7.293  17.799  0.00  0.00    +0.000 C 
ATOM      8  O   UNL     1       3.462   7.611  16.695  0.00  0.00    +0.000 OA
ATOM      9  N   UNL     1       3.252   6.114  18.475  0.00  0.00    +0.000 N 
ATOM     10  C   UNL     1       2.641   6.141  19.696  0.00  0.00    +0.000 C 
ATOM     11  O   UNL     1       2.647   5.307  20.579  0.00  0.00    +0.000 OA
ENDROOT
BRANCH   9  12
ATOM     12  C   UNL     1       4.097   5.031  17.983  0.00  0.00    +0.000 C 
ATOM     13  C   UNL     1       3.348   3.823  17.420  0.00  0.00    +0.000 C 
ATOM     14  C   UNL     1       3.072   2.734  18.440  0.00  0.00    +0.000 C 
ATOM     15  C   UNL     1       4.311   2.360  19.211  0.00  0.00    +0.000 C 
ATOM     16  O   UNL     1       4.473   1.244  19.696  0.00  0.00    +0.000 OA
ATOM     17  N   UNL     1       5.234   3.355  19.412  0.00  0.00    +0.000 N 
ATOM     18  C   UNL     1       5.137   4.675  19.048  0.00  0.00    +0.000 C 
ATOM     19  O   UNL     1       5.851   5.522  19.588  0.00  0.00    +0.000 OA
ATOM     20  H   UNL     1       5.964   3.130  20.075  0.00  0.00    +0.000 HD
ENDBRANCH   9  12
BRANCH   1  21
ATOM     21  N   UNL     1       0.725  11.391  19.485  0.00  0.00    +0.000 N 
ATOM     22  H   UNL     1       1.444  12.112  19.525  0.00  0.00    +0.000 HD
BRANCH  21  23
ATOM     23  S   UNL     1      -0.770  11.894  20.071  0.00  0.00    +0.000 S 
ATOM     24  O   UNL     1      -0.779  13.337  20.163  0.00  0.00    +0.000 OA
ATOM     25  O   UNL     1      -1.021  11.076  21.240  0.00  0.00    +0.000 OA
BRANCH  23  33
ATOM     26  C   UNL     1      -3.928  12.540  19.880  0.00  0.00    +0.000 C 
ATOM     27  C   UNL     1      -3.312  11.675  18.812  0.00  0.00    +0.000 A 
ATOM     28  C   UNL     1      -4.107  11.123  17.783  0.00  0.00    +0.000 A 
ATOM     29 CL   UNL     1      -5.810  11.413  17.661  0.00  0.00    +0.000 Cl
ATOM     30  C   UNL     1      -3.558  10.295  16.795  0.00  0.00    +0.000 A 
ATOM     31  C   UNL     1      -2.204   9.989  16.808  0.00  0.00    +0.000 A 
ATOM     32  C   UNL     1      -1.394  10.514  17.808  0.00  0.00    +0.000 A 
ATOM     33  C   UNL     1      -1.932  11.359  18.804  0.00  0.00    +0.000 A 
ENDBRANCH  23  33
ENDBRANCH  21  23
ENDBRANCH   1  21
TORSDOF 4
ENDMDL
MODEL 9
REMARK VINA RESULT:      -8.6      0.938      1.369
REMARK  Name = 
REMARK  5 active torsions:
REMARK  status: ('A' for Active; 'I' for Inactive)
REMARK    1  A    between atoms: C_1  and  C_2
REMARK    2  A    between atoms: C_8  and  S_9
REMARK    3  A    between atoms: S_9  and  N_12
REMARK    4  A    between atoms: N_12  and  C_13
REMARK    5  A    between atoms: N_21  and  C_22
REMARK                            x       y       z     vdW  Elec       q    Type
REMARK                         _______ _______ _______ _____ _____    ______ ____
ROOT
ATOM      1  C   UNL     1       0.693   9.340  19.860  0.00  0.00    +0.000 A 
ATOM      2  C   UNL     1       1.081  10.006  18.682  0.00  0.00    +0.000 A 
ATOM      3  C   UNL     1       2.046   9.452  17.836  0.00  0.00    +0.000 A 
ATOM      4  C   UNL     1       2.576   8.230  18.199  0.00  0.00    +0.000 A 
ATOM      5  C   UNL     1       2.204   7.581  19.361  0.00  0.00    +0.000 A 
ATOM      6  C   UNL     1       1.267   8.117  20.226  0.00  0.00    +0.000 A 
ATOM      7  C   UNL     1       2.930   6.309  19.397  0.00  0.00    +0.000 C 
ATOM      8  O   UNL     1       2.846   5.501  20.301  0.00  0.00    +0.000 OA
ATOM      9  N   UNL     1       3.691   6.253  18.257  0.00  0.00    +0.000 N 
ATOM     10  C   UNL     1       3.516   7.367  17.488  0.00  0.00    +0.000 C 
ATOM     11  O   UNL     1       3.975   7.628  16.395  0.00  0.00    +0.000 OA
ENDROOT
BRANCH   9  12
ATOM     12  C   UNL     1       4.485   5.089  17.880  0.00  0.00    +0.000 C 
ATOM     13  C   UNL     1       3.695   3.927  17.277  0.00  0.00    +0.000 C 
ATOM     14  C   UNL     1       3.230   2.900  18.293  0.00  0.00    +0.000 C 
ATOM     15  C   UNL     1       4.353   2.453  19.193  0.00  0.00    +0.000 C 
ATOM     16  O   UNL     1       4.371   1.345  19.721  0.00  0.00    +0.000 OA
ATOM     17  N   UNL     1       5.332   3.376  19.459  0.00  0.00    +0.000 N 
ATOM     18  C   UNL     1       5.383   4.687  19.053  0.00  0.00    +0.000 C 
ATOM     19  O   UNL     1       6.109   5.490  19.639  0.00  0.00    +0.000 OA
ATOM     20  H   UNL     1       5.973   3.116  20.197  0.00  0.00    +0.000 HD
ENDBRANCH   9  12
BRANCH   1  21
ATOM     21  N   UNL     1      -0.333   9.899  20.661  0.00  0.00    +0.000 N 
ATOM     22  H   UNL     1      -1.296   9.839  20.332  0.00  0.00    +0.000 HD
BRANCH  21  23
ATOM     23  S   UNL     1      -0.037  11.227  21.650  0.00  0.00    +0.000 S 
ATOM     24  O   UNL     1       1.181  11.874  21.218  0.00  0.00    +0.000 OA
ATOM     25  O   UNL     1      -0.173  10.735  23.006  0.00  0.00    +0.000 OA
BRANCH  23  33
ATOM     26  C   UNL     1      -0.922  13.837  23.331  0.00  0.00    +0.000 C 
ATOM     27  C   UNL     1      -1.767  13.429  22.154  0.00  0.00    +0.000 A 
ATOM     28  C   UNL     1      -2.941  14.142  21.827  0.00  0.00    +0.000 A 
ATOM     29 CL   UNL     1      -3.473  15.526  22.721  0.00  0.00    +0.000 Cl
ATOM     30  C   UNL     1      -3.755  13.762  20.750  0.00  0.00    +0.000 A 
ATOM     31  C   UNL     1      -3.426  12.658  19.976  0.00  0.00    +0.000 A 
ATOM     32  C   UNL     1      -2.277  11.934  20.273  0.00  0.00    +0.000 A 
ATOM     33  C   UNL     1      -1.442  12.312  21.347  0.00  0.00    +0.000 A 
ENDBRANCH  23  33
ENDBRANCH  21  23
ENDBRANCH   1  21
TORSDOF 4
ENDMDL
