MODEL 1
REMARK VINA RESULT:      -8.0      0.000      0.000
REMARK  Name = 
REMARK  5 active torsions:
REMARK  status: ('A' for Active; 'I' for Inactive)
REMARK    1  A    between atoms: C_2  and  C_3
REMARK    2  A    between atoms: C_3  and  C_4
REMARK    3  A    between atoms: N_10  and  C_11
REMARK    4  A    between atoms: N_14  and  C_15
REMARK    5  A    between atoms: C_15  and  C_16
REMARK                            x       y       z     vdW  Elec       q    Type
REMARK                         _______ _______ _______ _____ _____    ______ ____
ROOT
ATOM      1  C   UNL     1       6.485   5.585  17.241  0.00  0.00    +0.000 C 
ATOM      2  C   UNL     1       6.261   5.053  18.658  0.00  0.00    +0.000 C 
ATOM      3  C   UNL     1       4.780   5.004  19.036  0.00  0.00    +0.000 C 
ATOM      4  N   UNL     1       4.093   6.295  18.858  0.00  0.00    +0.000 NA
ATOM      5  C   UNL     1       4.266   6.792  17.479  0.00  0.00    +0.000 C 
ATOM      6  C   UNL     1       5.739   6.913  17.082  0.00  0.00    +0.000 C 
ENDROOT
BRANCH   1   9
ATOM      7  O   UNL     1       7.548   5.401  14.623  0.00  0.00    +0.000 OA
ATOM      8  C   UNL     1       6.676   4.611  14.963  0.00  0.00    +0.000 C 
ATOM      9  N   UNL     1       6.102   4.608  16.217  0.00  0.00    +0.000 N 
ATOM     10  H   UNL     1       5.590   3.782  16.500  0.00  0.00    +0.000 HD
BRANCH   8  11
ATOM     11  C   UNL     1       6.147   3.545  14.018  0.00  0.00    +0.000 C 
BRANCH  11  12
ATOM     12  C   UNL     1       5.996   4.008  12.553  0.00  0.00    +0.000 C 
ATOM     13  C   UNL     1       7.305   3.946  11.745  0.00  0.00    +0.000 C 
ATOM     14  C   UNL     1       7.762   2.518  11.455  0.00  0.00    +0.000 C 
ATOM     15  C   UNL     1       6.675   1.708  10.754  0.00  0.00    +0.000 C 
ATOM     16  C   UNL     1       5.349   1.754  11.511  0.00  0.00    +0.000 C 
ATOM     17  C   UNL     1       4.913   3.186  11.826  0.00  0.00    +0.000 C 
ENDBRANCH  11  12
ENDBRANCH   8  11
ENDBRANCH   1   9
BRANCH   4  18
ATOM     18  C   UNL     1       2.656   6.125  19.199  0.00  0.00    +0.000 C 
BRANCH  18  19
ATOM     19  C   UNL     1       2.307   4.764  19.765  0.00  0.00    +0.000 A 
ATOM     20  C   UNL     1       2.325   4.580  21.157  0.00  0.00    +0.000 A 
ATOM     21  C   UNL     1       1.932   3.360  21.689  0.00  0.00    +0.000 A 
ATOM     22  N   UNL     1       1.522   2.316  20.936  0.00  0.00    +0.000 NA
ATOM     23  C   UNL     1       1.533   2.492  19.593  0.00  0.00    +0.000 A 
ATOM     24  C   UNL     1       1.925   3.676  18.968  0.00  0.00    +0.000 A 
ATOM     25 CL   UNL     1       1.924   3.721  17.245  0.00  0.00    +0.000 Cl
ENDBRANCH  18  19
ENDBRANCH   4  18
TORSDOF 5
ENDMDL
MODEL 2
REMARK VINA RESULT:      -7.8      3.850      6.745
REMARK  Name = 
REMARK  5 active torsions:
REMARK  status: ('A' for Active; 'I' for Inactive)
REMARK    1  A    between atoms: C_2  and  C_3
REMARK    2  A    between atoms: C_3  and  C_4
REMARK    3  A    between atoms: N_10  and  C_11
REMARK    4  A    between atoms: N_14  and  C_15
REMARK    5  A    between atoms: C_15  and  C_16
REMARK                            x       y       z     vdW  Elec       q    Type
REMARK                         _______ _______ _______ _____ _____    ______ ____
ROOT
ATOM      1  C   UNL     1       7.251   6.194  16.955  0.00  0.00    +0.000 C 
ATOM      2  C   UNL     1       6.237   5.858  15.860  0.00  0.00    +0.000 C 
ATOM      3  C   UNL     1       4.799   6.163  16.280  0.00  0.00    +0.000 C 
ATOM      4  N   UNL     1       4.416   5.520  17.549  0.00  0.00    +0.000 NA
ATOM      5  C   UNL     1       5.365   5.878  18.622  0.00  0.00    +0.000 C 
ATOM      6  C   UNL     1       6.811   5.532  18.264  0.00  0.00    +0.000 C 
ENDROOT
BRANCH   1   9
ATOM      7  O   UNL     1       8.721   7.486  19.002  0.00  0.00    +0.000 OA
ATOM      8  C   UNL     1       8.171   8.170  18.148  0.00  0.00    +0.000 C 
ATOM      9  N   UNL     1       7.443   7.640  17.103  0.00  0.00    +0.000 N 
ATOM     10  H   UNL     1       7.245   8.241  16.314  0.00  0.00    +0.000 HD
BRANCH   8  11
ATOM     11  C   UNL     1       8.252   9.689  18.163  0.00  0.00    +0.000 C 
BRANCH  11  12
ATOM     12  C   UNL     1       9.610  10.250  18.633  0.00  0.00    +0.000 C 
ATOM     13  C   UNL     1      10.134  11.410  17.767  0.00  0.00    +0.000 C 
ATOM     14  C   UNL     1       9.322  12.694  17.929  0.00  0.00    +0.000 C 
ATOM     15  C   UNL     1       9.237  13.127  19.389  0.00  0.00    +0.000 C 
ATOM     16  C   UNL     1       8.736  12.003  20.293  0.00  0.00    +0.000 C 
ATOM     17  C   UNL     1       9.534  10.711  20.103  0.00  0.00    +0.000 C 
ENDBRANCH  11  12
ENDBRANCH   8  11
ENDBRANCH   1   9
BRANCH   4  18
ATOM     18  C   UNL     1       3.028   5.923  17.892  0.00  0.00    +0.000 C 
BRANCH  18  19
ATOM     19  C   UNL     1       2.204   4.828  18.540  0.00  0.00    +0.000 A 
ATOM     20  C   UNL     1       2.012   3.621  17.850  0.00  0.00    +0.000 A 
ATOM     21  C   UNL     1       1.325   2.584  18.466  0.00  0.00    +0.000 A 
ATOM     22  N   UNL     1       0.820   2.665  19.717  0.00  0.00    +0.000 NA
ATOM     23  C   UNL     1       0.985   3.843  20.366  0.00  0.00    +0.000 A 
ATOM     24  C   UNL     1       1.648   4.943  19.823  0.00  0.00    +0.000 A 
ATOM     25 CL   UNL     1       1.733   6.384  20.763  0.00  0.00    +0.000 Cl
ENDBRANCH  18  19
ENDBRANCH   4  18
TORSDOF 5
ENDMDL
MODEL 3
REMARK VINA RESULT:      -7.7      1.264      1.625
REMARK  Name = 
REMARK  5 active torsions:
REMARK  status: ('A' for Active; 'I' for Inactive)
REMARK    1  A    between atoms: C_2  and  C_3
REMARK    2  A    between atoms: C_3  and  C_4
REMARK    3  A    between atoms: N_10  and  C_11
REMARK    4  A    between atoms: N_14  and  C_15
REMARK    5  A    between atoms: C_15  and  C_16
REMARK                            x       y       z     vdW  Elec       q    Type
REMARK                         _______ _______ _______ _____ _____    ______ ____
ROOT
ATOM      1  C   UNL     1       6.841   5.599  17.084  0.00  0.00    +0.000 C 
ATOM      2  C   UNL     1       6.862   5.034  18.505  0.00  0.00    +0.000 C 
ATOM      3  C   UNL     1       5.458   4.854  19.085  0.00  0.00    +0.000 C 
ATOM      4  N   UNL     1       4.647   6.083  19.032  0.00  0.00    +0.000 NA
ATOM      5  C   UNL     1       4.584   6.609  17.654  0.00  0.00    +0.000 C 
ATOM      6  C   UNL     1       5.971   6.859  17.060  0.00  0.00    +0.000 C 
ENDROOT
BRANCH   1   9
ATOM      7  O   UNL     1       7.590   5.497  14.355  0.00  0.00    +0.000 OA
ATOM      8  C   UNL     1       6.818   4.651  14.787  0.00  0.00    +0.000 C 
ATOM      9  N   UNL     1       6.400   4.604  16.101  0.00  0.00    +0.000 N 
ATOM     10  H   UNL     1       5.981   3.745  16.432  0.00  0.00    +0.000 HD
BRANCH   8  11
ATOM     11  C   UNL     1       6.248   3.556  13.899  0.00  0.00    +0.000 C 
BRANCH  11  12
ATOM     12  C   UNL     1       6.073   3.962  12.420  0.00  0.00    +0.000 C 
ATOM     13  C   UNL     1       7.361   3.841  11.586  0.00  0.00    +0.000 C 
ATOM     14  C   UNL     1       7.785   2.393  11.345  0.00  0.00    +0.000 C 
ATOM     15  C   UNL     1       6.666   1.577  10.704  0.00  0.00    +0.000 C 
ATOM     16  C   UNL     1       5.360   1.680  11.487  0.00  0.00    +0.000 C 
ATOM     17  C   UNL     1       4.958   3.132  11.752  0.00  0.00    +0.000 C 
ENDBRANCH  11  12
ENDBRANCH   8  11
ENDBRANCH   1   9
BRANCH   4  18
ATOM     18  C   UNL     1       3.292   5.788  19.565  0.00  0.00    +0.000 C 
BRANCH  18  19
ATOM     19  C   UNL     1       2.741   4.438  19.152  0.00  0.00    +0.000 A 
ATOM     20  C   UNL     1       2.688   4.112  17.787  0.00  0.00    +0.000 A 
ATOM     21  C   UNL     1       2.258   2.850  17.403  0.00  0.00    +0.000 A 
ATOM     22  N   UNL     1       1.882   1.892  18.279  0.00  0.00    +0.000 NA
ATOM     23  C   UNL     1       1.909   2.223  19.592  0.00  0.00    +0.000 A 
ATOM     24  C   UNL     1       2.313   3.469  20.071  0.00  0.00    +0.000 A 
ATOM     25 CL   UNL     1       2.248   3.744  21.771  0.00  0.00    +0.000 Cl
ENDBRANCH  18  19
ENDBRANCH   4  18
TORSDOF 5
ENDMDL
MODEL 4
REMARK VINA RESULT:      -7.6      3.680      6.631
REMARK  Name = 
REMARK  5 active torsions:
REMARK  status: ('A' for Active; 'I' for Inactive)
REMARK    1  A    between atoms: C_2  and  C_3
REMARK    2  A    between atoms: C_3  and  C_4
REMARK    3  A    between atoms: N_10  and  C_11
REMARK    4  A    between atoms: N_14  and  C_15
REMARK    5  A    between atoms: C_15  and  C_16
REMARK                            x       y       z     vdW  Elec       q    Type
REMARK                         _______ _______ _______ _____ _____    ______ ____
ROOT
ATOM      1  C   UNL     1       7.221   6.270  16.973  0.00  0.00    +0.000 C 
ATOM      2  C   UNL     1       6.085   5.864  16.033  0.00  0.00    +0.000 C 
ATOM      3  C   UNL     1       4.706   6.037  16.674  0.00  0.00    +0.000 C 
ATOM      4  N   UNL     1       4.577   5.343  17.967  0.00  0.00    +0.000 NA
ATOM      5  C   UNL     1       5.644   5.765  18.895  0.00  0.00    +0.000 C 
ATOM      6  C   UNL     1       7.043   5.552  18.313  0.00  0.00    +0.000 C 
ENDROOT
BRANCH   1   9
ATOM      7  O   UNL     1       8.780   7.649  18.894  0.00  0.00    +0.000 OA
ATOM      8  C   UNL     1       8.096   8.298  18.113  0.00  0.00    +0.000 C 
ATOM      9  N   UNL     1       7.312   7.725  17.133  0.00  0.00    +0.000 N 
ATOM     10  H   UNL     1       6.990   8.319  16.379  0.00  0.00    +0.000 HD
BRANCH   8  11
ATOM     11  C   UNL     1       8.058   9.818  18.152  0.00  0.00    +0.000 C 
BRANCH  11  12
ATOM     12  C   UNL     1       9.437  10.485  18.338  0.00  0.00    +0.000 C 
ATOM     13  C   UNL     1       9.540  11.883  17.701  0.00  0.00    +0.000 C 
ATOM     14  C   UNL     1       8.709  12.937  18.429  0.00  0.00    +0.000 C 
ATOM     15  C   UNL     1       9.064  13.010  19.912  0.00  0.00    +0.000 C 
ATOM     16  C   UNL     1       8.992  11.642  20.586  0.00  0.00    +0.000 C 
ATOM     17  C   UNL     1       9.801  10.584  19.834  0.00  0.00    +0.000 C 
ENDBRANCH  11  12
ENDBRANCH   8  11
ENDBRANCH   1   9
BRANCH   4  18
ATOM     18  C   UNL     1       3.228   5.618  18.527  0.00  0.00    +0.000 C 
BRANCH  18  19
ATOM     19  C   UNL     1       2.670   4.501  19.386  0.00  0.00    +0.000 A 
ATOM     20  C   UNL     1       2.520   4.713  20.766  0.00  0.00    +0.000 A 
ATOM     21  C   UNL     1       1.938   3.725  21.548  0.00  0.00    +0.000 A 
ATOM     22  N   UNL     1       1.495   2.548  21.054  0.00  0.00    +0.000 NA
ATOM     23  C   UNL     1       1.669   2.339  19.727  0.00  0.00    +0.000 A 
ATOM     24  C   UNL     1       2.255   3.267  18.865  0.00  0.00    +0.000 A 
ATOM     25 CL   UNL     1       2.443   2.829  17.209  0.00  0.00    +0.000 Cl
ENDBRANCH  18  19
ENDBRANCH   4  18
TORSDOF 5
ENDMDL
MODEL 5
REMARK VINA RESULT:      -7.6      1.289      1.664
REMARK  Name = 
REMARK  5 active torsions:
REMARK  status: ('A' for Active; 'I' for Inactive)
REMARK    1  A    between atoms: C_2  and  C_3
REMARK    2  A    between atoms: C_3  and  C_4
REMARK    3  A    between atoms: N_10  and  C_11
REMARK    4  A    between atoms: N_14  and  C_15
REMARK    5  A    between atoms: C_15  and  C_16
REMARK                            x       y       z     vdW  Elec       q    Type
REMARK                         _______ _______ _______ _____ _____    ______ ____
ROOT
ATOM      1  C   UNL     1       5.847   6.274  16.488  0.00  0.00    +0.000 C 
ATOM      2  C   UNL     1       6.779   5.943  17.656  0.00  0.00    +0.000 C 
ATOM      3  C   UNL     1       6.118   5.029  18.689  0.00  0.00    +0.000 C 
ATOM      4  N   UNL     1       4.833   5.549  19.187  0.00  0.00    +0.000 NA
ATOM      5  C   UNL     1       3.913   5.827  18.067  0.00  0.00    +0.000 C 
ATOM      6  C   UNL     1       4.515   6.788  17.040  0.00  0.00    +0.000 C 
ENDROOT
BRANCH   1   9
ATOM      7  O   UNL     1       7.628   5.468  14.438  0.00  0.00    +0.000 OA
ATOM      8  C   UNL     1       6.595   4.832  14.607  0.00  0.00    +0.000 C 
ATOM      9  N   UNL     1       5.669   5.133  15.584  0.00  0.00    +0.000 N 
ATOM     10  H   UNL     1       4.989   4.423  15.825  0.00  0.00    +0.000 HD
BRANCH   8  11
ATOM     11  C   UNL     1       6.243   3.630  13.745  0.00  0.00    +0.000 C 
BRANCH  11  12
ATOM     12  C   UNL     1       6.097   3.945  12.241  0.00  0.00    +0.000 C 
ATOM     13  C   UNL     1       7.385   3.715  11.431  0.00  0.00    +0.000 C 
ATOM     14  C   UNL     1       7.748   2.238  11.289  0.00  0.00    +0.000 C 
ATOM     15  C   UNL     1       6.601   1.430  10.690  0.00  0.00    +0.000 C 
ATOM     16  C   UNL     1       5.294   1.639  11.451  0.00  0.00    +0.000 C 
ATOM     17  C   UNL     1       4.953   3.121  11.617  0.00  0.00    +0.000 C 
ENDBRANCH  11  12
ENDBRANCH   8  11
ENDBRANCH   1   9
BRANCH   4  18
ATOM     18  C   UNL     1       4.253   4.565  20.138  0.00  0.00    +0.000 C 
BRANCH  18  19
ATOM     19  C   UNL     1       3.076   3.786  19.587  0.00  0.00    +0.000 A 
ATOM     20  C   UNL     1       3.320   2.660  18.784  0.00  0.00    +0.000 A 
ATOM     21  C   UNL     1       2.251   1.896  18.339  0.00  0.00    +0.000 A 
ATOM     22  N   UNL     1       0.962   2.171  18.638  0.00  0.00    +0.000 NA
ATOM     23  C   UNL     1       0.733   3.275  19.390  0.00  0.00    +0.000 A 
ATOM     24  C   UNL     1       1.741   4.110  19.870  0.00  0.00    +0.000 A 
ATOM     25 CL   UNL     1       1.278   5.501  20.776  0.00  0.00    +0.000 Cl
ENDBRANCH  18  19
ENDBRANCH   4  18
TORSDOF 5
ENDMDL
MODEL 6
REMARK VINA RESULT:      -7.5      3.841      6.708
REMARK  Name = 
REMARK  5 active torsions:
REMARK  status: ('A' for Active; 'I' for Inactive)
REMARK    1  A    between atoms: C_2  and  C_3
REMARK    2  A    between atoms: C_3  and  C_4
REMARK    3  A    between atoms: N_10  and  C_11
REMARK    4  A    between atoms: N_14  and  C_15
REMARK    5  A    between atoms: C_15  and  C_16
REMARK                            x       y       z     vdW  Elec       q    Type
REMARK                         _______ _______ _______ _____ _____    ______ ____
ROOT
ATOM      1  C   UNL     1       7.269   6.224  17.545  0.00  0.00    +0.000 C 
ATOM      2  C   UNL     1       6.032   6.811  16.864  0.00  0.00    +0.000 C 
ATOM      3  C   UNL     1       4.857   6.977  17.828  0.00  0.00    +0.000 C 
ATOM      4  N   UNL     1       4.510   5.735  18.540  0.00  0.00    +0.000 NA
ATOM      5  C   UNL     1       5.690   5.188  19.239  0.00  0.00    +0.000 C 
ATOM      6  C   UNL     1       6.871   4.950  18.295  0.00  0.00    +0.000 C 
ENDROOT
BRANCH   1   9
ATOM      7  O   UNL     1       7.928   8.896  16.879  0.00  0.00    +0.000 OA
ATOM      8  C   UNL     1       8.218   8.477  17.992  0.00  0.00    +0.000 C 
ATOM      9  N   UNL     1       7.931   7.197  18.420  0.00  0.00    +0.000 N 
ATOM     10  H   UNL     1       7.967   7.013  19.414  0.00  0.00    +0.000 HD
BRANCH   8  11
ATOM     11  C   UNL     1       8.926   9.347  19.018  0.00  0.00    +0.000 C 
BRANCH  11  12
ATOM     12  C   UNL     1       8.976  10.847  18.656  0.00  0.00    +0.000 C 
ATOM     13  C   UNL     1       8.853  11.783  19.872  0.00  0.00    +0.000 C 
ATOM     14  C   UNL     1      10.084  11.756  20.776  0.00  0.00    +0.000 C 
ATOM     15  C   UNL     1      11.361  12.069  20.001  0.00  0.00    +0.000 C 
ATOM     16  C   UNL     1      11.519  11.176  18.773  0.00  0.00    +0.000 C 
ATOM     17  C   UNL     1      10.271  11.183  17.889  0.00  0.00    +0.000 C 
ENDBRANCH  11  12
ENDBRANCH   8  11
ENDBRANCH   1   9
BRANCH   4  18
ATOM     18  C   UNL     1       3.400   6.017  19.486  0.00  0.00    +0.000 C 
BRANCH  18  19
ATOM     19  C   UNL     1       2.620   4.790  19.915  0.00  0.00    +0.000 A 
ATOM     20  C   UNL     1       2.724   4.346  21.242  0.00  0.00    +0.000 A 
ATOM     21  C   UNL     1       1.955   3.271  21.664  0.00  0.00    +0.000 A 
ATOM     22  N   UNL     1       1.090   2.613  20.861  0.00  0.00    +0.000 NA
ATOM     23  C   UNL     1       1.015   3.029  19.575  0.00  0.00    +0.000 A 
ATOM     24  C   UNL     1       1.759   4.090  19.057  0.00  0.00    +0.000 A 
ATOM     25 CL   UNL     1       1.579   4.466  17.385  0.00  0.00    +0.000 Cl
ENDBRANCH  18  19
ENDBRANCH   4  18
TORSDOF 5
ENDMDL
MODEL 7
REMARK VINA RESULT:      -7.5      4.161      7.012
REMARK  Name = 
REMARK  5 active torsions:
REMARK  status: ('A' for Active; 'I' for Inactive)
REMARK    1  A    between atoms: C_2  and  C_3
REMARK    2  A    between atoms: C_3  and  C_4
REMARK    3  A    between atoms: N_10  and  C_11
REMARK    4  A    between atoms: N_14  and  C_15
REMARK    5  A    between atoms: C_15  and  C_16
REMARK                            x       y       z     vdW  Elec       q    Type
REMARK                         _______ _______ _______ _____ _____    ______ ____
ROOT
ATOM      1  C   UNL     1       7.397   6.670  17.185  0.00  0.00    +0.000 C 
ATOM      2  C   UNL     1       5.917   6.998  16.980  0.00  0.00    +0.000 C 
ATOM      3  C   UNL     1       5.049   6.546  18.155  0.00  0.00    +0.000 C 
ATOM      4  N   UNL     1       5.218   5.121  18.487  0.00  0.00    +0.000 NA
ATOM      5  C   UNL     1       6.640   4.807  18.732  0.00  0.00    +0.000 C 
ATOM      6  C   UNL     1       7.535   5.190  17.552  0.00  0.00    +0.000 C 
ENDROOT
BRANCH   1   9
ATOM      7  O   UNL     1       7.883   9.445  16.898  0.00  0.00    +0.000 OA
ATOM      8  C   UNL     1       8.226   8.890  17.934  0.00  0.00    +0.000 C 
ATOM      9  N   UNL     1       8.024   7.547  18.179  0.00  0.00    +0.000 N 
ATOM     10  H   UNL     1       8.096   7.226  19.136  0.00  0.00    +0.000 HD
BRANCH   8  11
ATOM     11  C   UNL     1       8.909   9.647  19.062  0.00  0.00    +0.000 C 
BRANCH  11  12
ATOM     12  C   UNL     1       9.072  11.160  18.807  0.00  0.00    +0.000 C 
ATOM     13  C   UNL     1       9.120  12.004  20.093  0.00  0.00    +0.000 C 
ATOM     14  C   UNL     1      10.403  11.799  20.897  0.00  0.00    +0.000 C 
ATOM     15  C   UNL     1      11.647  12.061  20.051  0.00  0.00    +0.000 C 
ATOM     16  C   UNL     1      11.636  11.257  18.753  0.00  0.00    +0.000 C 
ATOM     17  C   UNL     1      10.336  11.442  17.969  0.00  0.00    +0.000 C 
ENDBRANCH  11  12
ENDBRANCH   8  11
ENDBRANCH   1   9
BRANCH   4  18
ATOM     18  C   UNL     1       4.378   4.800  19.669  0.00  0.00    +0.000 C 
BRANCH  18  19
ATOM     19  C   UNL     1       3.134   3.995  19.350  0.00  0.00    +0.000 A 
ATOM     20  C   UNL     1       3.254   2.840  18.560  0.00  0.00    +0.000 A 
ATOM     21  C   UNL     1       2.134   2.054  18.327  0.00  0.00    +0.000 A 
ATOM     22  N   UNL     1       0.910   2.335  18.825  0.00  0.00    +0.000 NA
ATOM     23  C   UNL     1       0.796   3.466  19.563  0.00  0.00    +0.000 A 
ATOM     24  C   UNL     1       1.861   4.323  19.839  0.00  0.00    +0.000 A 
ATOM     25 CL   UNL     1       1.540   5.746  20.756  0.00  0.00    +0.000 Cl
ENDBRANCH  18  19
ENDBRANCH   4  18
TORSDOF 5
ENDMDL
MODEL 8
REMARK VINA RESULT:      -7.3      1.105      1.342
REMARK  Name = 
REMARK  5 active torsions:
REMARK  status: ('A' for Active; 'I' for Inactive)
REMARK    1  A    between atoms: C_2  and  C_3
REMARK    2  A    between atoms: C_3  and  C_4
REMARK    3  A    between atoms: N_10  and  C_11
REMARK    4  A    between atoms: N_14  and  C_15
REMARK    5  A    between atoms: C_15  and  C_16
REMARK                            x       y       z     vdW  Elec       q    Type
REMARK                         _______ _______ _______ _____ _____    ______ ____
ROOT
ATOM      1  C   UNL     1       5.596   6.249  16.420  0.00  0.00    +0.000 C 
ATOM      2  C   UNL     1       6.649   6.030  17.508  0.00  0.00    +0.000 C 
ATOM      3  C   UNL     1       6.198   5.016  18.561  0.00  0.00    +0.000 C 
ATOM      4  N   UNL     1       4.896   5.346  19.165  0.00  0.00    +0.000 NA
ATOM      5  C   UNL     1       3.865   5.513  18.121  0.00  0.00    +0.000 C 
ATOM      6  C   UNL     1       4.252   6.565  17.080  0.00  0.00    +0.000 C 
ENDROOT
BRANCH   1   9
ATOM      7  O   UNL     1       7.613   5.379  14.632  0.00  0.00    +0.000 OA
ATOM      8  C   UNL     1       6.548   4.775  14.659  0.00  0.00    +0.000 C 
ATOM      9  N   UNL     1       5.507   5.110  15.501  0.00  0.00    +0.000 N 
ATOM     10  H   UNL     1       4.779   4.422  15.646  0.00  0.00    +0.000 HD
BRANCH   8  11
ATOM     11  C   UNL     1       6.280   3.581  13.757  0.00  0.00    +0.000 C 
BRANCH  11  12
ATOM     12  C   UNL     1       6.100   3.936  12.266  0.00  0.00    +0.000 C 
ATOM     13  C   UNL     1       7.380   3.767  11.429  0.00  0.00    +0.000 C 
ATOM     14  C   UNL     1       7.782   2.305  11.238  0.00  0.00    +0.000 C 
ATOM     15  C   UNL     1       6.648   1.483  10.633  0.00  0.00    +0.000 C 
ATOM     16  C   UNL     1       5.349   1.632  11.420  0.00  0.00    +0.000 C 
ATOM     17  C   UNL     1       4.969   3.098  11.636  0.00  0.00    +0.000 C 
ENDBRANCH  11  12
ENDBRANCH   8  11
ENDBRANCH   1   9
BRANCH   4  18
ATOM     18  C   UNL     1       4.528   4.276  20.127  0.00  0.00    +0.000 C 
BRANCH  18  19
ATOM     19  C   UNL     1       3.115   3.751  19.966  0.00  0.00    +0.000 A 
ATOM     20  C   UNL     1       2.061   4.421  20.608  0.00  0.00    +0.000 A 
ATOM     21  C   UNL     1       0.757   3.995  20.404  0.00  0.00    +0.000 A 
ATOM     22  N   UNL     1       0.429   2.955  19.605  0.00  0.00    +0.000 NA
ATOM     23  C   UNL     1       1.452   2.297  19.011  0.00  0.00    +0.000 A 
ATOM     24  C   UNL     1       2.795   2.643  19.168  0.00  0.00    +0.000 A 
ATOM     25 CL   UNL     1       3.980   1.674  18.377  0.00  0.00    +0.000 Cl
ENDBRANCH  18  19
ENDBRANCH   4  18
TORSDOF 5
ENDMDL
MODEL 9
REMARK VINA RESULT:      -7.3      3.934      6.699
REMARK  Name = 
REMARK  5 active torsions:
REMARK  status: ('A' for Active; 'I' for Inactive)
REMARK    1  A    between atoms: C_2  and  C_3
REMARK    2  A    between atoms: C_3  and  C_4
REMARK    3  A    between atoms: N_10  and  C_11
REMARK    4  A    between atoms: N_14  and  C_15
REMARK    5  A    between atoms: C_15  and  C_16
REMARK                            x       y       z     vdW  Elec       q    Type
REMARK                         _______ _______ _______ _____ _____    ______ ____
ROOT
ATOM      1  C   UNL     1       6.955   6.699  16.927  0.00  0.00    +0.000 C 
ATOM      2  C   UNL     1       5.470   6.892  17.243  0.00  0.00    +0.000 C 
ATOM      3  C   UNL     1       5.022   6.084  18.462  0.00  0.00    +0.000 C 
ATOM      4  N   UNL     1       5.344   4.651  18.359  0.00  0.00    +0.000 NA
ATOM      5  C   UNL     1       6.785   4.456  18.101  0.00  0.00    +0.000 C 
ATOM      6  C   UNL     1       7.260   5.201  16.852  0.00  0.00    +0.000 C 
ENDROOT
BRANCH   1   9
ATOM      7  O   UNL     1       7.436   9.488  17.039  0.00  0.00    +0.000 OA
ATOM      8  C   UNL     1       7.993   8.760  17.850  0.00  0.00    +0.000 C 
ATOM      9  N   UNL     1       7.817   7.392  17.890  0.00  0.00    +0.000 N 
ATOM     10  H   UNL     1       8.099   6.904  18.730  0.00  0.00    +0.000 HD
BRANCH   8  11
ATOM     11  C   UNL     1       8.938   9.311  18.906  0.00  0.00    +0.000 C 
BRANCH  11  12
ATOM     12  C   UNL     1       8.780  10.822  19.177  0.00  0.00    +0.000 C 
ATOM     13  C   UNL     1       9.567  11.319  20.403  0.00  0.00    +0.000 C 
ATOM     14  C   UNL     1      11.079  11.313  20.187  0.00  0.00    +0.000 C 
ATOM     15  C   UNL     1      11.475  12.115  18.950  0.00  0.00    +0.000 C 
ATOM     16  C   UNL     1      10.707  11.670  17.708  0.00  0.00    +0.000 C 
ATOM     17  C   UNL     1       9.195  11.647  17.941  0.00  0.00    +0.000 C 
ENDBRANCH  11  12
ENDBRANCH   8  11
ENDBRANCH   1   9
BRANCH   4  18
ATOM     18  C   UNL     1       4.919   3.972  19.610  0.00  0.00    +0.000 C 
BRANCH  18  19
ATOM     19  C   UNL     1       3.431   3.699  19.697  0.00  0.00    +0.000 A 
ATOM     20  C   UNL     1       2.631   4.531  20.497  0.00  0.00    +0.000 A 
ATOM     21  C   UNL     1       1.257   4.338  20.521  0.00  0.00    +0.000 A 
ATOM     22  N   UNL     1       0.626   3.381  19.806  0.00  0.00    +0.000 NA
ATOM     23  C   UNL     1       1.407   2.565  19.058  0.00  0.00    +0.000 A 
ATOM     24  C   UNL     1       2.796   2.674  18.982  0.00  0.00    +0.000 A 
ATOM     25 CL   UNL     1       3.646   1.527  18.018  0.00  0.00    +0.000 Cl
ENDBRANCH  18  19
ENDBRANCH   4  18
TORSDOF 5
ENDMDL
