MODEL 1
REMARK VINA RESULT:      -7.7      0.000      0.000
REMARK  Name = 
REMARK  2 active torsions:
REMARK  status: ('A' for Active; 'I' for Inactive)
REMARK    1  A    between atoms: N_7  and  S_8
REMARK    2  A    between atoms: S_8  and  C_11
REMARK                            x       y       z     vdW  Elec       q    Type
REMARK                         _______ _______ _______ _____ _____    ______ ____
ROOT
ATOM      1  O   UNL     1       7.801   6.716  16.383  0.00  0.00    +0.000 OA
ATOM      2  C   UNL     1       7.090   6.054  17.132  0.00  0.00    +0.000 C 
ATOM      3  C   UNL     1       7.280   5.999  18.677  0.00  0.00    +0.000 C 
ATOM      4  O   UNL     1       6.678   4.923  19.412  0.00  0.00    +0.000 OA
ATOM      5  C   UNL     1       5.399   4.613  18.864  0.00  0.00    +0.000 C 
ATOM      6  C   UNL     1       4.723   3.368  19.432  0.00  0.00    +0.000 C 
ATOM      7  N   UNL     1       3.735   2.955  18.355  0.00  0.00    +0.000 NA
ATOM      8  C   UNL     1       4.280   3.522  17.059  0.00  0.00    +0.000 C 
ATOM      9  C   UNL     1       5.597   4.199  17.414  0.00  0.00    +0.000 C 
ATOM     10  N   UNL     1       6.010   5.343  16.637  0.00  0.00    +0.000 N 
ATOM     11  H   UNL     1       5.951   5.338  15.624  0.00  0.00    +0.000 HD
ENDROOT
BRANCH   7  12
ATOM     12  S   UNL     1       2.098   3.400  18.619  0.00  0.00    +0.000 S 
ATOM     13  O   UNL     1       1.418   3.331  17.350  0.00  0.00    +0.000 OA
ATOM     14  O   UNL     1       1.631   2.633  19.760  0.00  0.00    +0.000 OA
BRANCH  12  15
ATOM     15  C   UNL     1       2.134   5.103  19.149  0.00  0.00    +0.000 A 
ATOM     16  C   UNL     1       2.343   6.124  18.217  0.00  0.00    +0.000 A 
ATOM     17  C   UNL     1       2.271   7.460  18.624  0.00  0.00    +0.000 A 
ATOM     18  C   UNL     1       1.927   7.768  19.936  0.00  0.00    +0.000 A 
ATOM     19  F   UNL     1       1.839   9.049  20.313  0.00  0.00    +0.000 F 
ATOM     20  C   UNL     1       1.652   6.760  20.856  0.00  0.00    +0.000 A 
ATOM     21  C   UNL     1       1.758   5.422  20.466  0.00  0.00    +0.000 A 
ENDBRANCH  12  15
ENDBRANCH   7  12
TORSDOF 2
ENDMDL
MODEL 2
REMARK VINA RESULT:      -7.6      3.169      4.382
REMARK  Name = 
REMARK  2 active torsions:
REMARK  status: ('A' for Active; 'I' for Inactive)
REMARK    1  A    between atoms: N_7  and  S_8
REMARK    2  A    between atoms: S_8  and  C_11
REMARK                            x       y       z     vdW  Elec       q    Type
REMARK                         _______ _______ _______ _____ _____    ______ ____
ROOT
ATOM      1  O   UNL     1       6.376   3.417  11.873  0.00  0.00    +0.000 OA
ATOM      2  C   UNL     1       6.555   3.945  12.966  0.00  0.00    +0.000 C 
ATOM      3  C   UNL     1       7.497   5.164  13.191  0.00  0.00    +0.000 C 
ATOM      4  O   UNL     1       7.944   5.459  14.523  0.00  0.00    +0.000 OA
ATOM      5  C   UNL     1       6.890   5.222  15.455  0.00  0.00    +0.000 C 
ATOM      6  C   UNL     1       7.279   5.320  16.928  0.00  0.00    +0.000 C 
ATOM      7  N   UNL     1       6.218   4.508  17.649  0.00  0.00    +0.000 NA
ATOM      8  C   UNL     1       5.689   3.523  16.624  0.00  0.00    +0.000 C 
ATOM      9  C   UNL     1       6.498   3.756  15.356  0.00  0.00    +0.000 C 
ATOM     10  N   UNL     1       5.861   3.511  14.083  0.00  0.00    +0.000 N 
ATOM     11  H   UNL     1       5.310   2.675  13.925  0.00  0.00    +0.000 HD
ENDROOT
BRANCH   7  12
ATOM     12  S   UNL     1       4.959   5.402  18.398  0.00  0.00    +0.000 S 
ATOM     13  O   UNL     1       5.357   5.658  19.759  0.00  0.00    +0.000 OA
ATOM     14  O   UNL     1       4.625   6.492  17.500  0.00  0.00    +0.000 OA
BRANCH  12  15
ATOM     15  C   UNL     1       3.538   4.323  18.417  0.00  0.00    +0.000 A 
ATOM     16  C   UNL     1       3.508   3.216  19.271  0.00  0.00    +0.000 A 
ATOM     17  C   UNL     1       2.352   2.433  19.352  0.00  0.00    +0.000 A 
ATOM     18  C   UNL     1       1.217   2.797  18.635  0.00  0.00    +0.000 A 
ATOM     19  F   UNL     1       0.107   2.056  18.735  0.00  0.00    +0.000 F 
ATOM     20  C   UNL     1       1.214   3.935  17.833  0.00  0.00    +0.000 A 
ATOM     21  C   UNL     1       2.377   4.701  17.719  0.00  0.00    +0.000 A 
ENDBRANCH  12  15
ENDBRANCH   7  12
TORSDOF 2
ENDMDL
MODEL 3
REMARK VINA RESULT:      -7.4      3.145      4.256
REMARK  Name = 
REMARK  2 active torsions:
REMARK  status: ('A' for Active; 'I' for Inactive)
REMARK    1  A    between atoms: N_7  and  S_8
REMARK    2  A    between atoms: S_8  and  C_11
REMARK                            x       y       z     vdW  Elec       q    Type
REMARK                         _______ _______ _______ _____ _____    ______ ____
ROOT
ATOM      1  O   UNL     1       6.078   3.445  11.938  0.00  0.00    +0.000 OA
ATOM      2  C   UNL     1       6.332   3.928  13.037  0.00  0.00    +0.000 C 
ATOM      3  C   UNL     1       7.406   5.033  13.265  0.00  0.00    +0.000 C 
ATOM      4  O   UNL     1       7.905   5.250  14.594  0.00  0.00    +0.000 OA
ATOM      5  C   UNL     1       6.847   5.111  15.541  0.00  0.00    +0.000 C 
ATOM      6  C   UNL     1       7.269   5.137  17.008  0.00  0.00    +0.000 C 
ATOM      7  N   UNL     1       6.138   4.431  17.734  0.00  0.00    +0.000 NA
ATOM      8  C   UNL     1       5.487   3.530  16.703  0.00  0.00    +0.000 C 
ATOM      9  C   UNL     1       6.295   3.699  15.423  0.00  0.00    +0.000 C 
ATOM     10  N   UNL     1       5.615   3.550  14.159  0.00  0.00    +0.000 N 
ATOM     11  H   UNL     1       4.973   2.782  13.996  0.00  0.00    +0.000 HD
ENDROOT
BRANCH   7  12
ATOM     12  S   UNL     1       4.998   5.442  18.523  0.00  0.00    +0.000 S 
ATOM     13  O   UNL     1       5.486   5.693  19.855  0.00  0.00    +0.000 OA
ATOM     14  O   UNL     1       4.706   6.536  17.615  0.00  0.00    +0.000 OA
BRANCH  12  15
ATOM     15  C   UNL     1       3.496   4.484  18.643  0.00  0.00    +0.000 A 
ATOM     16  C   UNL     1       2.414   4.768  17.804  0.00  0.00    +0.000 A 
ATOM     17  C   UNL     1       1.279   3.952  17.836  0.00  0.00    +0.000 A 
ATOM     18  C   UNL     1       1.258   2.825  18.651  0.00  0.00    +0.000 A 
ATOM     19  F   UNL     1       0.178   2.036  18.660  0.00  0.00    +0.000 F 
ATOM     20  C   UNL     1       2.356   2.496  19.441  0.00  0.00    +0.000 A 
ATOM     21  C   UNL     1       3.479   3.328  19.443  0.00  0.00    +0.000 A 
ENDBRANCH  12  15
ENDBRANCH   7  12
TORSDOF 2
ENDMDL
MODEL 4
REMARK VINA RESULT:      -7.4      3.706      6.508
REMARK  Name = 
REMARK  2 active torsions:
REMARK  status: ('A' for Active; 'I' for Inactive)
REMARK    1  A    between atoms: N_7  and  S_8
REMARK    2  A    between atoms: S_8  and  C_11
REMARK                            x       y       z     vdW  Elec       q    Type
REMARK                         _______ _______ _______ _____ _____    ______ ____
ROOT
ATOM      1  O   UNL     1       1.853   2.248  22.347  0.00  0.00    +0.000 OA
ATOM      2  C   UNL     1       2.026   2.815  21.273  0.00  0.00    +0.000 C 
ATOM      3  C   UNL     1       1.062   3.899  20.705  0.00  0.00    +0.000 C 
ATOM      4  O   UNL     1       1.119   4.213  19.306  0.00  0.00    +0.000 OA
ATOM      5  C   UNL     1       2.473   4.190  18.856  0.00  0.00    +0.000 C 
ATOM      6  C   UNL     1       2.667   4.328  17.348  0.00  0.00    +0.000 C 
ATOM      7  N   UNL     1       4.037   3.725  17.091  0.00  0.00    +0.000 NA
ATOM      8  C   UNL     1       4.282   2.762  18.237  0.00  0.00    +0.000 C 
ATOM      9  C   UNL     1       3.023   2.793  19.093  0.00  0.00    +0.000 C 
ATOM     10  N   UNL     1       3.153   2.559  20.511  0.00  0.00    +0.000 N 
ATOM     11  H   UNL     1       3.726   1.801  20.867  0.00  0.00    +0.000 HD
ENDROOT
BRANCH   7  12
ATOM     12  S   UNL     1       5.329   4.838  16.895  0.00  0.00    +0.000 S 
ATOM     13  O   UNL     1       4.767   6.165  16.903  0.00  0.00    +0.000 OA
ATOM     14  O   UNL     1       6.361   4.457  17.842  0.00  0.00    +0.000 OA
BRANCH  12  15
ATOM     15  C   UNL     1       6.005   4.521  15.274  0.00  0.00    +0.000 A 
ATOM     16  C   UNL     1       5.267   3.793  14.335  0.00  0.00    +0.000 A 
ATOM     17  C   UNL     1       5.760   3.633  13.037  0.00  0.00    +0.000 A 
ATOM     18  C   UNL     1       6.949   4.254  12.666  0.00  0.00    +0.000 A 
ATOM     19  F   UNL     1       7.404   4.115  11.416  0.00  0.00    +0.000 F 
ATOM     20  C   UNL     1       7.659   5.035  13.573  0.00  0.00    +0.000 A 
ATOM     21  C   UNL     1       7.191   5.168  14.883  0.00  0.00    +0.000 A 
ENDBRANCH  12  15
ENDBRANCH   7  12
TORSDOF 2
ENDMDL
MODEL 5
REMARK VINA RESULT:      -7.3      3.616      6.455
REMARK  Name = 
REMARK  2 active torsions:
REMARK  status: ('A' for Active; 'I' for Inactive)
REMARK    1  A    between atoms: N_7  and  S_8
REMARK    2  A    between atoms: S_8  and  C_11
REMARK                            x       y       z     vdW  Elec       q    Type
REMARK                         _______ _______ _______ _____ _____    ______ ____
ROOT
ATOM      1  O   UNL     1       1.691   2.328  22.400  0.00  0.00    +0.000 OA
ATOM      2  C   UNL     1       1.951   2.891  21.342  0.00  0.00    +0.000 C 
ATOM      3  C   UNL     1       1.082   4.033  20.735  0.00  0.00    +0.000 C 
ATOM      4  O   UNL     1       1.229   4.352  19.343  0.00  0.00    +0.000 OA
ATOM      5  C   UNL     1       2.600   4.253  18.963  0.00  0.00    +0.000 C 
ATOM      6  C   UNL     1       2.880   4.389  17.468  0.00  0.00    +0.000 C 
ATOM      7  N   UNL     1       4.224   3.709  17.276  0.00  0.00    +0.000 NA
ATOM      8  C   UNL     1       4.353   2.725  18.423  0.00  0.00    +0.000 C 
ATOM      9  C   UNL     1       3.056   2.825  19.214  0.00  0.00    +0.000 C 
ATOM     10  N   UNL     1       3.099   2.575  20.636  0.00  0.00    +0.000 N 
ATOM     11  H   UNL     1       3.608   1.783  21.013  0.00  0.00    +0.000 HD
ENDROOT
BRANCH   7  12
ATOM     12  S   UNL     1       5.586   4.745  17.155  0.00  0.00    +0.000 S 
ATOM     13  O   UNL     1       5.146   6.081  17.467  0.00  0.00    +0.000 OA
ATOM     14  O   UNL     1       6.660   4.118  17.904  0.00  0.00    +0.000 OA
BRANCH  12  15
ATOM     15  C   UNL     1       6.085   4.699  15.443  0.00  0.00    +0.000 A 
ATOM     16  C   UNL     1       7.263   5.334  15.037  0.00  0.00    +0.000 A 
ATOM     17  C   UNL     1       7.698   5.211  13.714  0.00  0.00    +0.000 A 
ATOM     18  C   UNL     1       6.995   4.403  12.826  0.00  0.00    +0.000 A 
ATOM     19  F   UNL     1       7.430   4.272  11.567  0.00  0.00    +0.000 F 
ATOM     20  C   UNL     1       5.858   3.713  13.236  0.00  0.00    +0.000 A 
ATOM     21  C   UNL     1       5.396   3.862  14.547  0.00  0.00    +0.000 A 
ENDBRANCH  12  15
ENDBRANCH   7  12
TORSDOF 2
ENDMDL
MODEL 6
REMARK VINA RESULT:      -7.3      0.350      1.137
REMARK  Name = 
REMARK  2 active torsions:
REMARK  status: ('A' for Active; 'I' for Inactive)
REMARK    1  A    between atoms: N_7  and  S_8
REMARK    2  A    between atoms: S_8  and  C_11
REMARK                            x       y       z     vdW  Elec       q    Type
REMARK                         _______ _______ _______ _____ _____    ______ ____
ROOT
ATOM      1  O   UNL     1       7.639   7.017  16.668  0.00  0.00    +0.000 OA
ATOM      2  C   UNL     1       6.987   6.239  17.357  0.00  0.00    +0.000 C 
ATOM      3  C   UNL     1       7.184   6.076  18.894  0.00  0.00    +0.000 C 
ATOM      4  O   UNL     1       6.675   4.897  19.536  0.00  0.00    +0.000 OA
ATOM      5  C   UNL     1       5.425   4.527  18.958  0.00  0.00    +0.000 C 
ATOM      6  C   UNL     1       4.856   3.188  19.421  0.00  0.00    +0.000 C 
ATOM      7  N   UNL     1       3.903   2.783  18.310  0.00  0.00    +0.000 NA
ATOM      8  C   UNL     1       4.397   3.497  17.066  0.00  0.00    +0.000 C 
ATOM      9  C   UNL     1       5.654   4.250  17.481  0.00  0.00    +0.000 C 
ATOM     10  N   UNL     1       5.969   5.484  16.801  0.00  0.00    +0.000 N 
ATOM     11  H   UNL     1       5.908   5.556  15.791  0.00  0.00    +0.000 HD
ENDROOT
BRANCH   7  12
ATOM     12  S   UNL     1       2.236   3.068  18.601  0.00  0.00    +0.000 S 
ATOM     13  O   UNL     1       1.529   2.810  17.372  0.00  0.00    +0.000 OA
ATOM     14  O   UNL     1       1.895   2.361  19.822  0.00  0.00    +0.000 OA
BRANCH  12  15
ATOM     15  C   UNL     1       2.096   4.806  18.979  0.00  0.00    +0.000 A 
ATOM     16  C   UNL     1       1.889   5.223  20.298  0.00  0.00    +0.000 A 
ATOM     17  C   UNL     1       1.878   6.588  20.601  0.00  0.00    +0.000 A 
ATOM     18  C   UNL     1       2.140   7.521  19.603  0.00  0.00    +0.000 A 
ATOM     19  F   UNL     1       2.150   8.825  19.904  0.00  0.00    +0.000 F 
ATOM     20  C   UNL     1       2.412   7.115  18.299  0.00  0.00    +0.000 A 
ATOM     21  C   UNL     1       2.387   5.754  17.982  0.00  0.00    +0.000 A 
ENDBRANCH  12  15
ENDBRANCH   7  12
TORSDOF 2
ENDMDL
MODEL 7
REMARK VINA RESULT:      -7.3      2.879      5.354
REMARK  Name = 
REMARK  2 active torsions:
REMARK  status: ('A' for Active; 'I' for Inactive)
REMARK    1  A    between atoms: N_7  and  S_8
REMARK    2  A    between atoms: S_8  and  C_11
REMARK                            x       y       z     vdW  Elec       q    Type
REMARK                         _______ _______ _______ _____ _____    ______ ____
ROOT
ATOM      1  O   UNL     1       1.674   2.119  21.929  0.00  0.00    +0.000 OA
ATOM      2  C   UNL     1       2.136   2.899  21.102  0.00  0.00    +0.000 C 
ATOM      3  C   UNL     1       2.507   4.377  21.425  0.00  0.00    +0.000 C 
ATOM      4  O   UNL     1       2.660   5.306  20.342  0.00  0.00    +0.000 OA
ATOM      5  C   UNL     1       3.288   4.664  19.234  0.00  0.00    +0.000 C 
ATOM      6  C   UNL     1       3.350   5.483  17.947  0.00  0.00    +0.000 C 
ATOM      7  N   UNL     1       3.511   4.445  16.851  0.00  0.00    +0.000 NA
ATOM      8  C   UNL     1       2.932   3.161  17.414  0.00  0.00    +0.000 C 
ATOM      9  C   UNL     1       2.402   3.507  18.798  0.00  0.00    +0.000 C 
ATOM     10  N   UNL     1       2.416   2.480  19.813  0.00  0.00    +0.000 N 
ATOM     11  H   UNL     1       2.100   1.538  19.609  0.00  0.00    +0.000 HD
ENDROOT
BRANCH   7  12
ATOM     12  S   UNL     1       5.101   4.227  16.242  0.00  0.00    +0.000 S 
ATOM     13  O   UNL     1       5.502   2.876  16.546  0.00  0.00    +0.000 OA
ATOM     14  O   UNL     1       5.100   4.717  14.876  0.00  0.00    +0.000 OA
BRANCH  12  15
ATOM     15  C   UNL     1       6.137   5.346  17.169  0.00  0.00    +0.000 A 
ATOM     16  C   UNL     1       6.925   4.866  18.219  0.00  0.00    +0.000 A 
ATOM     17  C   UNL     1       7.807   5.729  18.876  0.00  0.00    +0.000 A 
ATOM     18  C   UNL     1       7.946   7.042  18.439  0.00  0.00    +0.000 A 
ATOM     19  F   UNL     1       8.807   7.857  19.058  0.00  0.00    +0.000 F 
ATOM     20  C   UNL     1       7.214   7.513  17.352  0.00  0.00    +0.000 A 
ATOM     21  C   UNL     1       6.303   6.666  16.715  0.00  0.00    +0.000 A 
ENDBRANCH  12  15
ENDBRANCH   7  12
TORSDOF 2
ENDMDL
MODEL 8
REMARK VINA RESULT:      -7.2      1.165      1.618
REMARK  Name = 
REMARK  2 active torsions:
REMARK  status: ('A' for Active; 'I' for Inactive)
REMARK    1  A    between atoms: N_7  and  S_8
REMARK    2  A    between atoms: S_8  and  C_11
REMARK                            x       y       z     vdW  Elec       q    Type
REMARK                         _______ _______ _______ _____ _____    ______ ____
ROOT
ATOM      1  O   UNL     1       7.257   4.719  15.768  0.00  0.00    +0.000 OA
ATOM      2  C   UNL     1       6.573   4.460  16.752  0.00  0.00    +0.000 C 
ATOM      3  C   UNL     1       6.886   4.988  18.183  0.00  0.00    +0.000 C 
ATOM      4  O   UNL     1       6.286   4.334  19.312  0.00  0.00    +0.000 OA
ATOM      5  C   UNL     1       4.950   3.947  18.997  0.00  0.00    +0.000 C 
ATOM      6  C   UNL     1       4.252   3.080  20.042  0.00  0.00    +0.000 C 
ATOM      7  N   UNL     1       3.156   2.370  19.266  0.00  0.00    +0.000 NA
ATOM      8  C   UNL     1       3.625   2.345  17.824  0.00  0.00    +0.000 C 
ATOM      9  C   UNL     1       5.004   2.992  17.815  0.00  0.00    +0.000 C 
ATOM     10  N   UNL     1       5.416   3.708  16.632  0.00  0.00    +0.000 N 
ATOM     11  H   UNL     1       5.274   3.319  15.707  0.00  0.00    +0.000 HD
ENDROOT
BRANCH   7  12
ATOM     12  S   UNL     1       1.576   3.020  19.422  0.00  0.00    +0.000 S 
ATOM     13  O   UNL     1       0.788   2.520  18.324  0.00  0.00    +0.000 OA
ATOM     14  O   UNL     1       1.164   2.802  20.797  0.00  0.00    +0.000 OA
BRANCH  12  15
ATOM     15  C   UNL     1       1.752   4.786  19.233  0.00  0.00    +0.000 A 
ATOM     16  C   UNL     1       1.818   5.610  20.361  0.00  0.00    +0.000 A 
ATOM     17  C   UNL     1       2.055   6.979  20.208  0.00  0.00    +0.000 A 
ATOM     18  C   UNL     1       2.291   7.504  18.941  0.00  0.00    +0.000 A 
ATOM     19  F   UNL     1       2.539   8.811  18.804  0.00  0.00    +0.000 F 
ATOM     20  C   UNL     1       2.294   6.682  17.818  0.00  0.00    +0.000 A 
ATOM     21  C   UNL     1       2.020   5.319  17.960  0.00  0.00    +0.000 A 
ENDBRANCH  12  15
ENDBRANCH   7  12
TORSDOF 2
ENDMDL
MODEL 9
REMARK VINA RESULT:      -7.2      3.038      4.034
REMARK  Name = 
REMARK  2 active torsions:
REMARK  status: ('A' for Active; 'I' for Inactive)
REMARK    1  A    between atoms: N_7  and  S_8
REMARK    2  A    between atoms: S_8  and  C_11
REMARK                            x       y       z     vdW  Elec       q    Type
REMARK                         _______ _______ _______ _____ _____    ______ ____
ROOT
ATOM      1  O   UNL     1       6.129   3.628  11.953  0.00  0.00    +0.000 OA
ATOM      2  C   UNL     1       6.285   3.996  13.112  0.00  0.00    +0.000 C 
ATOM      3  C   UNL     1       7.459   4.908  13.577  0.00  0.00    +0.000 C 
ATOM      4  O   UNL     1       7.784   4.962  14.974  0.00  0.00    +0.000 OA
ATOM      5  C   UNL     1       6.590   4.925  15.754  0.00  0.00    +0.000 C 
ATOM      6  C   UNL     1       6.792   4.794  17.261  0.00  0.00    +0.000 C 
ATOM      7  N   UNL     1       5.479   4.224  17.766  0.00  0.00    +0.000 NA
ATOM      8  C   UNL     1       4.864   3.500  16.583  0.00  0.00    +0.000 C 
ATOM      9  C   UNL     1       5.867   3.625  15.444  0.00  0.00    +0.000 C 
ATOM     10  N   UNL     1       5.365   3.662  14.091  0.00  0.00    +0.000 N 
ATOM     11  H   UNL     1       4.651   3.012  13.779  0.00  0.00    +0.000 HD
ENDROOT
BRANCH   7  12
ATOM     12  S   UNL     1       4.390   5.345  18.475  0.00  0.00    +0.000 S 
ATOM     13  O   UNL     1       5.153   6.206  19.342  0.00  0.00    +0.000 OA
ATOM     14  O   UNL     1       3.586   5.892  17.397  0.00  0.00    +0.000 OA
BRANCH  12  15
ATOM     15  C   UNL     1       3.276   4.377  19.479  0.00  0.00    +0.000 A 
ATOM     16  C   UNL     1       3.748   3.257  20.172  0.00  0.00    +0.000 A 
ATOM     17  C   UNL     1       2.894   2.562  21.033  0.00  0.00    +0.000 A 
ATOM     18  C   UNL     1       1.600   3.026  21.248  0.00  0.00    +0.000 A 
ATOM     19  F   UNL     1       0.795   2.369  22.091  0.00  0.00    +0.000 F 
ATOM     20  C   UNL     1       1.140   4.177  20.615  0.00  0.00    +0.000 A 
ATOM     21  C   UNL     1       1.977   4.856  19.724  0.00  0.00    +0.000 A 
ENDBRANCH  12  15
ENDBRANCH   7  12
TORSDOF 2
ENDMDL
