MODEL 1
REMARK VINA RESULT:      -7.9      0.000      0.000
REMARK  Name = 
REMARK  9 active torsions:
REMARK  status: ('A' for Active; 'I' for Inactive)
REMARK    1  A    between atoms: C_1  and  O_2
REMARK    2  A    between atoms: O_2  and  C_3
REMARK    3  A    between atoms: C_5  and  N_6
REMARK    4  A    between atoms: C_7  and  C_9
REMARK    5  A    between atoms: C_11  and  C_12
REMARK    6  A    between atoms: C_23  and  O_24
REMARK    7  A    between atoms: O_24  and  C_25
REMARK    8  A    between atoms: C_26  and  O_27
REMARK    9  A    between atoms: O_27  and  C_28
REMARK                            x       y       z     vdW  Elec       q    Type
REMARK                         _______ _______ _______ _____ _____    ______ ____
ROOT
ATOM      1  N   UNL     1       1.362   7.298  21.060  0.00  0.00    +0.000 N 
ATOM      2  C   UNL     1       1.181   8.600  20.625  0.00  0.00    +0.000 C 
ATOM      3  O   UNL     1       1.476   9.039  19.516  0.00  0.00    +0.000 OA
ATOM      4  H   UNL     1       0.981   7.088  21.978  0.00  0.00    +0.000 HD
ENDROOT
BRANCH   1   7
ATOM      5  C   UNL     1       3.815   5.442  18.919  0.00  0.00    +0.000 A 
ATOM      6  C   UNL     1       3.069   6.494  19.477  0.00  0.00    +0.000 A 
ATOM      7  C   UNL     1       2.038   6.262  20.380  0.00  0.00    +0.000 A 
ATOM      8  C   UNL     1       1.698   4.943  20.659  0.00  0.00    +0.000 A 
ATOM      9  C   UNL     1       2.358   3.866  20.033  0.00  0.00    +0.000 A 
ATOM     10  C   UNL     1       3.429   4.107  19.142  0.00  0.00    +0.000 A 
BRANCH   5  12
ATOM     11  C   UNL     1       4.636   6.047  16.778  0.00  0.00    +0.000 C 
ATOM     12  O   UNL     1       4.915   5.726  18.145  0.00  0.00    +0.000 OA
ENDBRANCH   5  12
BRANCH   9  13
ATOM     13  O   UNL     1       1.833   2.659  20.435  0.00  0.00    +0.000 OA
ATOM     14  C   UNL     1       1.528   2.449  21.806  0.00  0.00    +0.000 C 
ENDBRANCH   9  13
BRANCH  10  15
ATOM     15  O   UNL     1       3.993   3.001  18.568  0.00  0.00    +0.000 OA
ATOM     16  C   UNL     1       3.336   2.288  17.538  0.00  0.00    +0.000 C 
ENDBRANCH  10  15
ENDBRANCH   1   7
BRANCH   2  17
ATOM     17  C   UNL     1       0.560   9.484  21.613  0.00  0.00    +0.000 A 
ATOM     18  C   UNL     1      -0.311  10.564  21.326  0.00  0.00    +0.000 A 
ATOM     19  C   UNL     1      -0.647  11.091  22.549  0.00  0.00    +0.000 A 
ATOM     20  O   UNL     1       0.010  10.381  23.516  0.00  0.00    +0.000 OA
ATOM     21  N   UNL     1       0.761   9.369  22.936  0.00  0.00    +0.000 NA
BRANCH  19  22
ATOM     22  C   UNL     1      -1.512  12.181  22.990  0.00  0.00    +0.000 A 
ATOM     23  C   UNL     1      -1.093  13.514  22.944  0.00  0.00    +0.000 A 
ATOM     24  C   UNL     1      -1.933  14.548  23.377  0.00  0.00    +0.000 A 
ATOM     25  C   UNL     1      -3.210  14.260  23.867  0.00  0.00    +0.000 A 
ATOM     26 CL   UNL     1      -4.194  15.581  24.381  0.00  0.00    +0.000 Cl
ATOM     27  C   UNL     1      -3.639  12.933  23.923  0.00  0.00    +0.000 A 
ATOM     28 CL   UNL     1      -5.200  12.492  24.523  0.00  0.00    +0.000 Cl
ATOM     29  C   UNL     1      -2.796  11.901  23.487  0.00  0.00    +0.000 A 
ENDBRANCH  19  22
ENDBRANCH   2  17
TORSDOF 6
ENDMDL
MODEL 2
REMARK VINA RESULT:      -7.7      4.428     10.688
REMARK  Name = 
REMARK  9 active torsions:
REMARK  status: ('A' for Active; 'I' for Inactive)
REMARK    1  A    between atoms: C_1  and  O_2
REMARK    2  A    between atoms: O_2  and  C_3
REMARK    3  A    between atoms: C_5  and  N_6
REMARK    4  A    between atoms: C_7  and  C_9
REMARK    5  A    between atoms: C_11  and  C_12
REMARK    6  A    between atoms: C_23  and  O_24
REMARK    7  A    between atoms: O_24  and  C_25
REMARK    8  A    between atoms: C_26  and  O_27
REMARK    9  A    between atoms: O_27  and  C_28
REMARK                            x       y       z     vdW  Elec       q    Type
REMARK                         _______ _______ _______ _____ _____    ______ ____
ROOT
ATOM      1  N   UNL     1      -0.988  11.403  21.952  0.00  0.00    +0.000 N 
ATOM      2  C   UNL     1      -0.166  10.379  22.391  0.00  0.00    +0.000 C 
ATOM      3  O   UNL     1       0.018  10.051  23.560  0.00  0.00    +0.000 OA
ATOM      4  H   UNL     1      -1.089  11.479  20.944  0.00  0.00    +0.000 HD
ENDROOT
BRANCH   1   7
ATOM      5  C   UNL     1      -3.586  13.097  24.056  0.00  0.00    +0.000 A 
ATOM      6  C   UNL     1      -2.984  12.207  23.151  0.00  0.00    +0.000 A 
ATOM      7  C   UNL     1      -1.661  12.352  22.752  0.00  0.00    +0.000 A 
ATOM      8  C   UNL     1      -0.957  13.462  23.208  0.00  0.00    +0.000 A 
ATOM      9  C   UNL     1      -1.567  14.429  24.033  0.00  0.00    +0.000 A 
ATOM     10  C   UNL     1      -2.903  14.259  24.464  0.00  0.00    +0.000 A 
BRANCH   5  12
ATOM     11  C   UNL     1      -5.906  12.991  23.581  0.00  0.00    +0.000 C 
ATOM     12  O   UNL     1      -4.848  12.832  24.531  0.00  0.00    +0.000 OA
ENDBRANCH   5  12
BRANCH   9  13
ATOM     13  O   UNL     1      -0.695  15.450  24.331  0.00  0.00    +0.000 OA
ATOM     14  C   UNL     1      -0.564  16.544  23.435  0.00  0.00    +0.000 C 
ENDBRANCH   9  13
BRANCH  10  15
ATOM     15  O   UNL     1      -3.415  15.259  25.244  0.00  0.00    +0.000 OA
ATOM     16  C   UNL     1      -4.206  16.293  24.692  0.00  0.00    +0.000 C 
ENDBRANCH  10  15
ENDBRANCH   1   7
BRANCH   2  17
ATOM     17  C   UNL     1       0.504   9.643  21.317  0.00  0.00    +0.000 A 
ATOM     18  C   UNL     1       1.064   8.346  21.427  0.00  0.00    +0.000 A 
ATOM     19  C   UNL     1       1.568   8.065  20.180  0.00  0.00    +0.000 A 
ATOM     20  O   UNL     1       1.345   9.146  19.374  0.00  0.00    +0.000 OA
ATOM     21  N   UNL     1       0.672  10.135  20.078  0.00  0.00    +0.000 NA
BRANCH  19  22
ATOM     22  C   UNL     1       2.242   6.915  19.586  0.00  0.00    +0.000 A 
ATOM     23  C   UNL     1       2.913   7.009  18.362  0.00  0.00    +0.000 A 
ATOM     24  C   UNL     1       3.550   5.895  17.802  0.00  0.00    +0.000 A 
ATOM     25  C   UNL     1       3.522   4.662  18.461  0.00  0.00    +0.000 A 
ATOM     26 CL   UNL     1       4.329   3.331  17.717  0.00  0.00    +0.000 Cl
ATOM     27  C   UNL     1       2.852   4.552  19.681  0.00  0.00    +0.000 A 
ATOM     28 CL   UNL     1       2.764   3.063  20.555  0.00  0.00    +0.000 Cl
ATOM     29  C   UNL     1       2.218   5.671  20.239  0.00  0.00    +0.000 A 
ENDBRANCH  19  22
ENDBRANCH   2  17
TORSDOF 6
ENDMDL
MODEL 3
REMARK VINA RESULT:      -7.7      4.615     10.732
REMARK  Name = 
REMARK  9 active torsions:
REMARK  status: ('A' for Active; 'I' for Inactive)
REMARK    1  A    between atoms: C_1  and  O_2
REMARK    2  A    between atoms: O_2  and  C_3
REMARK    3  A    between atoms: C_5  and  N_6
REMARK    4  A    between atoms: C_7  and  C_9
REMARK    5  A    between atoms: C_11  and  C_12
REMARK    6  A    between atoms: C_23  and  O_24
REMARK    7  A    between atoms: O_24  and  C_25
REMARK    8  A    between atoms: C_26  and  O_27
REMARK    9  A    between atoms: O_27  and  C_28
REMARK                            x       y       z     vdW  Elec       q    Type
REMARK                         _______ _______ _______ _____ _____    ______ ____
ROOT
ATOM      1  N   UNL     1      -0.898  11.346  21.910  0.00  0.00    +0.000 N 
ATOM      2  C   UNL     1      -0.058  10.327  22.325  0.00  0.00    +0.000 C 
ATOM      3  O   UNL     1       0.144   9.984  23.487  0.00  0.00    +0.000 OA
ATOM      4  H   UNL     1      -1.012  11.436  20.905  0.00  0.00    +0.000 HD
ENDROOT
BRANCH   1   7
ATOM      5  C   UNL     1      -3.440  12.928  24.165  0.00  0.00    +0.000 A 
ATOM      6  C   UNL     1      -2.847  12.050  23.242  0.00  0.00    +0.000 A 
ATOM      7  C   UNL     1      -1.575  12.274  22.732  0.00  0.00    +0.000 A 
ATOM      8  C   UNL     1      -0.922  13.448  23.093  0.00  0.00    +0.000 A 
ATOM      9  C   UNL     1      -1.535  14.400  23.934  0.00  0.00    +0.000 A 
ATOM     10  C   UNL     1      -2.816  14.150  24.478  0.00  0.00    +0.000 A 
BRANCH   5  12
ATOM     11  C   UNL     1      -5.803  12.891  23.978  0.00  0.00    +0.000 C 
ATOM     12  O   UNL     1      -4.637  12.591  24.751  0.00  0.00    +0.000 OA
ENDBRANCH   5  12
BRANCH   9  13
ATOM     13  O   UNL     1      -0.721  15.492  24.126  0.00  0.00    +0.000 OA
ATOM     14  C   UNL     1       0.188  15.876  23.105  0.00  0.00    +0.000 C 
ENDBRANCH   9  13
BRANCH  10  15
ATOM     15  O   UNL     1      -3.338  15.140  25.265  0.00  0.00    +0.000 OA
ATOM     16  C   UNL     1      -4.124  16.181  24.717  0.00  0.00    +0.000 C 
ENDBRANCH  10  15
ENDBRANCH   1   7
BRANCH   2  17
ATOM     17  C   UNL     1       0.609   9.616  21.232  0.00  0.00    +0.000 A 
ATOM     18  C   UNL     1       1.162   8.313  21.308  0.00  0.00    +0.000 A 
ATOM     19  C   UNL     1       1.666   8.062  20.055  0.00  0.00    +0.000 A 
ATOM     20  O   UNL     1       1.450   9.166  19.278  0.00  0.00    +0.000 OA
ATOM     21  N   UNL     1       0.782  10.140  20.008  0.00  0.00    +0.000 NA
BRANCH  19  22
ATOM     22  C   UNL     1       2.335   6.925  19.431  0.00  0.00    +0.000 A 
ATOM     23  C   UNL     1       2.195   5.627  19.933  0.00  0.00    +0.000 A 
ATOM     24  C   UNL     1       2.849   4.547  19.326  0.00  0.00    +0.000 A 
ATOM     25  C   UNL     1       3.657   4.752  18.205  0.00  0.00    +0.000 A 
ATOM     26 CL   UNL     1       4.431   3.377  17.505  0.00  0.00    +0.000 Cl
ATOM     27  C   UNL     1       3.809   6.043  17.696  0.00  0.00    +0.000 A 
ATOM     28 CL   UNL     1       4.796   6.383  16.318  0.00  0.00    +0.000 Cl
ATOM     29  C   UNL     1       3.151   7.121  18.305  0.00  0.00    +0.000 A 
ENDBRANCH  19  22
ENDBRANCH   2  17
TORSDOF 6
ENDMDL
MODEL 4
REMARK VINA RESULT:      -7.7      0.771      1.462
REMARK  Name = 
REMARK  9 active torsions:
REMARK  status: ('A' for Active; 'I' for Inactive)
REMARK    1  A    between atoms: C_1  and  O_2
REMARK    2  A    between atoms: O_2  and  C_3
REMARK    3  A    between atoms: C_5  and  N_6
REMARK    4  A    between atoms: C_7  and  C_9
REMARK    5  A    between atoms: C_11  and  C_12
REMARK    6  A    between atoms: C_23  and  O_24
REMARK    7  A    between atoms: O_24  and  C_25
REMARK    8  A    between atoms: C_26  and  O_27
REMARK    9  A    between atoms: O_27  and  C_28
REMARK                            x       y       z     vdW  Elec       q    Type
REMARK                         _______ _______ _______ _____ _____    ______ ____
ROOT
ATOM      1  N   UNL     1       1.494   7.245  20.999  0.00  0.00    +0.000 N 
ATOM      2  C   UNL     1       1.236   8.521  20.528  0.00  0.00    +0.000 C 
ATOM      3  O   UNL     1       1.436   8.923  19.385  0.00  0.00    +0.000 OA
ATOM      4  H   UNL     1       1.186   7.060  21.949  0.00  0.00    +0.000 HD
ENDROOT
BRANCH   1   7
ATOM      5  C   UNL     1       3.839   5.389  18.741  0.00  0.00    +0.000 A 
ATOM      6  C   UNL     1       3.095   6.434  19.311  0.00  0.00    +0.000 A 
ATOM      7  C   UNL     1       2.159   6.205  20.312  0.00  0.00    +0.000 A 
ATOM      8  C   UNL     1       1.909   4.889  20.685  0.00  0.00    +0.000 A 
ATOM      9  C   UNL     1       2.563   3.810  20.056  0.00  0.00    +0.000 A 
ATOM     10  C   UNL     1       3.540   4.051  19.062  0.00  0.00    +0.000 A 
BRANCH   5  12
ATOM     11  C   UNL     1       6.160   5.763  18.434  0.00  0.00    +0.000 C 
ATOM     12  O   UNL     1       4.853   5.679  17.859  0.00  0.00    +0.000 OA
ENDBRANCH   5  12
BRANCH   9  13
ATOM     13  O   UNL     1       2.135   2.605  20.562  0.00  0.00    +0.000 OA
ATOM     14  C   UNL     1       1.541   2.556  21.850  0.00  0.00    +0.000 C 
ENDBRANCH   9  13
BRANCH  10  15
ATOM     15  O   UNL     1       4.106   2.943  18.495  0.00  0.00    +0.000 OA
ATOM     16  C   UNL     1       3.387   2.132  17.584  0.00  0.00    +0.000 C 
ENDBRANCH  10  15
ENDBRANCH   1   7
BRANCH   2  17
ATOM     17  C   UNL     1       0.653   9.423  21.523  0.00  0.00    +0.000 A 
ATOM     18  C   UNL     1      -0.283  10.453  21.259  0.00  0.00    +0.000 A 
ATOM     19  C   UNL     1      -0.548  11.021  22.481  0.00  0.00    +0.000 A 
ATOM     20  O   UNL     1       0.210  10.383  23.423  0.00  0.00    +0.000 OA
ATOM     21  N   UNL     1       0.958   9.376  22.830  0.00  0.00    +0.000 NA
BRANCH  19  22
ATOM     22  C   UNL     1      -1.424  12.095  22.942  0.00  0.00    +0.000 A 
ATOM     23  C   UNL     1      -2.723  11.839  23.391  0.00  0.00    +0.000 A 
ATOM     24  C   UNL     1      -3.553  12.881  23.823  0.00  0.00    +0.000 A 
ATOM     25  C   UNL     1      -3.093  14.200  23.810  0.00  0.00    +0.000 A 
ATOM     26 CL   UNL     1      -4.166  15.435  24.359  0.00  0.00    +0.000 Cl
ATOM     27  C   UNL     1      -1.799  14.471  23.360  0.00  0.00    +0.000 A 
ATOM     28 CL   UNL     1      -1.157  16.075  23.304  0.00  0.00    +0.000 Cl
ATOM     29  C   UNL     1      -0.970  13.425  22.930  0.00  0.00    +0.000 A 
ENDBRANCH  19  22
ENDBRANCH   2  17
TORSDOF 6
ENDMDL
MODEL 5
REMARK VINA RESULT:      -7.6      1.761      2.336
REMARK  Name = 
REMARK  9 active torsions:
REMARK  status: ('A' for Active; 'I' for Inactive)
REMARK    1  A    between atoms: C_1  and  O_2
REMARK    2  A    between atoms: O_2  and  C_3
REMARK    3  A    between atoms: C_5  and  N_6
REMARK    4  A    between atoms: C_7  and  C_9
REMARK    5  A    between atoms: C_11  and  C_12
REMARK    6  A    between atoms: C_23  and  O_24
REMARK    7  A    between atoms: O_24  and  C_25
REMARK    8  A    between atoms: C_26  and  O_27
REMARK    9  A    between atoms: O_27  and  C_28
REMARK                            x       y       z     vdW  Elec       q    Type
REMARK                         _______ _______ _______ _____ _____    ______ ____
ROOT
ATOM      1  N   UNL     1       2.231   7.457  19.107  0.00  0.00    +0.000 N 
ATOM      2  C   UNL     1       1.702   8.707  18.834  0.00  0.00    +0.000 C 
ATOM      3  O   UNL     1       1.770   9.302  17.761  0.00  0.00    +0.000 OA
ATOM      4  H   UNL     1       2.005   7.078  20.022  0.00  0.00    +0.000 HD
ENDROOT
BRANCH   1   7
ATOM      5  C   UNL     1       5.075   6.380  16.917  0.00  0.00    +0.000 A 
ATOM      6  C   UNL     1       4.189   7.200  17.636  0.00  0.00    +0.000 A 
ATOM      7  C   UNL     1       3.064   6.686  18.267  0.00  0.00    +0.000 A 
ATOM      8  C   UNL     1       2.779   5.335  18.100  0.00  0.00    +0.000 A 
ATOM      9  C   UNL     1       3.591   4.507  17.296  0.00  0.00    +0.000 A 
ATOM     10  C   UNL     1       4.754   5.028  16.684  0.00  0.00    +0.000 A 
BRANCH   5  12
ATOM     11  C   UNL     1       7.345   6.908  17.352  0.00  0.00    +0.000 C 
ATOM     12  O   UNL     1       6.248   6.907  16.432  0.00  0.00    +0.000 OA
ENDBRANCH   5  12
BRANCH   9  13
ATOM     13  O   UNL     1       3.100   3.223  17.249  0.00  0.00    +0.000 OA
ATOM     14  C   UNL     1       2.837   2.529  18.460  0.00  0.00    +0.000 C 
ENDBRANCH   9  13
BRANCH  10  15
ATOM     15  O   UNL     1       5.466   4.157  15.908  0.00  0.00    +0.000 OA
ATOM     16  C   UNL     1       5.531   4.305  14.502  0.00  0.00    +0.000 C 
ENDBRANCH  10  15
ENDBRANCH   1   7
BRANCH   2  17
ATOM     17  C   UNL     1       0.990   9.317  19.958  0.00  0.00    +0.000 A 
ATOM     18  C   UNL     1       0.629  10.683  20.066  0.00  0.00    +0.000 A 
ATOM     19  C   UNL     1      -0.022  10.790  21.270  0.00  0.00    +0.000 A 
ATOM     20  O   UNL     1      -0.027   9.559  21.864  0.00  0.00    +0.000 OA
ATOM     21  N   UNL     1       0.598   8.631  21.044  0.00  0.00    +0.000 NA
BRANCH  19  22
ATOM     22  C   UNL     1      -0.670  11.883  21.989  0.00  0.00    +0.000 A 
ATOM     23  C   UNL     1      -0.150  13.181  21.973  0.00  0.00    +0.000 A 
ATOM     24  C   UNL     1      -0.782  14.218  22.673  0.00  0.00    +0.000 A 
ATOM     25  C   UNL     1      -1.946  13.968  23.404  0.00  0.00    +0.000 A 
ATOM     26 CL   UNL     1      -2.674  15.290  24.240  0.00  0.00    +0.000 Cl
ATOM     27  C   UNL     1      -2.474  12.676  23.432  0.00  0.00    +0.000 A 
ATOM     28 CL   UNL     1      -3.906  12.281  24.317  0.00  0.00    +0.000 Cl
ATOM     29  C   UNL     1      -1.841  11.641  22.728  0.00  0.00    +0.000 A 
ENDBRANCH  19  22
ENDBRANCH   2  17
TORSDOF 6
ENDMDL
MODEL 6
REMARK VINA RESULT:      -7.6      1.311      1.356
REMARK  Name = 
REMARK  9 active torsions:
REMARK  status: ('A' for Active; 'I' for Inactive)
REMARK    1  A    between atoms: C_1  and  O_2
REMARK    2  A    between atoms: O_2  and  C_3
REMARK    3  A    between atoms: C_5  and  N_6
REMARK    4  A    between atoms: C_7  and  C_9
REMARK    5  A    between atoms: C_11  and  C_12
REMARK    6  A    between atoms: C_23  and  O_24
REMARK    7  A    between atoms: O_24  and  C_25
REMARK    8  A    between atoms: C_26  and  O_27
REMARK    9  A    between atoms: O_27  and  C_28
REMARK                            x       y       z     vdW  Elec       q    Type
REMARK                         _______ _______ _______ _____ _____    ______ ____
ROOT
ATOM      1  N   UNL     1       1.898   7.286  20.394  0.00  0.00    +0.000 N 
ATOM      2  C   UNL     1       1.459   8.532  19.979  0.00  0.00    +0.000 C 
ATOM      3  O   UNL     1       1.493   8.964  18.830  0.00  0.00    +0.000 OA
ATOM      4  H   UNL     1       1.713   7.061  21.367  0.00  0.00    +0.000 HD
ENDROOT
BRANCH   1   7
ATOM      5  C   UNL     1       4.648   5.289  18.814  0.00  0.00    +0.000 A 
ATOM      6  C   UNL     1       3.974   6.329  19.476  0.00  0.00    +0.000 A 
ATOM      7  C   UNL     1       2.592   6.330  19.620  0.00  0.00    +0.000 A 
ATOM      8  C   UNL     1       1.870   5.308  19.014  0.00  0.00    +0.000 A 
ATOM      9  C   UNL     1       2.509   4.308  18.253  0.00  0.00    +0.000 A 
ATOM     10  C   UNL     1       3.919   4.293  18.138  0.00  0.00    +0.000 A 
BRANCH   5  12
ATOM     11  C   UNL     1       6.662   6.251  18.013  0.00  0.00    +0.000 C 
ATOM     12  O   UNL     1       6.022   5.258  18.822  0.00  0.00    +0.000 OA
ENDBRANCH   5  12
BRANCH   9  13
ATOM     13  O   UNL     1       1.597   3.426  17.722  0.00  0.00    +0.000 OA
ATOM     14  C   UNL     1       1.022   2.429  18.552  0.00  0.00    +0.000 C 
ENDBRANCH   9  13
BRANCH  10  15
ATOM     15  O   UNL     1       4.448   3.298  17.363  0.00  0.00    +0.000 OA
ATOM     16  C   UNL     1       5.020   3.573  16.099  0.00  0.00    +0.000 C 
ENDBRANCH  10  15
ENDBRANCH   1   7
BRANCH   2  17
ATOM     17  C   UNL     1       0.893   9.357  21.048  0.00  0.00    +0.000 A 
ATOM     18  C   UNL     1       0.035  10.470  20.868  0.00  0.00    +0.000 A 
ATOM     19  C   UNL     1      -0.244  10.919  22.137  0.00  0.00    +0.000 A 
ATOM     20  O   UNL     1       0.434  10.134  23.027  0.00  0.00    +0.000 OA
ATOM     21  N   UNL     1       1.142   9.149  22.351  0.00  0.00    +0.000 NA
BRANCH  19  22
ATOM     22  C   UNL     1      -1.069  11.991  22.683  0.00  0.00    +0.000 A 
ATOM     23  C   UNL     1      -0.689  13.333  22.582  0.00  0.00    +0.000 A 
ATOM     24  C   UNL     1      -1.489  14.350  23.118  0.00  0.00    +0.000 A 
ATOM     25  C   UNL     1      -2.686  14.037  23.768  0.00  0.00    +0.000 A 
ATOM     26 CL   UNL     1      -3.626  15.338  24.402  0.00  0.00    +0.000 Cl
ATOM     27  C   UNL     1      -3.076  12.701  23.880  0.00  0.00    +0.000 A 
ATOM     28 CL   UNL     1      -4.536  12.228  24.675  0.00  0.00    +0.000 Cl
ATOM     29  C   UNL     1      -2.273  11.686  23.341  0.00  0.00    +0.000 A 
ENDBRANCH  19  22
ENDBRANCH   2  17
TORSDOF 6
ENDMDL
MODEL 7
REMARK VINA RESULT:      -7.5      0.614      2.470
REMARK  Name = 
REMARK  9 active torsions:
REMARK  status: ('A' for Active; 'I' for Inactive)
REMARK    1  A    between atoms: C_1  and  O_2
REMARK    2  A    between atoms: O_2  and  C_3
REMARK    3  A    between atoms: C_5  and  N_6
REMARK    4  A    between atoms: C_7  and  C_9
REMARK    5  A    between atoms: C_11  and  C_12
REMARK    6  A    between atoms: C_23  and  O_24
REMARK    7  A    between atoms: O_24  and  C_25
REMARK    8  A    between atoms: C_26  and  O_27
REMARK    9  A    between atoms: O_27  and  C_28
REMARK                            x       y       z     vdW  Elec       q    Type
REMARK                         _______ _______ _______ _____ _____    ______ ____
ROOT
ATOM      1  N   UNL     1       1.426   7.506  21.043  0.00  0.00    +0.000 N 
ATOM      2  C   UNL     1       1.099   8.775  20.595  0.00  0.00    +0.000 C 
ATOM      3  O   UNL     1       1.285   9.211  19.462  0.00  0.00    +0.000 OA
ATOM      4  H   UNL     1       1.121   7.285  21.986  0.00  0.00    +0.000 HD
ENDROOT
BRANCH   1   7
ATOM      5  C   UNL     1       2.795   4.202  19.925  0.00  0.00    +0.000 A 
ATOM      6  C   UNL     1       2.174   5.183  20.717  0.00  0.00    +0.000 A 
ATOM      7  C   UNL     1       2.154   6.520  20.342  0.00  0.00    +0.000 A 
ATOM      8  C   UNL     1       2.844   6.889  19.192  0.00  0.00    +0.000 A 
ATOM      9  C   UNL     1       3.566   5.944  18.434  0.00  0.00    +0.000 A 
ATOM     10  C   UNL     1       3.554   4.578  18.801  0.00  0.00    +0.000 A 
BRANCH   5  12
ATOM     11  C   UNL     1       2.050   2.622  21.529  0.00  0.00    +0.000 C 
ATOM     12  O   UNL     1       2.666   2.875  20.262  0.00  0.00    +0.000 OA
ENDBRANCH   5  12
BRANCH   9  13
ATOM     13  O   UNL     1       4.194   6.538  17.365  0.00  0.00    +0.000 OA
ATOM     14  C   UNL     1       5.581   6.830  17.442  0.00  0.00    +0.000 C 
ENDBRANCH   9  13
BRANCH  10  15
ATOM     15  O   UNL     1       4.300   3.739  18.018  0.00  0.00    +0.000 OA
ATOM     16  C   UNL     1       3.864   3.352  16.729  0.00  0.00    +0.000 C 
ENDBRANCH  10  15
ENDBRANCH   1   7
BRANCH   2  17
ATOM     17  C   UNL     1       0.458   9.622  21.602  0.00  0.00    +0.000 A 
ATOM     18  C   UNL     1      -0.351  10.755  21.338  0.00  0.00    +0.000 A 
ATOM     19  C   UNL     1      -0.734  11.220  22.572  0.00  0.00    +0.000 A 
ATOM     20  O   UNL     1      -0.162  10.425  23.525  0.00  0.00    +0.000 OA
ATOM     21  N   UNL     1       0.580   9.418  22.924  0.00  0.00    +0.000 NA
BRANCH  19  22
ATOM     22  C   UNL     1      -1.579  12.317  23.034  0.00  0.00    +0.000 A 
ATOM     23  C   UNL     1      -1.086  13.620  23.157  0.00  0.00    +0.000 A 
ATOM     24  C   UNL     1      -1.909  14.661  23.607  0.00  0.00    +0.000 A 
ATOM     25  C   UNL     1      -3.241  14.410  23.946  0.00  0.00    +0.000 A 
ATOM     26 CL   UNL     1      -4.199  15.738  24.492  0.00  0.00    +0.000 Cl
ATOM     27  C   UNL     1      -3.745  13.113  23.833  0.00  0.00    +0.000 A 
ATOM     28 CL   UNL     1      -5.379  12.718  24.238  0.00  0.00    +0.000 Cl
ATOM     29  C   UNL     1      -2.919  12.074  23.379  0.00  0.00    +0.000 A 
ENDBRANCH  19  22
ENDBRANCH   2  17
TORSDOF 6
ENDMDL
MODEL 8
REMARK VINA RESULT:      -7.5      2.177      2.856
REMARK  Name = 
REMARK  9 active torsions:
REMARK  status: ('A' for Active; 'I' for Inactive)
REMARK    1  A    between atoms: C_1  and  O_2
REMARK    2  A    between atoms: O_2  and  C_3
REMARK    3  A    between atoms: C_5  and  N_6
REMARK    4  A    between atoms: C_7  and  C_9
REMARK    5  A    between atoms: C_11  and  C_12
REMARK    6  A    between atoms: C_23  and  O_24
REMARK    7  A    between atoms: O_24  and  C_25
REMARK    8  A    between atoms: C_26  and  O_27
REMARK    9  A    between atoms: O_27  and  C_28
REMARK                            x       y       z     vdW  Elec       q    Type
REMARK                         _______ _______ _______ _____ _____    ______ ____
ROOT
ATOM      1  N   UNL     1       2.331   7.489  18.739  0.00  0.00    +0.000 N 
ATOM      2  C   UNL     1       1.899   8.749  18.363  0.00  0.00    +0.000 C 
ATOM      3  O   UNL     1       2.108   9.291  17.281  0.00  0.00    +0.000 OA
ATOM      4  H   UNL     1       1.994   7.163  19.640  0.00  0.00    +0.000 HD
ENDROOT
BRANCH   1   7
ATOM      5  C   UNL     1       5.310   6.189  16.872  0.00  0.00    +0.000 A 
ATOM      6  C   UNL     1       4.397   7.080  17.462  0.00  0.00    +0.000 A 
ATOM      7  C   UNL     1       3.204   6.641  18.022  0.00  0.00    +0.000 A 
ATOM      8  C   UNL     1       2.886   5.292  17.911  0.00  0.00    +0.000 A 
ATOM      9  C   UNL     1       3.732   4.391  17.232  0.00  0.00    +0.000 A 
ATOM     10  C   UNL     1       4.961   4.837  16.693  0.00  0.00    +0.000 A 
BRANCH   5  12
ATOM     11  C   UNL     1       7.470   6.930  17.510  0.00  0.00    +0.000 C 
ATOM     12  O   UNL     1       6.538   6.649  16.461  0.00  0.00    +0.000 OA
ENDBRANCH   5  12
BRANCH   9  13
ATOM     13  O   UNL     1       3.201   3.123  17.219  0.00  0.00    +0.000 OA
ATOM     14  C   UNL     1       3.423   2.258  18.323  0.00  0.00    +0.000 C 
ENDBRANCH   9  13
BRANCH  10  15
ATOM     15  O   UNL     1       5.705   3.897  16.035  0.00  0.00    +0.000 OA
ATOM     16  C   UNL     1       5.957   3.996  14.646  0.00  0.00    +0.000 C 
ENDBRANCH  10  15
ENDBRANCH   1   7
BRANCH   2  17
ATOM     17  C   UNL     1       1.109   9.443  19.381  0.00  0.00    +0.000 A 
ATOM     18  C   UNL     1       0.345  10.619  19.177  0.00  0.00    +0.000 A 
ATOM     19  C   UNL     1      -0.223  10.896  20.397  0.00  0.00    +0.000 A 
ATOM     20  O   UNL     1       0.200   9.951  21.290  0.00  0.00    +0.000 OA
ATOM     21  N   UNL     1       1.029   9.035  20.658  0.00  0.00    +0.000 NA
BRANCH  19  22
ATOM     22  C   UNL     1      -1.133  11.925  20.891  0.00  0.00    +0.000 A 
ATOM     23  C   UNL     1      -2.282  12.289  20.183  0.00  0.00    +0.000 A 
ATOM     24  C   UNL     1      -3.142  13.283  20.668  0.00  0.00    +0.000 A 
ATOM     25  C   UNL     1      -2.860  13.932  21.873  0.00  0.00    +0.000 A 
ATOM     26 CL   UNL     1      -3.962  15.145  22.414  0.00  0.00    +0.000 Cl
ATOM     27  C   UNL     1      -1.713  13.582  22.588  0.00  0.00    +0.000 A 
ATOM     28 CL   UNL     1      -1.288  14.341  24.082  0.00  0.00    +0.000 Cl
ATOM     29  C   UNL     1      -0.856  12.584  22.101  0.00  0.00    +0.000 A 
ENDBRANCH  19  22
ENDBRANCH   2  17
TORSDOF 6
ENDMDL
MODEL 9
REMARK VINA RESULT:      -7.5      1.975      2.956
REMARK  Name = 
REMARK  9 active torsions:
REMARK  status: ('A' for Active; 'I' for Inactive)
REMARK    1  A    between atoms: C_1  and  O_2
REMARK    2  A    between atoms: O_2  and  C_3
REMARK    3  A    between atoms: C_5  and  N_6
REMARK    4  A    between atoms: C_7  and  C_9
REMARK    5  A    between atoms: C_11  and  C_12
REMARK    6  A    between atoms: C_23  and  O_24
REMARK    7  A    between atoms: O_24  and  C_25
REMARK    8  A    between atoms: C_26  and  O_27
REMARK    9  A    between atoms: O_27  and  C_28
REMARK                            x       y       z     vdW  Elec       q    Type
REMARK                         _______ _______ _______ _____ _____    ______ ____
ROOT
ATOM      1  N   UNL     1       2.597   7.082  19.042  0.00  0.00    +0.000 N 
ATOM      2  C   UNL     1       1.987   8.292  18.759  0.00  0.00    +0.000 C 
ATOM      3  O   UNL     1       1.953   8.845  17.662  0.00  0.00    +0.000 OA
ATOM      4  H   UNL     1       2.453   6.731  19.984  0.00  0.00    +0.000 HD
ENDROOT
BRANCH   1   7
ATOM      5  C   UNL     1       5.425   5.996  16.835  0.00  0.00    +0.000 A 
ATOM      6  C   UNL     1       4.563   6.817  17.582  0.00  0.00    +0.000 A 
ATOM      7  C   UNL     1       3.410   6.318  18.176  0.00  0.00    +0.000 A 
ATOM      8  C   UNL     1       3.077   4.989  17.944  0.00  0.00    +0.000 A 
ATOM      9  C   UNL     1       3.866   4.168  17.112  0.00  0.00    +0.000 A 
ATOM     10  C   UNL     1       5.056   4.670  16.538  0.00  0.00    +0.000 A 
BRANCH   5  12
ATOM     11  C   UNL     1       7.470   7.054  17.400  0.00  0.00    +0.000 C 
ATOM     12  O   UNL     1       6.623   6.499  16.388  0.00  0.00    +0.000 OA
ENDBRANCH   5  12
BRANCH   9  13
ATOM     13  O   UNL     1       3.327   2.907  17.001  0.00  0.00    +0.000 OA
ATOM     14  C   UNL     1       2.749   2.289  18.141  0.00  0.00    +0.000 C 
ENDBRANCH   9  13
BRANCH  10  15
ATOM     15  O   UNL     1       5.744   3.808  15.729  0.00  0.00    +0.000 OA
ATOM     16  C   UNL     1       5.870   4.041  14.340  0.00  0.00    +0.000 C 
ENDBRANCH  10  15
ENDBRANCH   1   7
BRANCH   2  17
ATOM     17  C   UNL     1       1.322   8.914  19.905  0.00  0.00    +0.000 A 
ATOM     18  C   UNL     1       0.848  10.248  19.964  0.00  0.00    +0.000 A 
ATOM     19  C   UNL     1       0.296  10.379  21.216  0.00  0.00    +0.000 A 
ATOM     20  O   UNL     1       0.455   9.195  21.880  0.00  0.00    +0.000 OA
ATOM     21  N   UNL     1       1.090   8.271  21.062  0.00  0.00    +0.000 NA
BRANCH  19  22
ATOM     22  C   UNL     1      -0.386  11.458  21.924  0.00  0.00    +0.000 A 
ATOM     23  C   UNL     1      -1.445  11.204  22.802  0.00  0.00    +0.000 A 
ATOM     24  C   UNL     1      -2.092  12.251  23.469  0.00  0.00    +0.000 A 
ATOM     25  C   UNL     1      -1.690  13.574  23.264  0.00  0.00    +0.000 A 
ATOM     26 CL   UNL     1      -2.529  14.815  24.120  0.00  0.00    +0.000 Cl
ATOM     27  C   UNL     1      -0.637  13.842  22.387  0.00  0.00    +0.000 A 
ATOM     28 CL   UNL     1      -0.083  15.449  22.073  0.00  0.00    +0.000 Cl
ATOM     29  C   UNL     1       0.011  12.791  21.723  0.00  0.00    +0.000 A 
ENDBRANCH  19  22
ENDBRANCH   2  17
TORSDOF 6
ENDMDL
