MODEL 1
REMARK VINA RESULT:      -7.1      0.000      0.000
REMARK  Name = 
REMARK  13 active torsions:
REMARK  status: ('A' for Active; 'I' for Inactive)
REMARK    1  A    between atoms: C_1  and  C_2
REMARK    2  A    between atoms: C_2  and  C_4
REMARK    3  A    between atoms: C_5  and  C_6
REMARK    4  A    between atoms: C_10  and  C_11
REMARK    5  A    between atoms: C_10  and  C_12
REMARK    6  A    between atoms: C_14  and  C_15
REMARK    7  A    between atoms: C_14  and  O_16
REMARK    8  A    between atoms: O_16  and  C_17
REMARK    9  A    between atoms: C_19  and  C_20
REMARK   10  A    between atoms: C_20  and  O_21
REMARK   11  A    between atoms: C_22  and  O_23
REMARK   12  A    between atoms: C_24  and  O_25
REMARK   13  A    between atoms: C_26  and  O_27
REMARK                            x       y       z     vdW  Elec       q    Type
REMARK                         _______ _______ _______ _____ _____    ______ ____
ROOT
ATOM      1  O   UNL     1       4.284   4.101  17.991  0.00  0.00    +0.000 OA
ENDROOT
BRANCH   1  10
ATOM      2  C   UNL     1       3.103   2.545  19.792  0.00  0.00    +0.000 C 
ATOM      3  O   UNL     1       2.084   1.551  19.415  0.00  0.00    +0.000 OA
ATOM      4  C   UNL     1       1.266   2.434  18.607  0.00  0.00    +0.000 C 
ATOM      5  C   UNL     1       0.973   3.614  19.535  0.00  0.00    +0.000 C 
ATOM      6  C   UNL     1       2.127   3.511  20.550  0.00  0.00    +0.000 C 
ATOM      7  C   UNL     1       2.653   4.874  20.973  0.00  0.00    +0.000 C 
ATOM      8  C   UNL     1       1.548   2.845  21.836  0.00  0.00    +0.000 C 
ATOM      9  C   UNL     1       2.251   2.891  17.543  0.00  0.00    +0.000 C 
ATOM     10  C   UNL     1       3.610   2.874  18.309  0.00  0.00    +0.000 C 
ATOM     11  C   UNL     1       4.360   1.662  17.669  0.00  0.00    +0.000 C 
BRANCH   2  13
ATOM     12  C   UNL     1       4.831   0.820  20.440  0.00  0.00    +0.000 C 
ATOM     13  C   UNL     1       4.157   1.949  20.685  0.00  0.00    +0.000 C 
BRANCH  12  15
ATOM     14  C   UNL     1       6.235  -1.141  21.224  0.00  0.00    +0.000 C 
ATOM     15  C   UNL     1       5.830   0.290  21.410  0.00  0.00    +0.000 C 
ATOM     16  O   UNL     1       6.284   1.004  22.307  0.00  0.00    +0.000 OA
ENDBRANCH  12  15
ENDBRANCH   2  13
ENDBRANCH   1  10
BRANCH   1  17
ATOM     17  C   UNL     1       5.216   4.175  16.913  0.00  0.00    +0.000 C 
ATOM     18  O   UNL     1       6.573   4.127  17.411  0.00  0.00    +0.000 OA
ATOM     19  C   UNL     1       7.125   5.334  17.991  0.00  0.00    +0.000 C 
ATOM     20  C   UNL     1       6.922   6.576  17.104  0.00  0.00    +0.000 C 
ATOM     21  C   UNL     1       5.465   6.674  16.628  0.00  0.00    +0.000 C 
ATOM     22  C   UNL     1       5.057   5.362  15.944  0.00  0.00    +0.000 C 
BRANCH  20  23
ATOM     23  O   UNL     1       7.826   6.504  15.990  0.00  0.00    +0.000 OA
ATOM     24  H   UNL     1       7.416   6.997  15.253  0.00  0.00    +0.000 HD
ENDBRANCH  20  23
BRANCH  21  25
ATOM     25  O   UNL     1       4.621   7.021  17.732  0.00  0.00    +0.000 OA
ATOM     26  H   UNL     1       3.896   6.385  17.781  0.00  0.00    +0.000 HD
ENDBRANCH  21  25
BRANCH  22  27
ATOM     27  O   UNL     1       5.877   5.174  14.771  0.00  0.00    +0.000 OA
ATOM     28  H   UNL     1       5.378   4.674  14.098  0.00  0.00    +0.000 HD
ENDBRANCH  22  27
BRANCH  19  29
ATOM     29  C   UNL     1       6.709   5.509  19.462  0.00  0.00    +0.000 C 
BRANCH  29  30
ATOM     30  O   UNL     1       7.816   5.511  20.357  0.00  0.00    +0.000 OA
ATOM     31  H   UNL     1       8.012   4.587  20.596  0.00  0.00    +0.000 HD
ENDBRANCH  29  30
ENDBRANCH  19  29
ENDBRANCH   1  17
TORSDOF 9
ENDMDL
MODEL 2
REMARK VINA RESULT:      -7.1      0.801      2.252
REMARK  Name = 
REMARK  13 active torsions:
REMARK  status: ('A' for Active; 'I' for Inactive)
REMARK    1  A    between atoms: C_1  and  C_2
REMARK    2  A    between atoms: C_2  and  C_4
REMARK    3  A    between atoms: C_5  and  C_6
REMARK    4  A    between atoms: C_10  and  C_11
REMARK    5  A    between atoms: C_10  and  C_12
REMARK    6  A    between atoms: C_14  and  C_15
REMARK    7  A    between atoms: C_14  and  O_16
REMARK    8  A    between atoms: O_16  and  C_17
REMARK    9  A    between atoms: C_19  and  C_20
REMARK   10  A    between atoms: C_20  and  O_21
REMARK   11  A    between atoms: C_22  and  O_23
REMARK   12  A    between atoms: C_24  and  O_25
REMARK   13  A    between atoms: C_26  and  O_27
REMARK                            x       y       z     vdW  Elec       q    Type
REMARK                         _______ _______ _______ _____ _____    ______ ____
ROOT
ATOM      1  O   UNL     1       4.087   4.298  17.786  0.00  0.00    +0.000 OA
ENDROOT
BRANCH   1  10
ATOM      2  C   UNL     1       3.187   2.646  19.662  0.00  0.00    +0.000 C 
ATOM      3  O   UNL     1       2.224   1.574  19.360  0.00  0.00    +0.000 OA
ATOM      4  C   UNL     1       1.275   2.390  18.629  0.00  0.00    +0.000 C 
ATOM      5  C   UNL     1       0.964   3.540  19.589  0.00  0.00    +0.000 C 
ATOM      6  C   UNL     1       2.201   3.528  20.505  0.00  0.00    +0.000 C 
ATOM      7  C   UNL     1       2.649   4.929  20.897  0.00  0.00    +0.000 C 
ATOM      8  C   UNL     1       1.786   2.814  21.828  0.00  0.00    +0.000 C 
ATOM      9  C   UNL     1       2.128   2.928  17.492  0.00  0.00    +0.000 C 
ATOM     10  C   UNL     1       3.543   3.019  18.146  0.00  0.00    +0.000 C 
ATOM     11  C   UNL     1       4.333   1.875  17.436  0.00  0.00    +0.000 C 
BRANCH   2  13
ATOM     12  C   UNL     1       4.673   0.848  20.629  0.00  0.00    +0.000 C 
ATOM     13  C   UNL     1       4.355   2.136  20.460  0.00  0.00    +0.000 C 
BRANCH  12  15
ATOM     14  C   UNL     1       6.357  -0.944  21.252  0.00  0.00    +0.000 C 
ATOM     15  C   UNL     1       5.830   0.441  21.475  0.00  0.00    +0.000 C 
ATOM     16  O   UNL     1       6.311   1.215  22.306  0.00  0.00    +0.000 OA
ENDBRANCH  12  15
ENDBRANCH   2  13
ENDBRANCH   1  10
BRANCH   1  17
ATOM     17  C   UNL     1       4.914   5.030  18.689  0.00  0.00    +0.000 C 
ATOM     18  O   UNL     1       4.944   6.431  18.329  0.00  0.00    +0.000 OA
ATOM     19  C   UNL     1       5.782   6.828  17.217  0.00  0.00    +0.000 C 
ATOM     20  C   UNL     1       7.213   6.268  17.311  0.00  0.00    +0.000 C 
ATOM     21  C   UNL     1       7.191   4.764  17.623  0.00  0.00    +0.000 C 
ATOM     22  C   UNL     1       6.352   4.511  18.884  0.00  0.00    +0.000 C 
BRANCH  20  23
ATOM     23  O   UNL     1       7.930   6.994  18.322  0.00  0.00    +0.000 OA
ATOM     24  H   UNL     1       8.751   7.327  17.911  0.00  0.00    +0.000 HD
ENDBRANCH  20  23
BRANCH  21  25
ATOM     25  O   UNL     1       6.721   4.043  16.479  0.00  0.00    +0.000 OA
ATOM     26  H   UNL     1       5.798   3.798  16.623  0.00  0.00    +0.000 HD
ENDBRANCH  21  25
BRANCH  22  27
ATOM     27  O   UNL     1       6.983   5.170  20.003  0.00  0.00    +0.000 OA
ATOM     28  H   UNL     1       6.334   5.741  20.455  0.00  0.00    +0.000 HD
ENDBRANCH  22  27
BRANCH  19  29
ATOM     29  C   UNL     1       5.085   6.608  15.862  0.00  0.00    +0.000 C 
BRANCH  29  30
ATOM     30  O   UNL     1       5.962   6.103  14.861  0.00  0.00    +0.000 OA
ATOM     31  H   UNL     1       5.988   5.133  14.945  0.00  0.00    +0.000 HD
ENDBRANCH  29  30
ENDBRANCH  19  29
ENDBRANCH   1  17
TORSDOF 9
ENDMDL
MODEL 3
REMARK VINA RESULT:      -6.9      2.090      4.187
REMARK  Name = 
REMARK  13 active torsions:
REMARK  status: ('A' for Active; 'I' for Inactive)
REMARK    1  A    between atoms: C_1  and  C_2
REMARK    2  A    between atoms: C_2  and  C_4
REMARK    3  A    between atoms: C_5  and  C_6
REMARK    4  A    between atoms: C_10  and  C_11
REMARK    5  A    between atoms: C_10  and  C_12
REMARK    6  A    between atoms: C_14  and  C_15
REMARK    7  A    between atoms: C_14  and  O_16
REMARK    8  A    between atoms: O_16  and  C_17
REMARK    9  A    between atoms: C_19  and  C_20
REMARK   10  A    between atoms: C_20  and  O_21
REMARK   11  A    between atoms: C_22  and  O_23
REMARK   12  A    between atoms: C_24  and  O_25
REMARK   13  A    between atoms: C_26  and  O_27
REMARK                            x       y       z     vdW  Elec       q    Type
REMARK                         _______ _______ _______ _____ _____    ______ ____
ROOT
ATOM      1  O   UNL     1       4.563   4.815  17.470  0.00  0.00    +0.000 OA
ENDROOT
BRANCH   1  10
ATOM      2  C   UNL     1       2.893   4.354  19.485  0.00  0.00    +0.000 C 
ATOM      3  O   UNL     1       3.221   3.413  20.569  0.00  0.00    +0.000 OA
ATOM      4  C   UNL     1       3.625   2.306  19.725  0.00  0.00    +0.000 C 
ATOM      5  C   UNL     1       2.435   2.108  18.784  0.00  0.00    +0.000 C 
ATOM      6  C   UNL     1       1.753   3.487  18.845  0.00  0.00    +0.000 C 
ATOM      7  C   UNL     1       1.194   3.920  17.498  0.00  0.00    +0.000 C 
ATOM      8  C   UNL     1       0.531   3.353  19.804  0.00  0.00    +0.000 C 
ATOM      9  C   UNL     1       4.771   2.913  18.933  0.00  0.00    +0.000 C 
ATOM     10  C   UNL     1       4.355   4.414  18.833  0.00  0.00    +0.000 C 
ATOM     11  C   UNL     1       5.380   5.127  19.770  0.00  0.00    +0.000 C 
BRANCH   2  13
ATOM     12  C   UNL     1       2.235   6.785  19.301  0.00  0.00    +0.000 C 
ATOM     13  C   UNL     1       2.404   5.672  20.021  0.00  0.00    +0.000 C 
BRANCH  12  15
ATOM     14  C   UNL     1       1.507   9.197  19.003  0.00  0.00    +0.000 C 
ATOM     15  C   UNL     1       1.783   8.056  19.935  0.00  0.00    +0.000 C 
ATOM     16  O   UNL     1       1.651   8.142  21.158  0.00  0.00    +0.000 OA
ENDBRANCH  12  15
ENDBRANCH   2  13
ENDBRANCH   1  10
BRANCH   1  17
ATOM     17  C   UNL     1       5.461   4.103  16.619  0.00  0.00    +0.000 C 
ATOM     18  O   UNL     1       6.831   4.353  17.005  0.00  0.00    +0.000 OA
ATOM     19  C   UNL     1       7.429   5.612  16.609  0.00  0.00    +0.000 C 
ATOM     20  C   UNL     1       7.225   5.932  15.117  0.00  0.00    +0.000 C 
ATOM     21  C   UNL     1       5.756   5.738  14.714  0.00  0.00    +0.000 C 
ATOM     22  C   UNL     1       5.297   4.326  15.103  0.00  0.00    +0.000 C 
BRANCH  20  23
ATOM     23  O   UNL     1       8.090   5.090  14.339  0.00  0.00    +0.000 OA
ATOM     24  H   UNL     1       7.531   4.405  13.925  0.00  0.00    +0.000 HD
ENDBRANCH  20  23
BRANCH  21  25
ATOM     25  O   UNL     1       4.957   6.772  15.298  0.00  0.00    +0.000 OA
ATOM     26  H   UNL     1       4.211   6.957  14.713  0.00  0.00    +0.000 HD
ENDBRANCH  21  25
BRANCH  22  27
ATOM     27  O   UNL     1       6.074   3.363  14.361  0.00  0.00    +0.000 OA
ATOM     28  H   UNL     1       6.581   3.818  13.663  0.00  0.00    +0.000 HD
ENDBRANCH  22  27
BRANCH  19  29
ATOM     29  C   UNL     1       7.065   6.753  17.576  0.00  0.00    +0.000 C 
BRANCH  29  30
ATOM     30  O   UNL     1       7.271   8.044  17.014  0.00  0.00    +0.000 OA
ATOM     31  H   UNL     1       6.428   8.343  16.627  0.00  0.00    +0.000 HD
ENDBRANCH  29  30
ENDBRANCH  19  29
ENDBRANCH   1  17
TORSDOF 9
ENDMDL
MODEL 4
REMARK VINA RESULT:      -6.9      1.809      6.368
REMARK  Name = 
REMARK  13 active torsions:
REMARK  status: ('A' for Active; 'I' for Inactive)
REMARK    1  A    between atoms: C_1  and  C_2
REMARK    2  A    between atoms: C_2  and  C_4
REMARK    3  A    between atoms: C_5  and  C_6
REMARK    4  A    between atoms: C_10  and  C_11
REMARK    5  A    between atoms: C_10  and  C_12
REMARK    6  A    between atoms: C_14  and  C_15
REMARK    7  A    between atoms: C_14  and  O_16
REMARK    8  A    between atoms: O_16  and  C_17
REMARK    9  A    between atoms: C_19  and  C_20
REMARK   10  A    between atoms: C_20  and  O_21
REMARK   11  A    between atoms: C_22  and  O_23
REMARK   12  A    between atoms: C_24  and  O_25
REMARK   13  A    between atoms: C_26  and  O_27
REMARK                            x       y       z     vdW  Elec       q    Type
REMARK                         _______ _______ _______ _____ _____    ______ ____
ROOT
ATOM      1  O   UNL     1       4.325   3.539  18.033  0.00  0.00    +0.000 OA
ENDROOT
BRANCH   1  10
ATOM      2  C   UNL     1       5.477   5.697  16.996  0.00  0.00    +0.000 C 
ATOM      3  O   UNL     1       6.144   5.671  15.684  0.00  0.00    +0.000 OA
ATOM      4  C   UNL     1       6.951   4.490  15.921  0.00  0.00    +0.000 C 
ATOM      5  C   UNL     1       7.690   4.805  17.223  0.00  0.00    +0.000 C 
ATOM      6  C   UNL     1       6.781   5.879  17.848  0.00  0.00    +0.000 C 
ATOM      7  C   UNL     1       6.676   5.744  19.360  0.00  0.00    +0.000 C 
ATOM      8  C   UNL     1       7.452   7.261  17.577  0.00  0.00    +0.000 C 
ATOM      9  C   UNL     1       5.893   3.436  16.209  0.00  0.00    +0.000 C 
ATOM     10  C   UNL     1       4.757   4.272  16.876  0.00  0.00    +0.000 C 
ATOM     11  C   UNL     1       3.637   4.276  15.788  0.00  0.00    +0.000 C 
BRANCH   2  13
ATOM     12  C   UNL     1       3.576   6.989  18.044  0.00  0.00    +0.000 C 
ATOM     13  C   UNL     1       4.527   6.858  17.114  0.00  0.00    +0.000 C 
BRANCH  12  15
ATOM     14  C   UNL     1       1.803   8.324  19.273  0.00  0.00    +0.000 C 
ATOM     15  C   UNL     1       2.656   8.161  18.051  0.00  0.00    +0.000 C 
ATOM     16  O   UNL     1       2.614   8.940  17.096  0.00  0.00    +0.000 OA
ENDBRANCH  12  15
ENDBRANCH   2  13
ENDBRANCH   1  10
BRANCH   1  17
ATOM     17  C   UNL     1       3.378   4.092  18.947  0.00  0.00    +0.000 C 
ATOM     18  O   UNL     1       3.795   3.859  20.312  0.00  0.00    +0.000 OA
ATOM     19  C   UNL     1       3.584   2.538  20.869  0.00  0.00    +0.000 C 
ATOM     20  C   UNL     1       2.154   2.012  20.647  0.00  0.00    +0.000 C 
ATOM     21  C   UNL     1       1.729   2.191  19.182  0.00  0.00    +0.000 C 
ATOM     22  C   UNL     1       1.911   3.658  18.768  0.00  0.00    +0.000 C 
BRANCH  20  23
ATOM     23  O   UNL     1       1.262   2.707  21.533  0.00  0.00    +0.000 OA
ATOM     24  H   UNL     1       1.813   3.206  22.165  0.00  0.00    +0.000 HD
ENDBRANCH  20  23
BRANCH  21  25
ATOM     25  O   UNL     1       2.457   1.278  18.355  0.00  0.00    +0.000 OA
ATOM     26  H   UNL     1       2.640   0.476  18.861  0.00  0.00    +0.000 HD
ENDBRANCH  21  25
BRANCH  22  27
ATOM     27  O   UNL     1       1.036   4.480  19.570  0.00  0.00    +0.000 OA
ATOM     28  H   UNL     1       0.823   5.300  19.086  0.00  0.00    +0.000 HD
ENDBRANCH  22  27
BRANCH  19  29
ATOM     29  C   UNL     1       4.706   1.561  20.476  0.00  0.00    +0.000 C 
BRANCH  29  30
ATOM     30  O   UNL     1       5.619   1.305  21.538  0.00  0.00    +0.000 OA
ATOM     31  H   UNL     1       6.066   2.142  21.759  0.00  0.00    +0.000 HD
ENDBRANCH  29  30
ENDBRANCH  19  29
ENDBRANCH   1  17
TORSDOF 9
ENDMDL
MODEL 5
REMARK VINA RESULT:      -6.6      0.996      1.809
REMARK  Name = 
REMARK  13 active torsions:
REMARK  status: ('A' for Active; 'I' for Inactive)
REMARK    1  A    between atoms: C_1  and  C_2
REMARK    2  A    between atoms: C_2  and  C_4
REMARK    3  A    between atoms: C_5  and  C_6
REMARK    4  A    between atoms: C_10  and  C_11
REMARK    5  A    between atoms: C_10  and  C_12
REMARK    6  A    between atoms: C_14  and  C_15
REMARK    7  A    between atoms: C_14  and  O_16
REMARK    8  A    between atoms: O_16  and  C_17
REMARK    9  A    between atoms: C_19  and  C_20
REMARK   10  A    between atoms: C_20  and  O_21
REMARK   11  A    between atoms: C_22  and  O_23
REMARK   12  A    between atoms: C_24  and  O_25
REMARK   13  A    between atoms: C_26  and  O_27
REMARK                            x       y       z     vdW  Elec       q    Type
REMARK                         _______ _______ _______ _____ _____    ______ ____
ROOT
ATOM      1  O   UNL     1       4.128   4.116  17.748  0.00  0.00    +0.000 OA
ENDROOT
BRANCH   1  10
ATOM      2  C   UNL     1       3.200   2.563  19.694  0.00  0.00    +0.000 C 
ATOM      3  O   UNL     1       2.199   1.513  19.443  0.00  0.00    +0.000 OA
ATOM      4  C   UNL     1       1.267   2.333  18.695  0.00  0.00    +0.000 C 
ATOM      5  C   UNL     1       1.006   3.526  19.616  0.00  0.00    +0.000 C 
ATOM      6  C   UNL     1       2.255   3.507  20.517  0.00  0.00    +0.000 C 
ATOM      7  C   UNL     1       2.752   4.905  20.852  0.00  0.00    +0.000 C 
ATOM      8  C   UNL     1       1.834   2.855  21.870  0.00  0.00    +0.000 C 
ATOM      9  C   UNL     1       2.122   2.801  17.529  0.00  0.00    +0.000 C 
ATOM     10  C   UNL     1       3.547   2.870  18.161  0.00  0.00    +0.000 C 
ATOM     11  C   UNL     1       4.291   1.675  17.484  0.00  0.00    +0.000 C 
BRANCH   2  13
ATOM     12  C   UNL     1       4.722   0.760  20.594  0.00  0.00    +0.000 C 
ATOM     13  C   UNL     1       4.362   2.044  20.497  0.00  0.00    +0.000 C 
BRANCH  12  15
ATOM     14  C   UNL     1       6.404  -1.037  21.208  0.00  0.00    +0.000 C 
ATOM     15  C   UNL     1       5.868   0.341  21.450  0.00  0.00    +0.000 C 
ATOM     16  O   UNL     1       6.332   1.100  22.304  0.00  0.00    +0.000 OA
ENDBRANCH  12  15
ENDBRANCH   2  13
ENDBRANCH   1  10
BRANCH   1  17
ATOM     17  C   UNL     1       5.480   4.445  18.068  0.00  0.00    +0.000 C 
ATOM     18  O   UNL     1       5.572   5.807  18.544  0.00  0.00    +0.000 OA
ATOM     19  C   UNL     1       5.530   6.872  17.564  0.00  0.00    +0.000 C 
ATOM     20  C   UNL     1       6.498   6.647  16.388  0.00  0.00    +0.000 C 
ATOM     21  C   UNL     1       6.356   5.224  15.829  0.00  0.00    +0.000 C 
ATOM     22  C   UNL     1       6.527   4.205  16.964  0.00  0.00    +0.000 C 
BRANCH  20  23
ATOM     23  O   UNL     1       7.840   6.894  16.837  0.00  0.00    +0.000 OA
ATOM     24  H   UNL     1       8.412   6.910  16.046  0.00  0.00    +0.000 HD
ENDBRANCH  20  23
BRANCH  21  25
ATOM     25  O   UNL     1       5.105   5.099  15.143  0.00  0.00    +0.000 OA
ATOM     26  H   UNL     1       5.243   4.590  14.335  0.00  0.00    +0.000 HD
ENDBRANCH  21  25
BRANCH  22  27
ATOM     27  O   UNL     1       7.864   4.322  17.498  0.00  0.00    +0.000 OA
ATOM     28  H   UNL     1       8.418   3.596  17.157  0.00  0.00    +0.000 HD
ENDBRANCH  22  27
BRANCH  19  29
ATOM     29  C   UNL     1       4.088   7.228  17.160  0.00  0.00    +0.000 C 
BRANCH  29  30
ATOM     30  O   UNL     1       3.141   6.964  18.191  0.00  0.00    +0.000 OA
ATOM     31  H   UNL     1       2.252   6.979  17.794  0.00  0.00    +0.000 HD
ENDBRANCH  29  30
ENDBRANCH  19  29
ENDBRANCH   1  17
TORSDOF 9
ENDMDL
MODEL 6
REMARK VINA RESULT:      -6.6      2.271      5.019
REMARK  Name = 
REMARK  13 active torsions:
REMARK  status: ('A' for Active; 'I' for Inactive)
REMARK    1  A    between atoms: C_1  and  C_2
REMARK    2  A    between atoms: C_2  and  C_4
REMARK    3  A    between atoms: C_5  and  C_6
REMARK    4  A    between atoms: C_10  and  C_11
REMARK    5  A    between atoms: C_10  and  C_12
REMARK    6  A    between atoms: C_14  and  C_15
REMARK    7  A    between atoms: C_14  and  O_16
REMARK    8  A    between atoms: O_16  and  C_17
REMARK    9  A    between atoms: C_19  and  C_20
REMARK   10  A    between atoms: C_20  and  O_21
REMARK   11  A    between atoms: C_22  and  O_23
REMARK   12  A    between atoms: C_24  and  O_25
REMARK   13  A    between atoms: C_26  and  O_27
REMARK                            x       y       z     vdW  Elec       q    Type
REMARK                         _______ _______ _______ _____ _____    ______ ____
ROOT
ATOM      1  O   UNL     1       4.615   5.078  17.111  0.00  0.00    +0.000 OA
ENDROOT
BRANCH   1  10
ATOM      2  C   UNL     1       3.006   4.874  19.215  0.00  0.00    +0.000 C 
ATOM      3  O   UNL     1       3.404   4.151  20.435  0.00  0.00    +0.000 OA
ATOM      4  C   UNL     1       3.860   2.940  19.780  0.00  0.00    +0.000 C 
ATOM      5  C   UNL     1       2.670   2.519  18.915  0.00  0.00    +0.000 C 
ATOM      6  C   UNL     1       1.910   3.849  18.759  0.00  0.00    +0.000 C 
ATOM      7  C   UNL     1       1.306   4.014  17.372  0.00  0.00    +0.000 C 
ATOM      8  C   UNL     1       0.711   3.812  19.757  0.00  0.00    +0.000 C 
ATOM      9  C   UNL     1       4.957   3.467  18.869  0.00  0.00    +0.000 C 
ATOM     10  C   UNL     1       4.451   4.903  18.527  0.00  0.00    +0.000 C 
ATOM     11  C   UNL     1       5.447   5.821  19.305  0.00  0.00    +0.000 C 
BRANCH   2  13
ATOM     12  C   UNL     1       2.326   7.243  18.664  0.00  0.00    +0.000 C 
ATOM     13  C   UNL     1       2.448   6.234  19.533  0.00  0.00    +0.000 C 
BRANCH  12  15
ATOM     14  C   UNL     1       1.802   9.647  18.045  0.00  0.00    +0.000 C 
ATOM     15  C   UNL     1       1.797   8.570  19.088  0.00  0.00    +0.000 C 
ATOM     16  O   UNL     1       1.384   8.750  20.235  0.00  0.00    +0.000 OA
ENDBRANCH  12  15
ENDBRANCH   2  13
ENDBRANCH   1  10
BRANCH   1  17
ATOM     17  C   UNL     1       5.523   6.045  16.586  0.00  0.00    +0.000 C 
ATOM     18  O   UNL     1       5.304   6.230  15.169  0.00  0.00    +0.000 OA
ATOM     19  C   UNL     1       5.827   5.227  14.264  0.00  0.00    +0.000 C 
ATOM     20  C   UNL     1       7.302   4.879  14.539  0.00  0.00    +0.000 C 
ATOM     21  C   UNL     1       7.530   4.611  16.033  0.00  0.00    +0.000 C 
ATOM     22  C   UNL     1       7.021   5.803  16.855  0.00  0.00    +0.000 C 
BRANCH  20  23
ATOM     23  O   UNL     1       8.127   5.960  14.076  0.00  0.00    +0.000 OA
ATOM     24  H   UNL     1       8.573   5.655  13.262  0.00  0.00    +0.000 HD
ENDBRANCH  20  23
BRANCH  21  25
ATOM     25  O   UNL     1       6.914   3.371  16.399  0.00  0.00    +0.000 OA
ATOM     26  H   UNL     1       7.230   2.679  15.804  0.00  0.00    +0.000 HD
ENDBRANCH  21  25
BRANCH  22  27
ATOM     27  O   UNL     1       7.795   6.972  16.508  0.00  0.00    +0.000 OA
ATOM     28  H   UNL     1       7.380   7.766  16.894  0.00  0.00    +0.000 HD
ENDBRANCH  22  27
BRANCH  19  29
ATOM     29  C   UNL     1       4.885   4.016  14.140  0.00  0.00    +0.000 C 
BRANCH  29  30
ATOM     30  O   UNL     1       4.791   3.519  12.809  0.00  0.00    +0.000 OA
ATOM     31  H   UNL     1       5.059   4.231  12.202  0.00  0.00    +0.000 HD
ENDBRANCH  29  30
ENDBRANCH  19  29
ENDBRANCH   1  17
TORSDOF 9
ENDMDL
MODEL 7
REMARK VINA RESULT:      -6.3     10.025     12.431
REMARK  Name = 
REMARK  13 active torsions:
REMARK  status: ('A' for Active; 'I' for Inactive)
REMARK    1  A    between atoms: C_1  and  C_2
REMARK    2  A    between atoms: C_2  and  C_4
REMARK    3  A    between atoms: C_5  and  C_6
REMARK    4  A    between atoms: C_10  and  C_11
REMARK    5  A    between atoms: C_10  and  C_12
REMARK    6  A    between atoms: C_14  and  C_15
REMARK    7  A    between atoms: C_14  and  O_16
REMARK    8  A    between atoms: O_16  and  C_17
REMARK    9  A    between atoms: C_19  and  C_20
REMARK   10  A    between atoms: C_20  and  O_21
REMARK   11  A    between atoms: C_22  and  O_23
REMARK   12  A    between atoms: C_24  and  O_25
REMARK   13  A    between atoms: C_26  and  O_27
REMARK                            x       y       z     vdW  Elec       q    Type
REMARK                         _______ _______ _______ _____ _____    ______ ____
ROOT
ATOM      1  O   UNL     1       9.388  14.682  19.342  0.00  0.00    +0.000 OA
ENDROOT
BRANCH   1  10
ATOM      2  C   UNL     1       8.060  15.578  21.461  0.00  0.00    +0.000 C 
ATOM      3  O   UNL     1       7.045  16.639  21.355  0.00  0.00    +0.000 OA
ATOM      4  C   UNL     1       7.844  17.570  20.582  0.00  0.00    +0.000 C 
ATOM      5  C   UNL     1       9.125  17.725  21.405  0.00  0.00    +0.000 C 
ATOM      6  C   UNL     1       9.119  16.432  22.242  0.00  0.00    +0.000 C 
ATOM      7  C   UNL     1      10.513  15.852  22.426  0.00  0.00    +0.000 C 
ATOM      8  C   UNL     1       8.610  16.811  23.667  0.00  0.00    +0.000 C 
ATOM      9  C   UNL     1       8.165  16.756  19.339  0.00  0.00    +0.000 C 
ATOM     10  C   UNL     1       8.214  15.298  19.892  0.00  0.00    +0.000 C 
ATOM     11  C   UNL     1       6.928  14.649  19.289  0.00  0.00    +0.000 C 
BRANCH   2  13
ATOM     12  C   UNL     1       8.121  13.191  22.285  0.00  0.00    +0.000 C 
ATOM     13  C   UNL     1       7.553  14.401  22.250  0.00  0.00    +0.000 C 
BRANCH  12  15
ATOM     14  C   UNL     1       6.077  12.239  23.447  0.00  0.00    +0.000 C 
ATOM     15  C   UNL     1       7.517  12.075  23.067  0.00  0.00    +0.000 C 
ATOM     16  O   UNL     1       8.183  11.083  23.373  0.00  0.00    +0.000 OA
ENDBRANCH  12  15
ENDBRANCH   2  13
ENDBRANCH   1  10
BRANCH   1  17
ATOM     17  C   UNL     1       9.608  14.638  17.932  0.00  0.00    +0.000 C 
ATOM     18  O   UNL     1       9.585  13.272  17.458  0.00  0.00    +0.000 OA
ATOM     19  C   UNL     1      10.760  12.456  17.682  0.00  0.00    +0.000 C 
ATOM     20  C   UNL     1      12.066  13.150  17.255  0.00  0.00    +0.000 C 
ATOM     21  C   UNL     1      12.133  14.579  17.815  0.00  0.00    +0.000 C 
ATOM     22  C   UNL     1      10.870  15.351  17.408  0.00  0.00    +0.000 C 
BRANCH  20  23
ATOM     23  O   UNL     1      12.142  13.154  15.820  0.00  0.00    +0.000 OA
ATOM     24  H   UNL     1      11.429  12.574  15.492  0.00  0.00    +0.000 HD
ENDBRANCH  20  23
BRANCH  21  25
ATOM     25  O   UNL     1      12.333  14.531  19.231  0.00  0.00    +0.000 OA
ATOM     26  H   UNL     1      11.801  15.223  19.645  0.00  0.00    +0.000 HD
ENDBRANCH  21  25
BRANCH  22  27
ATOM     27  O   UNL     1      10.832  15.458  15.969  0.00  0.00    +0.000 OA
ATOM     28  H   UNL     1      11.390  16.205  15.681  0.00  0.00    +0.000 HD
ENDBRANCH  22  27
BRANCH  19  29
ATOM     29  C   UNL     1      10.779  11.848  19.096  0.00  0.00    +0.000 C 
BRANCH  29  30
ATOM     30  O   UNL     1      12.091  11.537  19.551  0.00  0.00    +0.000 OA
ATOM     31  H   UNL     1      12.376  10.715  19.112  0.00  0.00    +0.000 HD
ENDBRANCH  29  30
ENDBRANCH  19  29
ENDBRANCH   1  17
TORSDOF 9
ENDMDL
MODEL 8
REMARK VINA RESULT:      -6.2      9.777     12.303
REMARK  Name = 
REMARK  13 active torsions:
REMARK  status: ('A' for Active; 'I' for Inactive)
REMARK    1  A    between atoms: C_1  and  C_2
REMARK    2  A    between atoms: C_2  and  C_4
REMARK    3  A    between atoms: C_5  and  C_6
REMARK    4  A    between atoms: C_10  and  C_11
REMARK    5  A    between atoms: C_10  and  C_12
REMARK    6  A    between atoms: C_14  and  C_15
REMARK    7  A    between atoms: C_14  and  O_16
REMARK    8  A    between atoms: O_16  and  C_17
REMARK    9  A    between atoms: C_19  and  C_20
REMARK   10  A    between atoms: C_20  and  O_21
REMARK   11  A    between atoms: C_22  and  O_23
REMARK   12  A    between atoms: C_24  and  O_25
REMARK   13  A    between atoms: C_26  and  O_27
REMARK                            x       y       z     vdW  Elec       q    Type
REMARK                         _______ _______ _______ _____ _____    ______ ____
ROOT
ATOM      1  O   UNL     1       8.590  14.215  18.959  0.00  0.00    +0.000 OA
ENDROOT
BRANCH   1  10
ATOM      2  C   UNL     1       6.848  15.875  20.087  0.00  0.00    +0.000 C 
ATOM      3  O   UNL     1       6.295  17.033  19.365  0.00  0.00    +0.000 OA
ATOM      4  C   UNL     1       7.557  17.560  18.884  0.00  0.00    +0.000 C 
ATOM      5  C   UNL     1       8.404  17.698  20.151  0.00  0.00    +0.000 C 
ATOM      6  C   UNL     1       7.712  16.703  21.101  0.00  0.00    +0.000 C 
ATOM      7  C   UNL     1       8.703  15.952  21.979  0.00  0.00    +0.000 C 
ATOM      8  C   UNL     1       6.816  17.538  22.067  0.00  0.00    +0.000 C 
ATOM      9  C   UNL     1       8.096  16.397  18.067  0.00  0.00    +0.000 C 
ATOM     10  C   UNL     1       7.516  15.158  18.820  0.00  0.00    +0.000 C 
ATOM     11  C   UNL     1       6.441  14.614  17.827  0.00  0.00    +0.000 C 
BRANCH   2  13
ATOM     12  C   UNL     1       4.454  15.225  20.560  0.00  0.00    +0.000 C 
ATOM     13  C   UNL     1       5.768  15.067  20.752  0.00  0.00    +0.000 C 
BRANCH  12  15
ATOM     14  C   UNL     1       2.533  13.571  20.461  0.00  0.00    +0.000 C 
ATOM     15  C   UNL     1       3.459  14.399  21.300  0.00  0.00    +0.000 C 
ATOM     16  O   UNL     1       3.416  14.411  22.533  0.00  0.00    +0.000 OA
ENDBRANCH  12  15
ENDBRANCH   2  13
ENDBRANCH   1  10
BRANCH   1  17
ATOM     17  C   UNL     1       9.260  13.683  17.817  0.00  0.00    +0.000 C 
ATOM     18  O   UNL     1       9.224  12.238  17.834  0.00  0.00    +0.000 OA
ATOM     19  C   UNL     1      10.144  11.547  18.713  0.00  0.00    +0.000 C 
ATOM     20  C   UNL     1      11.594  12.046  18.580  0.00  0.00    +0.000 C 
ATOM     21  C   UNL     1      11.650  13.580  18.633  0.00  0.00    +0.000 C 
ATOM     22  C   UNL     1      10.703  14.167  17.577  0.00  0.00    +0.000 C 
BRANCH  20  23
ATOM     23  O   UNL     1      12.144  11.551  17.349  0.00  0.00    +0.000 OA
ATOM     24  H   UNL     1      12.655  12.280  16.947  0.00  0.00    +0.000 HD
ENDBRANCH  20  23
BRANCH  21  25
ATOM     25  O   UNL     1      11.358  14.026  19.962  0.00  0.00    +0.000 OA
ATOM     26  H   UNL     1      12.189  14.187  20.426  0.00  0.00    +0.000 HD
ENDBRANCH  21  25
BRANCH  22  27
ATOM     27  O   UNL     1      11.161  13.768  16.267  0.00  0.00    +0.000 OA
ATOM     28  H   UNL     1      12.016  14.196  16.075  0.00  0.00    +0.000 HD
ENDBRANCH  22  27
BRANCH  19  29
ATOM     29  C   UNL     1       9.612  11.467  20.156  0.00  0.00    +0.000 C 
BRANCH  29  30
ATOM     30  O   UNL     1      10.648  11.480  21.131  0.00  0.00    +0.000 OA
ATOM     31  H   UNL     1      11.205  10.692  20.991  0.00  0.00    +0.000 HD
ENDBRANCH  29  30
ENDBRANCH  19  29
ENDBRANCH   1  17
TORSDOF 9
ENDMDL
MODEL 9
REMARK VINA RESULT:      -6.1      2.162      6.443
REMARK  Name = 
REMARK  13 active torsions:
REMARK  status: ('A' for Active; 'I' for Inactive)
REMARK    1  A    between atoms: C_1  and  C_2
REMARK    2  A    between atoms: C_2  and  C_4
REMARK    3  A    between atoms: C_5  and  C_6
REMARK    4  A    between atoms: C_10  and  C_11
REMARK    5  A    between atoms: C_10  and  C_12
REMARK    6  A    between atoms: C_14  and  C_15
REMARK    7  A    between atoms: C_14  and  O_16
REMARK    8  A    between atoms: O_16  and  C_17
REMARK    9  A    between atoms: C_19  and  C_20
REMARK   10  A    between atoms: C_20  and  O_21
REMARK   11  A    between atoms: C_22  and  O_23
REMARK   12  A    between atoms: C_24  and  O_25
REMARK   13  A    between atoms: C_26  and  O_27
REMARK                            x       y       z     vdW  Elec       q    Type
REMARK                         _______ _______ _______ _____ _____    ______ ____
ROOT
ATOM      1  O   UNL     1       4.192   3.683  17.815  0.00  0.00    +0.000 OA
ENDROOT
BRANCH   1  10
ATOM      2  C   UNL     1       5.639   5.746  16.972  0.00  0.00    +0.000 C 
ATOM      3  O   UNL     1       6.476   5.669  15.764  0.00  0.00    +0.000 OA
ATOM      4  C   UNL     1       7.149   4.429  16.094  0.00  0.00    +0.000 C 
ATOM      5  C   UNL     1       7.724   4.683  17.489  0.00  0.00    +0.000 C 
ATOM      6  C   UNL     1       6.824   5.824  17.997  0.00  0.00    +0.000 C 
ATOM      7  C   UNL     1       6.501   5.696  19.478  0.00  0.00    +0.000 C 
ATOM      8  C   UNL     1       7.630   7.150  17.838  0.00  0.00    +0.000 C 
ATOM      9  C   UNL     1       5.984   3.460  16.222  0.00  0.00    +0.000 C 
ATOM     10  C   UNL     1       4.835   4.381  16.738  0.00  0.00    +0.000 C 
ATOM     11  C   UNL     1       3.879   4.474  15.506  0.00  0.00    +0.000 C 
BRANCH   2  13
ATOM     12  C   UNL     1       3.713   7.177  17.761  0.00  0.00    +0.000 C 
ATOM     13  C   UNL     1       4.774   6.977  16.973  0.00  0.00    +0.000 C 
BRANCH  12  15
ATOM     14  C   UNL     1       1.416   8.252  17.840  0.00  0.00    +0.000 C 
ATOM     15  C   UNL     1       2.895   8.418  17.657  0.00  0.00    +0.000 C 
ATOM     16  O   UNL     1       3.423   9.509  17.431  0.00  0.00    +0.000 OA
ENDBRANCH  12  15
ENDBRANCH   2  13
ENDBRANCH   1  10
BRANCH   1  17
ATOM     17  C   UNL     1       2.838   3.243  17.708  0.00  0.00    +0.000 C 
ATOM     18  O   UNL     1       1.930   4.293  18.112  0.00  0.00    +0.000 OA
ATOM     19  C   UNL     1       1.757   4.532  19.531  0.00  0.00    +0.000 C 
ATOM     20  C   UNL     1       1.477   3.244  20.328  0.00  0.00    +0.000 C 
ATOM     21  C   UNL     1       2.483   2.144  19.957  0.00  0.00    +0.000 C 
ATOM     22  C   UNL     1       2.479   1.933  18.436  0.00  0.00    +0.000 C 
BRANCH  20  23
ATOM     23  O   UNL     1       0.129   2.821  20.068  0.00  0.00    +0.000 OA
ATOM     24  H   UNL     1      -0.292   3.515  19.525  0.00  0.00    +0.000 HD
ENDBRANCH  20  23
BRANCH  21  25
ATOM     25  O   UNL     1       3.774   2.478  20.476  0.00  0.00    +0.000 OA
ATOM     26  H   UNL     1       4.249   3.001  19.818  0.00  0.00    +0.000 HD
ENDBRANCH  21  25
BRANCH  22  27
ATOM     27  O   UNL     1       1.172   1.471  18.034  0.00  0.00    +0.000 OA
ATOM     28  H   UNL     1       0.863   0.782  18.652  0.00  0.00    +0.000 HD
ENDBRANCH  22  27
BRANCH  19  29
ATOM     29  C   UNL     1       2.870   5.425  20.106  0.00  0.00    +0.000 C 
BRANCH  29  30
ATOM     30  O   UNL     1       2.368   6.551  20.818  0.00  0.00    +0.000 OA
ATOM     31  H   UNL     1       3.055   6.842  21.445  0.00  0.00    +0.000 HD
ENDBRANCH  29  30
ENDBRANCH  19  29
ENDBRANCH   1  17
TORSDOF 9
ENDMDL
