MODEL 1
REMARK VINA RESULT:      -8.6      0.000      0.000
REMARK  Name = 
REMARK  11 active torsions:
REMARK  status: ('A' for Active; 'I' for Inactive)
REMARK    1  A    between atoms: C_1  and  C_2
REMARK    2  A    between atoms: C_2  and  C_3
REMARK    3  A    between atoms: C_2  and  C_4
REMARK    4  A    between atoms: C_2  and  O_5
REMARK    5  A    between atoms: O_5  and  N_6
REMARK    6  A    between atoms: C_9  and  C_10
REMARK    7  A    between atoms: N_12  and  O_13
REMARK    8  A    between atoms: N_14  and  S_15
REMARK    9  A    between atoms: S_15  and  C_18
REMARK   10  A    between atoms: C_21  and  O_22
REMARK   11  A    between atoms: O_22  and  C_23
REMARK                            x       y       z     vdW  Elec       q    Type
REMARK                         _______ _______ _______ _____ _____    ______ ____
ROOT
ATOM      1  N   UNL     1       7.057   4.452  14.543  0.00  0.00    +0.000 NA
ATOM      2  C   UNL     1       6.565   5.311  15.378  0.00  0.00    +0.000 C 
ATOM      3  C   UNL     1       7.432   6.299  16.076  0.00  0.00    +0.000 C 
ATOM      4  C   UNL     1       6.665   6.429  17.394  0.00  0.00    +0.000 C 
ATOM      5  N   UNL     1       5.220   6.273  17.023  0.00  0.00    +0.000 NA
ATOM      6  C   UNL     1       5.122   5.465  15.759  0.00  0.00    +0.000 C 
ENDROOT
BRANCH   4   7
ATOM      7  C   UNL     1       7.255   5.476  18.428  0.00  0.00    +0.000 C 
ATOM      8  O   UNL     1       7.345   4.260  18.262  0.00  0.00    +0.000 OA
ATOM      9  N   UNL     1       7.722   6.075  19.579  0.00  0.00    +0.000 N 
ATOM     10  H   UNL     1       7.367   6.957  19.933  0.00  0.00    +0.000 HD
BRANCH   9  11
ATOM     11  O   UNL     1       8.161   5.170  20.578  0.00  0.00    +0.000 OA
ATOM     12  H   UNL     1       8.992   5.591  20.895  0.00  0.00    +0.000 HD
ENDBRANCH   9  11
ENDBRANCH   4   7
BRANCH   5  13
ATOM     13  S   UNL     1       4.069   5.745  18.158  0.00  0.00    +0.000 S 
ATOM     14  O   UNL     1       3.270   4.729  17.511  0.00  0.00    +0.000 OA
ATOM     15  O   UNL     1       4.769   5.484  19.390  0.00  0.00    +0.000 OA
BRANCH  13  16
ATOM     16  C   UNL     1       2.982   7.113  18.448  0.00  0.00    +0.000 A 
ATOM     17  C   UNL     1       2.851   8.165  17.538  0.00  0.00    +0.000 A 
ATOM     18  C   UNL     1       2.054   9.260  17.873  0.00  0.00    +0.000 A 
ATOM     19  C   UNL     1       1.348   9.280  19.079  0.00  0.00    +0.000 A 
ATOM     20  C   UNL     1       1.489   8.227  19.988  0.00  0.00    +0.000 A 
ATOM     21  C   UNL     1       2.296   7.137  19.667  0.00  0.00    +0.000 A 
BRANCH  19  22
ATOM     22  O   UNL     1       0.588  10.402  19.314  0.00  0.00    +0.000 OA
BRANCH  22  23
ATOM     23  C   UNL     1      -0.661  10.511  18.742  0.00  0.00    +0.000 A 
ATOM     24  C   UNL     1      -1.494  11.499  19.275  0.00  0.00    +0.000 A 
ATOM     25  C   UNL     1      -2.777  11.684  18.758  0.00  0.00    +0.000 A 
ATOM     26  C   UNL     1      -3.216  10.881  17.711  0.00  0.00    +0.000 A 
ATOM     27  F   UNL     1      -4.454  11.043  17.229  0.00  0.00    +0.000 F 
ATOM     28  C   UNL     1      -2.385   9.918  17.151  0.00  0.00    +0.000 A 
ATOM     29  C   UNL     1      -1.093   9.749  17.651  0.00  0.00    +0.000 A 
ENDBRANCH  22  23
ENDBRANCH  19  22
ENDBRANCH  13  16
ENDBRANCH   5  13
BRANCH   1  30
ATOM     30  O   UNL     1       6.048   3.597  14.072  0.00  0.00    +0.000 OA
BRANCH  30  32
ATOM     31  C   UNL     1       6.409   2.078  12.175  0.00  0.00    +0.000 C 
ATOM     32  C   UNL     1       6.077   3.504  12.634  0.00  0.00    +0.000 C 
ATOM     33  C   UNL     1       7.073   4.520  12.070  0.00  0.00    +0.000 C 
ATOM     34  C   UNL     1       4.663   3.859  12.159  0.00  0.00    +0.000 C 
ENDBRANCH  30  32
ENDBRANCH   1  30
TORSDOF 8
ENDMDL
MODEL 2
REMARK VINA RESULT:      -8.3      1.307      2.081
REMARK  Name = 
REMARK  11 active torsions:
REMARK  status: ('A' for Active; 'I' for Inactive)
REMARK    1  A    between atoms: C_1  and  C_2
REMARK    2  A    between atoms: C_2  and  C_3
REMARK    3  A    between atoms: C_2  and  C_4
REMARK    4  A    between atoms: C_2  and  O_5
REMARK    5  A    between atoms: O_5  and  N_6
REMARK    6  A    between atoms: C_9  and  C_10
REMARK    7  A    between atoms: N_12  and  O_13
REMARK    8  A    between atoms: N_14  and  S_15
REMARK    9  A    between atoms: S_15  and  C_18
REMARK   10  A    between atoms: C_21  and  O_22
REMARK   11  A    between atoms: O_22  and  C_23
REMARK                            x       y       z     vdW  Elec       q    Type
REMARK                         _______ _______ _______ _____ _____    ______ ____
ROOT
ATOM      1  N   UNL     1       7.065   4.423  14.174  0.00  0.00    +0.000 NA
ATOM      2  C   UNL     1       6.446   5.121  15.072  0.00  0.00    +0.000 C 
ATOM      3  C   UNL     1       7.104   6.269  15.753  0.00  0.00    +0.000 C 
ATOM      4  C   UNL     1       6.422   6.183  17.121  0.00  0.00    +0.000 C 
ATOM      5  N   UNL     1       5.031   5.699  16.835  0.00  0.00    +0.000 NA
ATOM      6  C   UNL     1       5.037   4.920  15.549  0.00  0.00    +0.000 C 
ENDROOT
BRANCH   4   7
ATOM      7  C   UNL     1       7.290   5.371  18.077  0.00  0.00    +0.000 C 
ATOM      8  O   UNL     1       7.776   4.277  17.795  0.00  0.00    +0.000 OA
ATOM      9  N   UNL     1       7.529   5.965  19.299  0.00  0.00    +0.000 N 
ATOM     10  H   UNL     1       6.901   6.639  19.725  0.00  0.00    +0.000 HD
BRANCH   9  11
ATOM     11  O   UNL     1       8.238   5.153  20.220  0.00  0.00    +0.000 OA
ATOM     12  H   UNL     1       7.512   4.707  20.711  0.00  0.00    +0.000 HD
ENDBRANCH   9  11
ENDBRANCH   4   7
BRANCH   5  13
ATOM     13  S   UNL     1       4.119   4.887  18.019  0.00  0.00    +0.000 S 
ATOM     14  O   UNL     1       3.181   4.036  17.322  0.00  0.00    +0.000 OA
ATOM     15  O   UNL     1       5.045   4.356  18.986  0.00  0.00    +0.000 OA
BRANCH  13  16
ATOM     16  C   UNL     1       3.147   6.119  18.838  0.00  0.00    +0.000 A 
ATOM     17  C   UNL     1       2.504   5.874  20.054  0.00  0.00    +0.000 A 
ATOM     18  C   UNL     1       1.672   6.854  20.596  0.00  0.00    +0.000 A 
ATOM     19  C   UNL     1       1.527   8.090  19.960  0.00  0.00    +0.000 A 
ATOM     20  C   UNL     1       2.168   8.327  18.740  0.00  0.00    +0.000 A 
ATOM     21  C   UNL     1       2.988   7.347  18.185  0.00  0.00    +0.000 A 
BRANCH  19  22
ATOM     22  O   UNL     1       0.688   8.990  20.576  0.00  0.00    +0.000 OA
BRANCH  22  23
ATOM     23  C   UNL     1       0.390  10.181  19.952  0.00  0.00    +0.000 A 
ATOM     24  C   UNL     1      -0.690  10.153  19.064  0.00  0.00    +0.000 A 
ATOM     25  C   UNL     1      -1.067  11.313  18.387  0.00  0.00    +0.000 A 
ATOM     26  C   UNL     1      -0.363  12.493  18.604  0.00  0.00    +0.000 A 
ATOM     27  F   UNL     1      -0.710  13.601  17.938  0.00  0.00    +0.000 F 
ATOM     28  C   UNL     1       0.691  12.541  19.509  0.00  0.00    +0.000 A 
ATOM     29  C   UNL     1       1.053  11.387  20.206  0.00  0.00    +0.000 A 
ENDBRANCH  22  23
ENDBRANCH  19  22
ENDBRANCH  13  16
ENDBRANCH   5  13
BRANCH   1  30
ATOM     30  O   UNL     1       6.253   3.364  13.734  0.00  0.00    +0.000 OA
BRANCH  30  32
ATOM     31  C   UNL     1       7.109   4.368  11.662  0.00  0.00    +0.000 C 
ATOM     32  C   UNL     1       6.140   3.362  12.298  0.00  0.00    +0.000 C 
ATOM     33  C   UNL     1       4.691   3.645  11.892  0.00  0.00    +0.000 C 
ATOM     34  C   UNL     1       6.529   1.949  11.846  0.00  0.00    +0.000 C 
ENDBRANCH  30  32
ENDBRANCH   1  30
TORSDOF 8
ENDMDL
MODEL 3
REMARK VINA RESULT:      -8.3      1.264      1.747
REMARK  Name = 
REMARK  11 active torsions:
REMARK  status: ('A' for Active; 'I' for Inactive)
REMARK    1  A    between atoms: C_1  and  C_2
REMARK    2  A    between atoms: C_2  and  C_3
REMARK    3  A    between atoms: C_2  and  C_4
REMARK    4  A    between atoms: C_2  and  O_5
REMARK    5  A    between atoms: O_5  and  N_6
REMARK    6  A    between atoms: C_9  and  C_10
REMARK    7  A    between atoms: N_12  and  O_13
REMARK    8  A    between atoms: N_14  and  S_15
REMARK    9  A    between atoms: S_15  and  C_18
REMARK   10  A    between atoms: C_21  and  O_22
REMARK   11  A    between atoms: O_22  and  C_23
REMARK                            x       y       z     vdW  Elec       q    Type
REMARK                         _______ _______ _______ _____ _____    ______ ____
ROOT
ATOM      1  N   UNL     1       7.086   4.460  14.340  0.00  0.00    +0.000 NA
ATOM      2  C   UNL     1       6.468   5.165  15.234  0.00  0.00    +0.000 C 
ATOM      3  C   UNL     1       7.135   6.305  15.920  0.00  0.00    +0.000 C 
ATOM      4  C   UNL     1       6.443   6.227  17.283  0.00  0.00    +0.000 C 
ATOM      5  N   UNL     1       5.049   5.760  16.987  0.00  0.00    +0.000 NA
ATOM      6  C   UNL     1       5.055   4.981  15.702  0.00  0.00    +0.000 C 
ENDROOT
BRANCH   4   7
ATOM      7  C   UNL     1       7.296   5.405  18.245  0.00  0.00    +0.000 C 
ATOM      8  O   UNL     1       7.777   4.309  17.963  0.00  0.00    +0.000 OA
ATOM      9  N   UNL     1       7.525   5.992  19.472  0.00  0.00    +0.000 N 
ATOM     10  H   UNL     1       6.897   6.668  19.894  0.00  0.00    +0.000 HD
BRANCH   9  11
ATOM     11  O   UNL     1       8.218   5.170  20.396  0.00  0.00    +0.000 OA
ATOM     12  H   UNL     1       7.652   4.367  20.432  0.00  0.00    +0.000 HD
ENDBRANCH   9  11
ENDBRANCH   4   7
BRANCH   5  13
ATOM     13  S   UNL     1       4.119   4.959  18.165  0.00  0.00    +0.000 S 
ATOM     14  O   UNL     1       3.263   4.027  17.467  0.00  0.00    +0.000 OA
ATOM     15  O   UNL     1       5.020   4.525  19.202  0.00  0.00    +0.000 OA
BRANCH  13  16
ATOM     16  C   UNL     1       3.045   6.176  18.872  0.00  0.00    +0.000 A 
ATOM     17  C   UNL     1       2.838   7.422  18.277  0.00  0.00    +0.000 A 
ATOM     18  C   UNL     1       2.059   8.372  18.938  0.00  0.00    +0.000 A 
ATOM     19  C   UNL     1       1.444   8.063  20.154  0.00  0.00    +0.000 A 
ATOM     20  C   UNL     1       1.660   6.815  20.748  0.00  0.00    +0.000 A 
ATOM     21  C   UNL     1       2.451   5.867  20.101  0.00  0.00    +0.000 A 
BRANCH  19  22
ATOM     22  O   UNL     1       0.693   9.065  20.723  0.00  0.00    +0.000 OA
BRANCH  22  23
ATOM     23  C   UNL     1       0.287  10.133  19.953  0.00  0.00    +0.000 A 
ATOM     24  C   UNL     1       1.042  11.302  20.082  0.00  0.00    +0.000 A 
ATOM     25  C   UNL     1       0.706  12.435  19.340  0.00  0.00    +0.000 A 
ATOM     26  C   UNL     1      -0.380  12.389  18.472  0.00  0.00    +0.000 A 
ATOM     27  F   UNL     1      -0.716  13.482  17.777  0.00  0.00    +0.000 F 
ATOM     28  C   UNL     1      -1.118  11.222  18.311  0.00  0.00    +0.000 A 
ATOM     29  C   UNL     1      -0.768  10.081  19.035  0.00  0.00    +0.000 A 
ENDBRANCH  22  23
ENDBRANCH  19  22
ENDBRANCH  13  16
ENDBRANCH   5  13
BRANCH   1  30
ATOM     30  O   UNL     1       6.264   3.412  13.895  0.00  0.00    +0.000 OA
BRANCH  30  32
ATOM     31  C   UNL     1       4.723   3.793  12.020  0.00  0.00    +0.000 C 
ATOM     32  C   UNL     1       6.145   3.423  12.459  0.00  0.00    +0.000 C 
ATOM     33  C   UNL     1       6.570   2.065  11.893  0.00  0.00    +0.000 C 
ATOM     34  C   UNL     1       7.112   4.506  11.963  0.00  0.00    +0.000 C 
ENDBRANCH  30  32
ENDBRANCH   1  30
TORSDOF 8
ENDMDL
MODEL 4
REMARK VINA RESULT:      -8.1      5.667     11.082
REMARK  Name = 
REMARK  11 active torsions:
REMARK  status: ('A' for Active; 'I' for Inactive)
REMARK    1  A    between atoms: C_1  and  C_2
REMARK    2  A    between atoms: C_2  and  C_3
REMARK    3  A    between atoms: C_2  and  C_4
REMARK    4  A    between atoms: C_2  and  O_5
REMARK    5  A    between atoms: O_5  and  N_6
REMARK    6  A    between atoms: C_9  and  C_10
REMARK    7  A    between atoms: N_12  and  O_13
REMARK    8  A    between atoms: N_14  and  S_15
REMARK    9  A    between atoms: S_15  and  C_18
REMARK   10  A    between atoms: C_21  and  O_22
REMARK   11  A    between atoms: O_22  and  C_23
REMARK                            x       y       z     vdW  Elec       q    Type
REMARK                         _______ _______ _______ _____ _____    ______ ____
ROOT
ATOM      1  N   UNL     1      -2.857  13.373  23.242  0.00  0.00    +0.000 NA
ATOM      2  C   UNL     1      -1.747  13.053  22.656  0.00  0.00    +0.000 C 
ATOM      3  C   UNL     1      -0.553  13.939  22.719  0.00  0.00    +0.000 C 
ATOM      4  C   UNL     1       0.071  13.628  21.356  0.00  0.00    +0.000 C 
ATOM      5  N   UNL     1      -0.238  12.181  21.105  0.00  0.00    +0.000 NA
ATOM      6  C   UNL     1      -1.476  11.805  21.868  0.00  0.00    +0.000 C 
ENDROOT
BRANCH   4   7
ATOM      7  C   UNL     1      -0.395  14.657  20.331  0.00  0.00    +0.000 C 
ATOM      8  O   UNL     1      -1.576  14.940  20.137  0.00  0.00    +0.000 OA
ATOM      9  N   UNL     1       0.615  15.291  19.636  0.00  0.00    +0.000 N 
ATOM     10  H   UNL     1       1.526  14.876  19.473  0.00  0.00    +0.000 HD
BRANCH   9  11
ATOM     11  O   UNL     1       0.167  16.158  18.608  0.00  0.00    +0.000 OA
ATOM     12  H   UNL     1       0.163  15.568  17.820  0.00  0.00    +0.000 HD
ENDBRANCH   9  11
ENDBRANCH   4   7
BRANCH   5  13
ATOM     13  S   UNL     1      -0.296  11.553  19.526  0.00  0.00    +0.000 S 
ATOM     14  O   UNL     1      -1.649  11.097  19.301  0.00  0.00    +0.000 OA
ATOM     15  O   UNL     1       0.331  12.515  18.657  0.00  0.00    +0.000 OA
BRANCH  13  16
ATOM     16  C   UNL     1       0.717  10.100  19.524  0.00  0.00    +0.000 A 
ATOM     17  C   UNL     1       1.384   9.660  18.379  0.00  0.00    +0.000 A 
ATOM     18  C   UNL     1       2.084   8.453  18.419  0.00  0.00    +0.000 A 
ATOM     19  C   UNL     1       2.166   7.721  19.607  0.00  0.00    +0.000 A 
ATOM     20  C   UNL     1       1.490   8.165  20.748  0.00  0.00    +0.000 A 
ATOM     21  C   UNL     1       0.775   9.360  20.711  0.00  0.00    +0.000 A 
BRANCH  19  22
ATOM     22  O   UNL     1       2.882   6.548  19.544  0.00  0.00    +0.000 OA
BRANCH  22  23
ATOM     23  C   UNL     1       2.218   5.352  19.383  0.00  0.00    +0.000 A 
ATOM     24  C   UNL     1       2.189   4.839  18.082  0.00  0.00    +0.000 A 
ATOM     25  C   UNL     1       1.540   3.631  17.823  0.00  0.00    +0.000 A 
ATOM     26  C   UNL     1       0.929   2.944  18.866  0.00  0.00    +0.000 A 
ATOM     27  F   UNL     1       0.287   1.796  18.613  0.00  0.00    +0.000 F 
ATOM     28  C   UNL     1       0.979   3.427  20.168  0.00  0.00    +0.000 A 
ATOM     29  C   UNL     1       1.649   4.623  20.433  0.00  0.00    +0.000 A 
ENDBRANCH  22  23
ENDBRANCH  19  22
ENDBRANCH  13  16
ENDBRANCH   5  13
BRANCH   1  30
ATOM     30  O   UNL     1      -3.842  12.406  22.980  0.00  0.00    +0.000 OA
BRANCH  30  32
ATOM     31  C   UNL     1      -6.018  12.643  24.096  0.00  0.00    +0.000 C 
ATOM     32  C   UNL     1      -5.147  13.010  22.887  0.00  0.00    +0.000 C 
ATOM     33  C   UNL     1      -5.814  12.603  21.571  0.00  0.00    +0.000 C 
ATOM     34  C   UNL     1      -4.911  14.526  22.892  0.00  0.00    +0.000 C 
ENDBRANCH  30  32
ENDBRANCH   1  30
TORSDOF 8
ENDMDL
MODEL 5
REMARK VINA RESULT:      -8.0      2.110      2.833
REMARK  Name = 
REMARK  11 active torsions:
REMARK  status: ('A' for Active; 'I' for Inactive)
REMARK    1  A    between atoms: C_1  and  C_2
REMARK    2  A    between atoms: C_2  and  C_3
REMARK    3  A    between atoms: C_2  and  C_4
REMARK    4  A    between atoms: C_2  and  O_5
REMARK    5  A    between atoms: O_5  and  N_6
REMARK    6  A    between atoms: C_9  and  C_10
REMARK    7  A    between atoms: N_12  and  O_13
REMARK    8  A    between atoms: N_14  and  S_15
REMARK    9  A    between atoms: S_15  and  C_18
REMARK   10  A    between atoms: C_21  and  O_22
REMARK   11  A    between atoms: O_22  and  C_23
REMARK                            x       y       z     vdW  Elec       q    Type
REMARK                         _______ _______ _______ _____ _____    ______ ____
ROOT
ATOM      1  N   UNL     1       6.988   4.516  14.133  0.00  0.00    +0.000 NA
ATOM      2  C   UNL     1       6.361   5.021  15.147  0.00  0.00    +0.000 C 
ATOM      3  C   UNL     1       6.869   6.231  15.849  0.00  0.00    +0.000 C 
ATOM      4  C   UNL     1       6.385   5.927  17.269  0.00  0.00    +0.000 C 
ATOM      5  N   UNL     1       5.085   5.198  17.092  0.00  0.00    +0.000 NA
ATOM      6  C   UNL     1       5.083   4.518  15.752  0.00  0.00    +0.000 C 
ENDROOT
BRANCH   4   7
ATOM      7  C   UNL     1       7.499   5.243  18.056  0.00  0.00    +0.000 C 
ATOM      8  O   UNL     1       8.182   4.322  17.611  0.00  0.00    +0.000 OA
ATOM      9  N   UNL     1       7.721   5.751  19.319  0.00  0.00    +0.000 N 
ATOM     10  H   UNL     1       7.006   6.218  19.867  0.00  0.00    +0.000 HD
BRANCH   9  11
ATOM     11  O   UNL     1       8.677   5.034  20.082  0.00  0.00    +0.000 OA
ATOM     12  H   UNL     1       9.523   5.458  19.814  0.00  0.00    +0.000 HD
ENDBRANCH   9  11
ENDBRANCH   4   7
BRANCH   5  13
ATOM     13  S   UNL     1       4.491   4.150  18.292  0.00  0.00    +0.000 S 
ATOM     14  O   UNL     1       3.699   3.143  17.622  0.00  0.00    +0.000 OA
ATOM     15  O   UNL     1       5.599   3.796  19.142  0.00  0.00    +0.000 OA
BRANCH  13  16
ATOM     16  C   UNL     1       3.356   5.095  19.270  0.00  0.00    +0.000 A 
ATOM     17  C   UNL     1       2.534   4.507  20.233  0.00  0.00    +0.000 A 
ATOM     18  C   UNL     1       1.591   5.292  20.897  0.00  0.00    +0.000 A 
ATOM     19  C   UNL     1       1.509   6.665  20.645  0.00  0.00    +0.000 A 
ATOM     20  C   UNL     1       2.331   7.246  19.674  0.00  0.00    +0.000 A 
ATOM     21  C   UNL     1       3.264   6.465  18.996  0.00  0.00    +0.000 A 
BRANCH  19  22
ATOM     22  O   UNL     1       0.551   7.352  21.353  0.00  0.00    +0.000 OA
BRANCH  22  23
ATOM     23  C   UNL     1       0.451   8.718  21.216  0.00  0.00    +0.000 A 
ATOM     24  C   UNL     1       0.662   9.221  19.929  0.00  0.00    +0.000 A 
ATOM     25  C   UNL     1       0.580  10.595  19.694  0.00  0.00    +0.000 A 
ATOM     26  C   UNL     1       0.285  11.454  20.747  0.00  0.00    +0.000 A 
ATOM     27  F   UNL     1       0.228  12.773  20.526  0.00  0.00    +0.000 F 
ATOM     28  C   UNL     1       0.041  10.963  22.024  0.00  0.00    +0.000 A 
ATOM     29  C   UNL     1       0.098   9.587  22.255  0.00  0.00    +0.000 A 
ENDBRANCH  22  23
ENDBRANCH  19  22
ENDBRANCH  13  16
ENDBRANCH   5  13
BRANCH   1  30
ATOM     30  O   UNL     1       6.342   3.349  13.693  0.00  0.00    +0.000 OA
BRANCH  30  32
ATOM     31  C   UNL     1       7.107   4.377  11.597  0.00  0.00    +0.000 C 
ATOM     32  C   UNL     1       6.169   3.362  12.262  0.00  0.00    +0.000 C 
ATOM     33  C   UNL     1       4.704   3.644  11.920  0.00  0.00    +0.000 C 
ATOM     34  C   UNL     1       6.543   1.955  11.779  0.00  0.00    +0.000 C 
ENDBRANCH  30  32
ENDBRANCH   1  30
TORSDOF 8
ENDMDL
MODEL 6
REMARK VINA RESULT:      -8.0      1.794      2.463
REMARK  Name = 
REMARK  11 active torsions:
REMARK  status: ('A' for Active; 'I' for Inactive)
REMARK    1  A    between atoms: C_1  and  C_2
REMARK    2  A    between atoms: C_2  and  C_3
REMARK    3  A    between atoms: C_2  and  C_4
REMARK    4  A    between atoms: C_2  and  O_5
REMARK    5  A    between atoms: O_5  and  N_6
REMARK    6  A    between atoms: C_9  and  C_10
REMARK    7  A    between atoms: N_12  and  O_13
REMARK    8  A    between atoms: N_14  and  S_15
REMARK    9  A    between atoms: S_15  and  C_18
REMARK   10  A    between atoms: C_21  and  O_22
REMARK   11  A    between atoms: O_22  and  C_23
REMARK                            x       y       z     vdW  Elec       q    Type
REMARK                         _______ _______ _______ _____ _____    ______ ____
ROOT
ATOM      1  N   UNL     1       7.064   4.633  14.437  0.00  0.00    +0.000 NA
ATOM      2  C   UNL     1       6.536   5.405  15.333  0.00  0.00    +0.000 C 
ATOM      3  C   UNL     1       7.338   6.447  16.029  0.00  0.00    +0.000 C 
ATOM      4  C   UNL     1       6.636   6.449  17.389  0.00  0.00    +0.000 C 
ATOM      5  N   UNL     1       5.195   6.162  17.085  0.00  0.00    +0.000 NA
ATOM      6  C   UNL     1       5.109   5.397  15.794  0.00  0.00    +0.000 C 
ENDROOT
BRANCH   4   7
ATOM      7  C   UNL     1       7.374   5.520  18.349  0.00  0.00    +0.000 C 
ATOM      8  O   UNL     1       7.709   4.371  18.063  0.00  0.00    +0.000 OA
ATOM      9  N   UNL     1       7.676   6.068  19.578  0.00  0.00    +0.000 N 
ATOM     10  H   UNL     1       7.141   6.819  20.002  0.00  0.00    +0.000 HD
BRANCH   9  11
ATOM     11  O   UNL     1       8.256   5.161  20.500  0.00  0.00    +0.000 OA
ATOM     12  H   UNL     1       7.900   4.295  20.198  0.00  0.00    +0.000 HD
ENDBRANCH   9  11
ENDBRANCH   4   7
BRANCH   5  13
ATOM     13  S   UNL     1       4.167   5.477  18.253  0.00  0.00    +0.000 S 
ATOM     14  O   UNL     1       3.337   4.509  17.572  0.00  0.00    +0.000 OA
ATOM     15  O   UNL     1       4.982   5.110  19.383  0.00  0.00    +0.000 OA
BRANCH  13  16
ATOM     16  C   UNL     1       3.078   6.768  18.785  0.00  0.00    +0.000 A 
ATOM     17  C   UNL     1       2.457   6.751  20.036  0.00  0.00    +0.000 A 
ATOM     18  C   UNL     1       1.533   7.746  20.354  0.00  0.00    +0.000 A 
ATOM     19  C   UNL     1       1.272   8.783  19.453  0.00  0.00    +0.000 A 
ATOM     20  C   UNL     1       1.892   8.791  18.200  0.00  0.00    +0.000 A 
ATOM     21  C   UNL     1       2.804   7.791  17.870  0.00  0.00    +0.000 A 
BRANCH  19  22
ATOM     22  O   UNL     1       0.349   9.718  19.861  0.00  0.00    +0.000 OA
BRANCH  22  23
ATOM     23  C   UNL     1       0.577  11.054  19.615  0.00  0.00    +0.000 A 
ATOM     24  C   UNL     1       1.561  11.661  20.402  0.00  0.00    +0.000 A 
ATOM     25  C   UNL     1       1.862  13.012  20.222  0.00  0.00    +0.000 A 
ATOM     26  C   UNL     1       1.181  13.744  19.256  0.00  0.00    +0.000 A 
ATOM     27  F   UNL     1       1.454  15.045  19.098  0.00  0.00    +0.000 F 
ATOM     28  C   UNL     1       0.225  13.143  18.445  0.00  0.00    +0.000 A 
ATOM     29  C   UNL     1      -0.060  11.786  18.607  0.00  0.00    +0.000 A 
ENDBRANCH  22  23
ENDBRANCH  19  22
ENDBRANCH  13  16
ENDBRANCH   5  13
BRANCH   1  30
ATOM     30  O   UNL     1       6.120   3.699  13.981  0.00  0.00    +0.000 OA
BRANCH  30  32
ATOM     31  C   UNL     1       7.145   4.589  11.934  0.00  0.00    +0.000 C 
ATOM     32  C   UNL     1       6.131   3.612  12.543  0.00  0.00    +0.000 C 
ATOM     33  C   UNL     1       4.721   3.856  11.998  0.00  0.00    +0.000 C 
ATOM     34  C   UNL     1       6.565   2.179  12.210  0.00  0.00    +0.000 C 
ENDBRANCH  30  32
ENDBRANCH   1  30
TORSDOF 8
ENDMDL
MODEL 7
REMARK VINA RESULT:      -7.9      5.021     10.718
REMARK  Name = 
REMARK  11 active torsions:
REMARK  status: ('A' for Active; 'I' for Inactive)
REMARK    1  A    between atoms: C_1  and  C_2
REMARK    2  A    between atoms: C_2  and  C_3
REMARK    3  A    between atoms: C_2  and  C_4
REMARK    4  A    between atoms: C_2  and  O_5
REMARK    5  A    between atoms: O_5  and  N_6
REMARK    6  A    between atoms: C_9  and  C_10
REMARK    7  A    between atoms: N_12  and  O_13
REMARK    8  A    between atoms: N_14  and  S_15
REMARK    9  A    between atoms: S_15  and  C_18
REMARK   10  A    between atoms: C_21  and  O_22
REMARK   11  A    between atoms: O_22  and  C_23
REMARK                            x       y       z     vdW  Elec       q    Type
REMARK                         _______ _______ _______ _____ _____    ______ ____
ROOT
ATOM      1  N   UNL     1      -0.006  14.917  21.473  0.00  0.00    +0.000 NA
ATOM      2  C   UNL     1       0.378  13.944  20.709  0.00  0.00    +0.000 C 
ATOM      3  C   UNL     1       0.442  14.098  19.230  0.00  0.00    +0.000 C 
ATOM      4  C   UNL     1       0.111  12.665  18.807  0.00  0.00    +0.000 C 
ATOM      5  N   UNL     1       0.715  11.794  19.869  0.00  0.00    +0.000 NA
ATOM      6  C   UNL     1       0.813  12.577  21.148  0.00  0.00    +0.000 C 
ENDROOT
BRANCH   4   7
ATOM      7  C   UNL     1      -1.385  12.542  18.533  0.00  0.00    +0.000 C 
ATOM      8  O   UNL     1      -2.254  12.836  19.352  0.00  0.00    +0.000 OA
ATOM      9  N   UNL     1      -1.714  12.100  17.269  0.00  0.00    +0.000 N 
ATOM     10  H   UNL     1      -1.106  11.516  16.705  0.00  0.00    +0.000 HD
BRANCH   9  11
ATOM     11  O   UNL     1      -3.100  11.880  17.065  0.00  0.00    +0.000 OA
ATOM     12  H   UNL     1      -3.417  12.768  16.785  0.00  0.00    +0.000 HD
ENDBRANCH   9  11
ENDBRANCH   4   7
BRANCH   5  13
ATOM     13  S   UNL     1       0.120  10.230  20.172  0.00  0.00    +0.000 S 
ATOM     14  O   UNL     1       0.201  10.015  21.599  0.00  0.00    +0.000 OA
ATOM     15  O   UNL     1      -1.125  10.098  19.459  0.00  0.00    +0.000 OA
BRANCH  13  16
ATOM     16  C   UNL     1       1.271   9.102  19.439  0.00  0.00    +0.000 A 
ATOM     17  C   UNL     1       1.772   9.284  18.148  0.00  0.00    +0.000 A 
ATOM     18  C   UNL     1       2.597   8.306  17.593  0.00  0.00    +0.000 A 
ATOM     19  C   UNL     1       2.966   7.183  18.339  0.00  0.00    +0.000 A 
ATOM     20  C   UNL     1       2.456   7.004  19.629  0.00  0.00    +0.000 A 
ATOM     21  C   UNL     1       1.618   7.969  20.184  0.00  0.00    +0.000 A 
BRANCH  19  22
ATOM     22  O   UNL     1       3.786   6.279  17.704  0.00  0.00    +0.000 OA
BRANCH  22  23
ATOM     23  C   UNL     1       3.606   4.930  17.916  0.00  0.00    +0.000 A 
ATOM     24  C   UNL     1       4.530   4.315  18.766  0.00  0.00    +0.000 A 
ATOM     25  C   UNL     1       4.426   2.951  19.041  0.00  0.00    +0.000 A 
ATOM     26  C   UNL     1       3.397   2.213  18.466  0.00  0.00    +0.000 A 
ATOM     27  F   UNL     1       3.309   0.900  18.712  0.00  0.00    +0.000 F 
ATOM     28  C   UNL     1       2.453   2.819  17.646  0.00  0.00    +0.000 A 
ATOM     29  C   UNL     1       2.541   4.189  17.390  0.00  0.00    +0.000 A 
ENDBRANCH  22  23
ENDBRANCH  19  22
ENDBRANCH  13  16
ENDBRANCH   5  13
BRANCH   1  30
ATOM     30  O   UNL     1      -0.039  14.499  22.814  0.00  0.00    +0.000 OA
BRANCH  30  32
ATOM     31  C   UNL     1      -2.071  13.246  23.393  0.00  0.00    +0.000 C 
ATOM     32  C   UNL     1      -1.369  14.610  23.357  0.00  0.00    +0.000 C 
ATOM     33  C   UNL     1      -2.174  15.634  22.552  0.00  0.00    +0.000 C 
ATOM     34  C   UNL     1      -1.197  15.115  24.796  0.00  0.00    +0.000 C 
ENDBRANCH  30  32
ENDBRANCH   1  30
TORSDOF 8
ENDMDL
MODEL 8
REMARK VINA RESULT:      -7.7      1.894      2.540
REMARK  Name = 
REMARK  11 active torsions:
REMARK  status: ('A' for Active; 'I' for Inactive)
REMARK    1  A    between atoms: C_1  and  C_2
REMARK    2  A    between atoms: C_2  and  C_3
REMARK    3  A    between atoms: C_2  and  C_4
REMARK    4  A    between atoms: C_2  and  O_5
REMARK    5  A    between atoms: O_5  and  N_6
REMARK    6  A    between atoms: C_9  and  C_10
REMARK    7  A    between atoms: N_12  and  O_13
REMARK    8  A    between atoms: N_14  and  S_15
REMARK    9  A    between atoms: S_15  and  C_18
REMARK   10  A    between atoms: C_21  and  O_22
REMARK   11  A    between atoms: O_22  and  C_23
REMARK                            x       y       z     vdW  Elec       q    Type
REMARK                         _______ _______ _______ _____ _____    ______ ____
ROOT
ATOM      1  N   UNL     1       7.316   5.408  16.832  0.00  0.00    +0.000 NA
ATOM      2  C   UNL     1       6.500   5.602  17.819  0.00  0.00    +0.000 C 
ATOM      3  C   UNL     1       6.786   5.067  19.178  0.00  0.00    +0.000 C 
ATOM      4  C   UNL     1       5.356   4.807  19.659  0.00  0.00    +0.000 C 
ATOM      5  N   UNL     1       4.530   5.892  19.034  0.00  0.00    +0.000 NA
ATOM      6  C   UNL     1       5.208   6.363  17.778  0.00  0.00    +0.000 C 
ENDROOT
BRANCH   4   7
ATOM      7  C   UNL     1       4.977   3.355  19.382  0.00  0.00    +0.000 C 
ATOM      8  O   UNL     1       5.123   2.445  20.197  0.00  0.00    +0.000 OA
ATOM      9  N   UNL     1       4.418   3.122  18.143  0.00  0.00    +0.000 N 
ATOM     10  H   UNL     1       4.600   3.701  17.330  0.00  0.00    +0.000 HD
BRANCH   9  11
ATOM     11  O   UNL     1       4.178   1.755  17.853  0.00  0.00    +0.000 OA
ATOM     12  H   UNL     1       3.791   1.425  18.695  0.00  0.00    +0.000 HD
ENDBRANCH   9  11
ENDBRANCH   4   7
BRANCH   5  13
ATOM     13  S   UNL     1       2.862   5.690  18.770  0.00  0.00    +0.000 S 
ATOM     14  O   UNL     1       2.697   5.277  17.395  0.00  0.00    +0.000 OA
ATOM     15  O   UNL     1       2.346   4.903  19.861  0.00  0.00    +0.000 OA
BRANCH  13  16
ATOM     16  C   UNL     1       2.134   7.300  18.890  0.00  0.00    +0.000 A 
ATOM     17  C   UNL     1       2.058   8.165  17.796  0.00  0.00    +0.000 A 
ATOM     18  C   UNL     1       1.564   9.457  17.981  0.00  0.00    +0.000 A 
ATOM     19  C   UNL     1       1.097   9.863  19.234  0.00  0.00    +0.000 A 
ATOM     20  C   UNL     1       1.182   8.994  20.326  0.00  0.00    +0.000 A 
ATOM     21  C   UNL     1       1.689   7.708  20.152  0.00  0.00    +0.000 A 
BRANCH  19  22
ATOM     22  O   UNL     1       0.626  11.154  19.312  0.00  0.00    +0.000 OA
BRANCH  22  23
ATOM     23  C   UNL     1      -0.724  11.395  19.186  0.00  0.00    +0.000 A 
ATOM     24  C   UNL     1      -1.264  12.334  20.069  0.00  0.00    +0.000 A 
ATOM     25  C   UNL     1      -2.623  12.645  20.014  0.00  0.00    +0.000 A 
ATOM     26  C   UNL     1      -3.432  12.016  19.074  0.00  0.00    +0.000 A 
ATOM     27  F   UNL     1      -4.740  12.298  19.035  0.00  0.00    +0.000 F 
ATOM     28  C   UNL     1      -2.901  11.105  18.168  0.00  0.00    +0.000 A 
ATOM     29  C   UNL     1      -1.537  10.812  18.206  0.00  0.00    +0.000 A 
ENDBRANCH  22  23
ENDBRANCH  19  22
ENDBRANCH  13  16
ENDBRANCH   5  13
BRANCH   1  30
ATOM     30  O   UNL     1       6.789   5.955  15.651  0.00  0.00    +0.000 OA
BRANCH  30  32
ATOM     31  C   UNL     1       5.109   5.139  14.055  0.00  0.00    +0.000 C 
ATOM     32  C   UNL     1       6.488   4.923  14.692  0.00  0.00    +0.000 C 
ATOM     33  C   UNL     1       6.587   3.549  15.361  0.00  0.00    +0.000 C 
ATOM     34  C   UNL     1       7.559   5.035  13.599  0.00  0.00    +0.000 C 
ENDBRANCH  30  32
ENDBRANCH   1  30
TORSDOF 8
ENDMDL
MODEL 9
REMARK VINA RESULT:      -7.7      1.781      2.659
REMARK  Name = 
REMARK  11 active torsions:
REMARK  status: ('A' for Active; 'I' for Inactive)
REMARK    1  A    between atoms: C_1  and  C_2
REMARK    2  A    between atoms: C_2  and  C_3
REMARK    3  A    between atoms: C_2  and  C_4
REMARK    4  A    between atoms: C_2  and  O_5
REMARK    5  A    between atoms: O_5  and  N_6
REMARK    6  A    between atoms: C_9  and  C_10
REMARK    7  A    between atoms: N_12  and  O_13
REMARK    8  A    between atoms: N_14  and  S_15
REMARK    9  A    between atoms: S_15  and  C_18
REMARK   10  A    between atoms: C_21  and  O_22
REMARK   11  A    between atoms: O_22  and  C_23
REMARK                            x       y       z     vdW  Elec       q    Type
REMARK                         _______ _______ _______ _____ _____    ______ ____
ROOT
ATOM      1  N   UNL     1       7.155   5.343  16.605  0.00  0.00    +0.000 NA
ATOM      2  C   UNL     1       6.445   5.585  17.661  0.00  0.00    +0.000 C 
ATOM      3  C   UNL     1       6.859   5.093  19.003  0.00  0.00    +0.000 C 
ATOM      4  C   UNL     1       5.481   4.875  19.634  0.00  0.00    +0.000 C 
ATOM      5  N   UNL     1       4.612   5.952  19.056  0.00  0.00    +0.000 NA
ATOM      6  C   UNL     1       5.166   6.367  17.722  0.00  0.00    +0.000 C 
ENDROOT
BRANCH   4   7
ATOM      7  C   UNL     1       5.056   3.421  19.449  0.00  0.00    +0.000 C 
ATOM      8  O   UNL     1       5.109   2.576  20.342  0.00  0.00    +0.000 OA
ATOM      9  N   UNL     1       4.569   3.108  18.197  0.00  0.00    +0.000 N 
ATOM     10  H   UNL     1       4.829   3.610  17.355  0.00  0.00    +0.000 HD
BRANCH   9  11
ATOM     11  O   UNL     1       4.287   1.733  18.002  0.00  0.00    +0.000 OA
ATOM     12  H   UNL     1       3.313   1.694  18.139  0.00  0.00    +0.000 HD
ENDBRANCH   9  11
ENDBRANCH   4   7
BRANCH   5  13
ATOM     13  S   UNL     1       2.923   5.770  18.969  0.00  0.00    +0.000 S 
ATOM     14  O   UNL     1       2.620   5.253  17.653  0.00  0.00    +0.000 OA
ATOM     15  O   UNL     1       2.502   5.086  20.164  0.00  0.00    +0.000 OA
BRANCH  13  16
ATOM     16  C   UNL     1       2.237   7.401  19.024  0.00  0.00    +0.000 A 
ATOM     17  C   UNL     1       1.648   7.923  20.178  0.00  0.00    +0.000 A 
ATOM     18  C   UNL     1       1.037   9.176  20.126  0.00  0.00    +0.000 A 
ATOM     19  C   UNL     1       1.063   9.928  18.948  0.00  0.00    +0.000 A 
ATOM     20  C   UNL     1       1.648   9.397  17.794  0.00  0.00    +0.000 A 
ATOM     21  C   UNL     1       2.246   8.139  17.835  0.00  0.00    +0.000 A 
BRANCH  19  22
ATOM     22  O   UNL     1       0.436  11.151  19.000  0.00  0.00    +0.000 OA
BRANCH  22  23
ATOM     23  C   UNL     1      -0.926  11.228  18.810  0.00  0.00    +0.000 A 
ATOM     24  C   UNL     1      -1.464  10.342  17.872  0.00  0.00    +0.000 A 
ATOM     25  C   UNL     1      -2.835  10.346  17.614  0.00  0.00    +0.000 A 
ATOM     26  C   UNL     1      -3.659  11.234  18.298  0.00  0.00    +0.000 A 
ATOM     27  F   UNL     1      -4.971  11.253  18.035  0.00  0.00    +0.000 F 
ATOM     28  C   UNL     1      -3.140  12.096  19.257  0.00  0.00    +0.000 A 
ATOM     29  C   UNL     1      -1.772  12.076  19.534  0.00  0.00    +0.000 A 
ENDBRANCH  22  23
ENDBRANCH  19  22
ENDBRANCH  13  16
ENDBRANCH   5  13
BRANCH   1  30
ATOM     30  O   UNL     1       6.519   5.859  15.463  0.00  0.00    +0.000 OA
BRANCH  30  32
ATOM     31  C   UNL     1       5.044   5.026  13.684  0.00  0.00    +0.000 C 
ATOM     32  C   UNL     1       6.356   4.840  14.458  0.00  0.00    +0.000 C 
ATOM     33  C   UNL     1       6.433   3.455  15.107  0.00  0.00    +0.000 C 
ATOM     34  C   UNL     1       7.530   5.013  13.486  0.00  0.00    +0.000 C 
ENDBRANCH  30  32
ENDBRANCH   1  30
TORSDOF 8
ENDMDL
