MODEL 1
REMARK VINA RESULT:      -7.0      0.000      0.000
REMARK  Name = 
REMARK  4 active torsions:
REMARK  status: ('A' for Active; 'I' for Inactive)
REMARK    1  A    between atoms: C_1  and  C_2
REMARK    2  A    between atoms: N_7  and  C_8
REMARK    3  A    between atoms: C_12  and  C_13
REMARK    4  A    between atoms: C_14  and  C_15
REMARK                            x       y       z     vdW  Elec       q    Type
REMARK                         _______ _______ _______ _____ _____    ______ ____
ROOT
ATOM      1  C   UNL     1       6.626   3.928  13.309  0.00  0.00    +0.000 C 
ATOM      2  C   UNL     1       7.049   4.750  14.501  0.00  0.00    +0.000 C 
ATOM      3  O   UNL     1       7.951   5.577  14.385  0.00  0.00    +0.000 OA
ATOM      4  N   UNL     1       6.362   4.548  15.679  0.00  0.00    +0.000 N 
ATOM      5  C   UNL     1       6.650   5.400  16.835  0.00  0.00    +0.000 C 
ATOM      6  C   UNL     1       5.384   6.112  17.354  0.00  0.00    +0.000 C 
ATOM      7  N   UNL     1       4.283   5.156  17.559  0.00  0.00    +0.000 N 
ATOM      8  C   UNL     1       3.992   4.317  16.373  0.00  0.00    +0.000 C 
ATOM      9  C   UNL     1       5.272   3.592  15.910  0.00  0.00    +0.000 C 
ENDROOT
BRANCH   7  10
ATOM     10  C   UNL     1       3.510   5.069  18.711  0.00  0.00    +0.000 A 
ATOM     11  C   UNL     1       2.760   6.205  19.096  0.00  0.00    +0.000 A 
ATOM     12  C   UNL     1       1.956   6.239  20.233  0.00  0.00    +0.000 A 
ATOM     13  C   UNL     1       1.854   5.115  21.032  0.00  0.00    +0.000 A 
ATOM     14  C   UNL     1       2.556   3.951  20.702  0.00  0.00    +0.000 A 
ATOM     15  C   UNL     1       2.393   2.761  21.614  0.00  0.00    +0.000 C 
ATOM     16  C   UNL     1       3.399   3.920  19.548  0.00  0.00    +0.000 A 
ATOM     17  C   UNL     1       4.161   2.645  19.264  0.00  0.00    +0.000 C 
ENDBRANCH   7  10
TORSDOF 1
ENDMDL
MODEL 2
REMARK VINA RESULT:      -6.6      0.621      2.105
REMARK  Name = 
REMARK  4 active torsions:
REMARK  status: ('A' for Active; 'I' for Inactive)
REMARK    1  A    between atoms: C_1  and  C_2
REMARK    2  A    between atoms: N_7  and  C_8
REMARK    3  A    between atoms: C_12  and  C_13
REMARK    4  A    between atoms: C_14  and  C_15
REMARK                            x       y       z     vdW  Elec       q    Type
REMARK                         _______ _______ _______ _____ _____    ______ ____
ROOT
ATOM      1  C   UNL     1       6.668   3.796  13.175  0.00  0.00    +0.000 C 
ATOM      2  C   UNL     1       7.082   4.734  14.280  0.00  0.00    +0.000 C 
ATOM      3  O   UNL     1       7.946   5.583  14.071  0.00  0.00    +0.000 OA
ATOM      4  N   UNL     1       6.430   4.608  15.489  0.00  0.00    +0.000 N 
ATOM      5  C   UNL     1       6.708   5.568  16.559  0.00  0.00    +0.000 C 
ATOM      6  C   UNL     1       5.425   6.273  17.048  0.00  0.00    +0.000 C 
ATOM      7  N   UNL     1       4.369   5.295  17.362  0.00  0.00    +0.000 N 
ATOM      8  C   UNL     1       4.088   4.346  16.260  0.00  0.00    +0.000 C 
ATOM      9  C   UNL     1       5.386   3.634  15.829  0.00  0.00    +0.000 C 
ENDROOT
BRANCH   7  10
ATOM     10  C   UNL     1       3.627   5.278  18.537  0.00  0.00    +0.000 A 
ATOM     11  C   UNL     1       3.667   4.109  19.331  0.00  0.00    +0.000 A 
ATOM     12  C   UNL     1       2.960   3.973  20.525  0.00  0.00    +0.000 A 
ATOM     13  C   UNL     1       2.190   5.024  20.987  0.00  0.00    +0.000 A 
ATOM     14  C   UNL     1       2.119   6.217  20.259  0.00  0.00    +0.000 A 
ATOM     15  C   UNL     1       1.264   7.324  20.826  0.00  0.00    +0.000 C 
ATOM     16  C   UNL     1       2.824   6.352  19.024  0.00  0.00    +0.000 A 
ATOM     17  C   UNL     1       2.678   7.651  18.265  0.00  0.00    +0.000 C 
ENDBRANCH   7  10
TORSDOF 1
ENDMDL
MODEL 3
REMARK VINA RESULT:      -6.1      2.441      3.544
REMARK  Name = 
REMARK  4 active torsions:
REMARK  status: ('A' for Active; 'I' for Inactive)
REMARK    1  A    between atoms: C_1  and  C_2
REMARK    2  A    between atoms: N_7  and  C_8
REMARK    3  A    between atoms: C_12  and  C_13
REMARK    4  A    between atoms: C_14  and  C_15
REMARK                            x       y       z     vdW  Elec       q    Type
REMARK                         _______ _______ _______ _____ _____    ______ ____
ROOT
ATOM      1  C   UNL     1       7.689   9.154  17.381  0.00  0.00    +0.000 C 
ATOM      2  C   UNL     1       7.936   7.870  18.133  0.00  0.00    +0.000 C 
ATOM      3  O   UNL     1       8.883   7.791  18.913  0.00  0.00    +0.000 OA
ATOM      4  N   UNL     1       7.046   6.838  17.924  0.00  0.00    +0.000 N 
ATOM      5  C   UNL     1       7.170   5.611  18.715  0.00  0.00    +0.000 C 
ATOM      6  C   UNL     1       5.867   5.284  19.475  0.00  0.00    +0.000 C 
ATOM      7  N   UNL     1       4.704   5.316  18.573  0.00  0.00    +0.000 N 
ATOM      8  C   UNL     1       4.584   6.572  17.797  0.00  0.00    +0.000 C 
ATOM      9  C   UNL     1       5.889   6.842  17.021  0.00  0.00    +0.000 C 
ENDROOT
BRANCH   7  10
ATOM     10  C   UNL     1       3.740   4.318  18.485  0.00  0.00    +0.000 A 
ATOM     11  C   UNL     1       3.899   3.327  17.488  0.00  0.00    +0.000 A 
ATOM     12  C   UNL     1       2.995   2.283  17.300  0.00  0.00    +0.000 A 
ATOM     13  C   UNL     1       1.892   2.177  18.125  0.00  0.00    +0.000 A 
ATOM     14  C   UNL     1       1.681   3.114  19.143  0.00  0.00    +0.000 A 
ATOM     15  C   UNL     1       0.459   2.933  20.009  0.00  0.00    +0.000 C 
ATOM     16  C   UNL     1       2.594   4.198  19.324  0.00  0.00    +0.000 A 
ATOM     17  C   UNL     1       2.293   5.199  20.417  0.00  0.00    +0.000 C 
ENDBRANCH   7  10
TORSDOF 1
ENDMDL
MODEL 4
REMARK VINA RESULT:      -6.1      3.781      6.540
REMARK  Name = 
REMARK  4 active torsions:
REMARK  status: ('A' for Active; 'I' for Inactive)
REMARK    1  A    between atoms: C_1  and  C_2
REMARK    2  A    between atoms: N_7  and  C_8
REMARK    3  A    between atoms: C_12  and  C_13
REMARK    4  A    between atoms: C_14  and  C_15
REMARK                            x       y       z     vdW  Elec       q    Type
REMARK                         _______ _______ _______ _____ _____    ______ ____
ROOT
ATOM      1  C   UNL     1       0.540  10.752  21.585  0.00  0.00    +0.000 C 
ATOM      2  C   UNL     1       0.687  10.663  20.087  0.00  0.00    +0.000 C 
ATOM      3  O   UNL     1       0.661  11.686  19.407  0.00  0.00    +0.000 OA
ATOM      4  N   UNL     1       0.879   9.408  19.548  0.00  0.00    +0.000 N 
ATOM      5  C   UNL     1       1.144   9.274  18.114  0.00  0.00    +0.000 C 
ATOM      6  C   UNL     1       2.466   8.526  17.842  0.00  0.00    +0.000 C 
ATOM      7  N   UNL     1       2.527   7.263  18.596  0.00  0.00    +0.000 N 
ATOM      8  C   UNL     1       2.276   7.421  20.047  0.00  0.00    +0.000 C 
ATOM      9  C   UNL     1       0.929   8.135  20.278  0.00  0.00    +0.000 C 
ENDROOT
BRANCH   7  10
ATOM     10  C   UNL     1       2.863   6.029  18.051  0.00  0.00    +0.000 A 
ATOM     11  C   UNL     1       1.912   4.985  18.133  0.00  0.00    +0.000 A 
ATOM     12  C   UNL     1       2.138   3.705  17.630  0.00  0.00    +0.000 A 
ATOM     13  C   UNL     1       3.334   3.421  16.999  0.00  0.00    +0.000 A 
ATOM     14  C   UNL     1       4.314   4.411  16.868  0.00  0.00    +0.000 A 
ATOM     15  C   UNL     1       5.593   4.032  16.163  0.00  0.00    +0.000 C 
ATOM     16  C   UNL     1       4.094   5.718  17.402  0.00  0.00    +0.000 A 
ATOM     17  C   UNL     1       5.205   6.734  17.263  0.00  0.00    +0.000 C 
ENDBRANCH   7  10
TORSDOF 1
ENDMDL
MODEL 5
REMARK VINA RESULT:      -6.1      1.257      2.418
REMARK  Name = 
REMARK  4 active torsions:
REMARK  status: ('A' for Active; 'I' for Inactive)
REMARK    1  A    between atoms: C_1  and  C_2
REMARK    2  A    between atoms: N_7  and  C_8
REMARK    3  A    between atoms: C_12  and  C_13
REMARK    4  A    between atoms: C_14  and  C_15
REMARK                            x       y       z     vdW  Elec       q    Type
REMARK                         _______ _______ _______ _____ _____    ______ ____
ROOT
ATOM      1  C   UNL     1       7.426   4.918  11.916  0.00  0.00    +0.000 C 
ATOM      2  C   UNL     1       7.898   5.269  13.304  0.00  0.00    +0.000 C 
ATOM      3  O   UNL     1       8.873   6.002  13.451  0.00  0.00    +0.000 OA
ATOM      4  N   UNL     1       7.173   4.763  14.362  0.00  0.00    +0.000 N 
ATOM      5  C   UNL     1       7.515   5.167  15.728  0.00  0.00    +0.000 C 
ATOM      6  C   UNL     1       6.309   5.787  16.463  0.00  0.00    +0.000 C 
ATOM      7  N   UNL     1       5.122   4.921  16.361  0.00  0.00    +0.000 N 
ATOM      8  C   UNL     1       4.780   4.540  14.970  0.00  0.00    +0.000 C 
ATOM      9  C   UNL     1       5.997   3.888  14.284  0.00  0.00    +0.000 C 
ENDROOT
BRANCH   7  10
ATOM     10  C   UNL     1       4.323   4.539  17.432  0.00  0.00    +0.000 A 
ATOM     11  C   UNL     1       4.298   3.170  17.787  0.00  0.00    +0.000 A 
ATOM     12  C   UNL     1       3.531   2.668  18.837  0.00  0.00    +0.000 A 
ATOM     13  C   UNL     1       2.763   3.532  19.596  0.00  0.00    +0.000 A 
ATOM     14  C   UNL     1       2.753   4.901  19.309  0.00  0.00    +0.000 A 
ATOM     15  C   UNL     1       1.896   5.785  20.182  0.00  0.00    +0.000 C 
ATOM     16  C   UNL     1       3.521   5.416  18.220  0.00  0.00    +0.000 A 
ATOM     17  C   UNL     1       3.440   6.899  17.937  0.00  0.00    +0.000 C 
ENDBRANCH   7  10
TORSDOF 1
ENDMDL
MODEL 6
REMARK VINA RESULT:      -6.0      3.624      5.041
REMARK  Name = 
REMARK  4 active torsions:
REMARK  status: ('A' for Active; 'I' for Inactive)
REMARK    1  A    between atoms: C_1  and  C_2
REMARK    2  A    between atoms: N_7  and  C_8
REMARK    3  A    between atoms: C_12  and  C_13
REMARK    4  A    between atoms: C_14  and  C_15
REMARK                            x       y       z     vdW  Elec       q    Type
REMARK                         _______ _______ _______ _____ _____    ______ ____
ROOT
ATOM      1  C   UNL     1       3.277   1.416  18.291  0.00  0.00    +0.000 C 
ATOM      2  C   UNL     1       3.860   2.396  19.279  0.00  0.00    +0.000 C 
ATOM      3  O   UNL     1       4.890   2.111  19.886  0.00  0.00    +0.000 OA
ATOM      4  N   UNL     1       3.209   3.601  19.428  0.00  0.00    +0.000 N 
ATOM      5  C   UNL     1       3.795   4.635  20.284  0.00  0.00    +0.000 C 
ATOM      6  C   UNL     1       4.015   5.958  19.521  0.00  0.00    +0.000 C 
ATOM      7  N   UNL     1       2.792   6.372  18.813  0.00  0.00    +0.000 N 
ATOM      8  C   UNL     1       2.225   5.321  17.937  0.00  0.00    +0.000 C 
ATOM      9  C   UNL     1       1.982   4.030  18.744  0.00  0.00    +0.000 C 
ENDROOT
BRANCH   7  10
ATOM     10  C   UNL     1       2.233   7.643  18.871  0.00  0.00    +0.000 A 
ATOM     11  C   UNL     1       2.411   8.499  17.759  0.00  0.00    +0.000 A 
ATOM     12  C   UNL     1       1.903   9.795  17.705  0.00  0.00    +0.000 A 
ATOM     13  C   UNL     1       1.171  10.287  18.769  0.00  0.00    +0.000 A 
ATOM     14  C   UNL     1       0.942   9.489  19.895  0.00  0.00    +0.000 A 
ATOM     15  C   UNL     1       0.129  10.088  21.016  0.00  0.00    +0.000 C 
ATOM     16  C   UNL     1       1.480   8.167  19.963  0.00  0.00    +0.000 A 
ATOM     17  C   UNL     1       1.230   7.366  21.221  0.00  0.00    +0.000 C 
ENDBRANCH   7  10
TORSDOF 1
ENDMDL
MODEL 7
REMARK VINA RESULT:      -5.9      1.442      2.849
REMARK  Name = 
REMARK  4 active torsions:
REMARK  status: ('A' for Active; 'I' for Inactive)
REMARK    1  A    between atoms: C_1  and  C_2
REMARK    2  A    between atoms: N_7  and  C_8
REMARK    3  A    between atoms: C_12  and  C_13
REMARK    4  A    between atoms: C_14  and  C_15
REMARK                            x       y       z     vdW  Elec       q    Type
REMARK                         _______ _______ _______ _____ _____    ______ ____
ROOT
ATOM      1  C   UNL     1       6.337   3.547  14.264  0.00  0.00    +0.000 C 
ATOM      2  C   UNL     1       6.691   4.768  15.075  0.00  0.00    +0.000 C 
ATOM      3  O   UNL     1       7.575   5.527  14.684  0.00  0.00    +0.000 OA
ATOM      4  N   UNL     1       5.965   4.990  16.226  0.00  0.00    +0.000 N 
ATOM      5  C   UNL     1       6.186   6.221  16.990  0.00  0.00    +0.000 C 
ATOM      6  C   UNL     1       4.882   7.025  17.174  0.00  0.00    +0.000 C 
ATOM      7  N   UNL     1       3.800   6.171  17.691  0.00  0.00    +0.000 N 
ATOM      8  C   UNL     1       3.577   4.942  16.894  0.00  0.00    +0.000 C 
ATOM      9  C   UNL     1       4.892   4.147  16.767  0.00  0.00    +0.000 C 
ENDROOT
BRANCH   7  10
ATOM     10  C   UNL     1       2.986   6.488  18.772  0.00  0.00    +0.000 A 
ATOM     11  C   UNL     1       2.818   5.514  19.785  0.00  0.00    +0.000 A 
ATOM     12  C   UNL     1       2.023   5.715  20.911  0.00  0.00    +0.000 A 
ATOM     13  C   UNL     1       1.371   6.921  21.081  0.00  0.00    +0.000 A 
ATOM     14  C   UNL     1       1.505   7.935  20.126  0.00  0.00    +0.000 A 
ATOM     15  C   UNL     1       0.770   9.228  20.379  0.00  0.00    +0.000 C 
ATOM     16  C   UNL     1       2.302   7.725  18.959  0.00  0.00    +0.000 A 
ATOM     17  C   UNL     1       2.380   8.844  17.945  0.00  0.00    +0.000 C 
ENDBRANCH   7  10
TORSDOF 1
ENDMDL
MODEL 8
REMARK VINA RESULT:      -5.6      4.067      6.165
REMARK  Name = 
REMARK  4 active torsions:
REMARK  status: ('A' for Active; 'I' for Inactive)
REMARK    1  A    between atoms: C_1  and  C_2
REMARK    2  A    between atoms: N_7  and  C_8
REMARK    3  A    between atoms: C_12  and  C_13
REMARK    4  A    between atoms: C_14  and  C_15
REMARK                            x       y       z     vdW  Elec       q    Type
REMARK                         _______ _______ _______ _____ _____    ______ ____
ROOT
ATOM      1  C   UNL     1      -0.267  10.865  18.633  0.00  0.00    +0.000 C 
ATOM      2  C   UNL     1       0.180  10.108  19.859  0.00  0.00    +0.000 C 
ATOM      3  O   UNL     1      -0.380  10.302  20.936  0.00  0.00    +0.000 OA
ATOM      4  N   UNL     1       1.197   9.192  19.696  0.00  0.00    +0.000 N 
ATOM      5  C   UNL     1       1.591   8.345  20.824  0.00  0.00    +0.000 C 
ATOM      6  C   UNL     1       1.499   6.844  20.477  0.00  0.00    +0.000 C 
ATOM      7  N   UNL     1       2.199   6.547  19.216  0.00  0.00    +0.000 N 
ATOM      8  C   UNL     1       1.773   7.399  18.082  0.00  0.00    +0.000 C 
ATOM      9  C   UNL     1       1.918   8.888  18.453  0.00  0.00    +0.000 C 
ENDROOT
BRANCH   7  10
ATOM     10  C   UNL     1       3.121   5.521  19.043  0.00  0.00    +0.000 A 
ATOM     11  C   UNL     1       4.482   5.799  19.309  0.00  0.00    +0.000 A 
ATOM     12  C   UNL     1       5.496   4.854  19.164  0.00  0.00    +0.000 A 
ATOM     13  C   UNL     1       5.181   3.570  18.762  0.00  0.00    +0.000 A 
ATOM     14  C   UNL     1       3.852   3.221  18.497  0.00  0.00    +0.000 A 
ATOM     15  C   UNL     1       3.580   1.801  18.067  0.00  0.00    +0.000 C 
ATOM     16  C   UNL     1       2.813   4.194  18.623  0.00  0.00    +0.000 A 
ATOM     17  C   UNL     1       1.401   3.767  18.288  0.00  0.00    +0.000 C 
ENDBRANCH   7  10
TORSDOF 1
ENDMDL
MODEL 9
REMARK VINA RESULT:      -5.6      2.825      6.132
REMARK  Name = 
REMARK  4 active torsions:
REMARK  status: ('A' for Active; 'I' for Inactive)
REMARK    1  A    between atoms: C_1  and  C_2
REMARK    2  A    between atoms: N_7  and  C_8
REMARK    3  A    between atoms: C_12  and  C_13
REMARK    4  A    between atoms: C_14  and  C_15
REMARK                            x       y       z     vdW  Elec       q    Type
REMARK                         _______ _______ _______ _____ _____    ______ ____
ROOT
ATOM      1  C   UNL     1       1.711   2.428  21.796  0.00  0.00    +0.000 C 
ATOM      2  C   UNL     1       1.345   3.046  20.469  0.00  0.00    +0.000 C 
ATOM      3  O   UNL     1       0.172   3.318  20.225  0.00  0.00    +0.000 OA
ATOM      4  N   UNL     1       2.376   3.308  19.592  0.00  0.00    +0.000 N 
ATOM      5  C   UNL     1       2.093   4.014  18.340  0.00  0.00    +0.000 C 
ATOM      6  C   UNL     1       2.944   5.293  18.197  0.00  0.00    +0.000 C 
ATOM      7  N   UNL     1       4.370   5.011  18.431  0.00  0.00    +0.000 N 
ATOM      8  C   UNL     1       4.639   4.315  19.711  0.00  0.00    +0.000 C 
ATOM      9  C   UNL     1       3.801   3.024  19.798  0.00  0.00    +0.000 C 
ENDROOT
BRANCH   7  10
ATOM     10  C   UNL     1       5.407   5.413  17.596  0.00  0.00    +0.000 A 
ATOM     11  C   UNL     1       6.259   6.448  18.046  0.00  0.00    +0.000 A 
ATOM     12  C   UNL     1       7.326   6.938  17.295  0.00  0.00    +0.000 A 
ATOM     13  C   UNL     1       7.597   6.390  16.055  0.00  0.00    +0.000 A 
ATOM     14  C   UNL     1       6.803   5.352  15.555  0.00  0.00    +0.000 A 
ATOM     15  C   UNL     1       7.160   4.799  14.197  0.00  0.00    +0.000 C 
ATOM     16  C   UNL     1       5.696   4.863  16.313  0.00  0.00    +0.000 A 
ATOM     17  C   UNL     1       4.852   3.765  15.704  0.00  0.00    +0.000 C 
ENDBRANCH   7  10
TORSDOF 1
ENDMDL
