MODEL 1
REMARK VINA RESULT:      -5.6      0.000      0.000
REMARK  Name = 
REMARK  6 active torsions:
REMARK  status: ('A' for Active; 'I' for Inactive)
REMARK    1  A    between atoms: C_1  and  C_2
REMARK    2  A    between atoms: C_2  and  S_3
REMARK    3  A    between atoms: S_3  and  C_4
REMARK    4  A    between atoms: C_6  and  C_7
REMARK    5  A    between atoms: C_9  and  C_10
REMARK    6  A    between atoms: C_9  and  C_11
REMARK                            x       y       z     vdW  Elec       q    Type
REMARK                         _______ _______ _______ _____ _____    ______ ____
ROOT
ATOM      1  C   UNL     1       4.598   4.006  19.050  0.00  0.00    +0.000 C 
ATOM      2  N   UNL     1       3.773   4.963  18.790  0.00  0.00    +0.000 NA
ATOM      3  C   UNL     1       4.294   6.033  18.100  0.00  0.00    +0.000 C 
ATOM      4  C   UNL     1       3.349   7.155  17.776  0.00  0.00    +0.000 C 
ATOM      5  C   UNL     1       5.593   6.127  17.767  0.00  0.00    +0.000 C 
ATOM      6  C   UNL     1       6.599   5.065  18.113  0.00  0.00    +0.000 C 
ATOM      7  C   UNL     1       7.601   5.613  19.134  0.00  0.00    +0.000 C 
ATOM      8  C   UNL     1       7.325   4.596  16.848  0.00  0.00    +0.000 C 
ATOM      9  N   UNL     1       5.909   3.933  18.688  0.00  0.00    +0.000 N 
ATOM     10  H   UNL     1       6.457   3.217  19.143  0.00  0.00    +0.000 HD
ENDROOT
BRANCH   1  11
ATOM     11  S   UNL     1       4.066   2.641  20.006  0.00  0.00    +0.000 S 
BRANCH  11  13
ATOM     12  C   UNL     1       1.848   2.670  21.592  0.00  0.00    +0.000 C 
ATOM     13  C   UNL     1       2.315   3.071  20.201  0.00  0.00    +0.000 C 
ENDBRANCH  11  13
ENDBRANCH   1  11
TORSDOF 2
ENDMDL
MODEL 2
REMARK VINA RESULT:      -5.5      1.507      1.798
REMARK  Name = 
REMARK  6 active torsions:
REMARK  status: ('A' for Active; 'I' for Inactive)
REMARK    1  A    between atoms: C_1  and  C_2
REMARK    2  A    between atoms: C_2  and  S_3
REMARK    3  A    between atoms: S_3  and  C_4
REMARK    4  A    between atoms: C_6  and  C_7
REMARK    5  A    between atoms: C_9  and  C_10
REMARK    6  A    between atoms: C_9  and  C_11
REMARK                            x       y       z     vdW  Elec       q    Type
REMARK                         _______ _______ _______ _____ _____    ______ ____
ROOT
ATOM      1  C   UNL     1       4.047   3.553  17.610  0.00  0.00    +0.000 C 
ATOM      2  N   UNL     1       3.472   4.656  17.954  0.00  0.00    +0.000 NA
ATOM      3  C   UNL     1       4.034   5.807  17.450  0.00  0.00    +0.000 C 
ATOM      4  C   UNL     1       3.375   7.103  17.828  0.00  0.00    +0.000 C 
ATOM      5  C   UNL     1       5.149   5.810  16.701  0.00  0.00    +0.000 C 
ATOM      6  C   UNL     1       5.887   4.551  16.336  0.00  0.00    +0.000 C 
ATOM      7  C   UNL     1       7.256   4.535  17.023  0.00  0.00    +0.000 C 
ATOM      8  C   UNL     1       6.049   4.458  14.816  0.00  0.00    +0.000 C 
ATOM      9  N   UNL     1       5.120   3.411  16.783  0.00  0.00    +0.000 N 
ATOM     10  H   UNL     1       5.564   2.503  16.782  0.00  0.00    +0.000 HD
ENDROOT
BRANCH   1  11
ATOM     11  S   UNL     1       3.475   2.037  18.270  0.00  0.00    +0.000 S 
BRANCH  11  13
ATOM     12  C   UNL     1       0.829   2.408  18.812  0.00  0.00    +0.000 C 
ATOM     13  C   UNL     1       2.206   2.660  19.406  0.00  0.00    +0.000 C 
ENDBRANCH  11  13
ENDBRANCH   1  11
TORSDOF 2
ENDMDL
MODEL 3
REMARK VINA RESULT:      -5.5      1.310      1.354
REMARK  Name = 
REMARK  6 active torsions:
REMARK  status: ('A' for Active; 'I' for Inactive)
REMARK    1  A    between atoms: C_1  and  C_2
REMARK    2  A    between atoms: C_2  and  S_3
REMARK    3  A    between atoms: S_3  and  C_4
REMARK    4  A    between atoms: C_6  and  C_7
REMARK    5  A    between atoms: C_9  and  C_10
REMARK    6  A    between atoms: C_9  and  C_11
REMARK                            x       y       z     vdW  Elec       q    Type
REMARK                         _______ _______ _______ _____ _____    ______ ____
ROOT
ATOM      1  C   UNL     1       4.615   4.049  18.922  0.00  0.00    +0.000 C 
ATOM      2  N   UNL     1       3.806   5.033  18.712  0.00  0.00    +0.000 NA
ATOM      3  C   UNL     1       4.333   6.107  18.033  0.00  0.00    +0.000 C 
ATOM      4  C   UNL     1       3.407   7.260  17.766  0.00  0.00    +0.000 C 
ATOM      5  C   UNL     1       5.623   6.178  17.663  0.00  0.00    +0.000 C 
ATOM      6  C   UNL     1       6.613   5.083  17.951  0.00  0.00    +0.000 C 
ATOM      7  C   UNL     1       7.659   5.580  18.954  0.00  0.00    +0.000 C 
ATOM      8  C   UNL     1       7.288   4.629  16.653  0.00  0.00    +0.000 C 
ATOM      9  N   UNL     1       5.912   3.953  18.518  0.00  0.00    +0.000 N 
ATOM     10  H   UNL     1       6.455   3.212  18.938  0.00  0.00    +0.000 HD
ENDROOT
BRANCH   1  11
ATOM     11  S   UNL     1       4.078   2.673  19.860  0.00  0.00    +0.000 S 
BRANCH  11  13
ATOM     12  C   UNL     1       2.386   2.158  17.785  0.00  0.00    +0.000 C 
ATOM     13  C   UNL     1       3.581   1.564  18.514  0.00  0.00    +0.000 C 
ENDBRANCH  11  13
ENDBRANCH   1  11
TORSDOF 2
ENDMDL
MODEL 4
REMARK VINA RESULT:      -5.5      1.976      4.348
REMARK  Name = 
REMARK  6 active torsions:
REMARK  status: ('A' for Active; 'I' for Inactive)
REMARK    1  A    between atoms: C_1  and  C_2
REMARK    2  A    between atoms: C_2  and  S_3
REMARK    3  A    between atoms: S_3  and  C_4
REMARK    4  A    between atoms: C_6  and  C_7
REMARK    5  A    between atoms: C_9  and  C_10
REMARK    6  A    between atoms: C_9  and  C_11
REMARK                            x       y       z     vdW  Elec       q    Type
REMARK                         _______ _______ _______ _____ _____    ______ ____
ROOT
ATOM      1  C   UNL     1       5.593   4.636  18.183  0.00  0.00    +0.000 C 
ATOM      2  N   UNL     1       4.763   5.611  18.025  0.00  0.00    +0.000 NA
ATOM      3  C   UNL     1       3.464   5.362  18.405  0.00  0.00    +0.000 C 
ATOM      4  C   UNL     1       2.483   6.487  18.241  0.00  0.00    +0.000 C 
ATOM      5  C   UNL     1       3.050   4.164  18.852  0.00  0.00    +0.000 C 
ATOM      6  C   UNL     1       3.971   2.983  18.985  0.00  0.00    +0.000 C 
ATOM      7  C   UNL     1       3.574   1.899  17.978  0.00  0.00    +0.000 C 
ATOM      8  C   UNL     1       3.918   2.432  20.413  0.00  0.00    +0.000 C 
ATOM      9  N   UNL     1       5.325   3.410  18.712  0.00  0.00    +0.000 N 
ATOM     10  H   UNL     1       6.033   2.702  18.576  0.00  0.00    +0.000 HD
ENDROOT
BRANCH   1  11
ATOM     11  S   UNL     1       7.248   4.811  17.644  0.00  0.00    +0.000 S 
BRANCH  11  13
ATOM     12  C   UNL     1       7.729   7.495  17.685  0.00  0.00    +0.000 C 
ATOM     13  C   UNL     1       7.724   6.278  18.598  0.00  0.00    +0.000 C 
ENDBRANCH  11  13
ENDBRANCH   1  11
TORSDOF 2
ENDMDL
MODEL 5
REMARK VINA RESULT:      -5.4      0.925      1.080
REMARK  Name = 
REMARK  6 active torsions:
REMARK  status: ('A' for Active; 'I' for Inactive)
REMARK    1  A    between atoms: C_1  and  C_2
REMARK    2  A    between atoms: C_2  and  S_3
REMARK    3  A    between atoms: S_3  and  C_4
REMARK    4  A    between atoms: C_6  and  C_7
REMARK    5  A    between atoms: C_9  and  C_10
REMARK    6  A    between atoms: C_9  and  C_11
REMARK                            x       y       z     vdW  Elec       q    Type
REMARK                         _______ _______ _______ _____ _____    ______ ____
ROOT
ATOM      1  C   UNL     1       4.283   3.822  18.740  0.00  0.00    +0.000 C 
ATOM      2  N   UNL     1       3.654   4.948  18.786  0.00  0.00    +0.000 NA
ATOM      3  C   UNL     1       4.040   5.887  17.857  0.00  0.00    +0.000 C 
ATOM      4  C   UNL     1       3.314   7.203  17.883  0.00  0.00    +0.000 C 
ATOM      5  C   UNL     1       5.050   5.690  16.993  0.00  0.00    +0.000 C 
ATOM      6  C   UNL     1       5.852   4.419  16.955  0.00  0.00    +0.000 C 
ATOM      7  C   UNL     1       7.290   4.699  17.401  0.00  0.00    +0.000 C 
ATOM      8  C   UNL     1       5.834   3.827  15.542  0.00  0.00    +0.000 C 
ATOM      9  N   UNL     1       5.254   3.460  17.857  0.00  0.00    +0.000 N 
ATOM     10  H   UNL     1       5.778   2.627  18.088  0.00  0.00    +0.000 HD
ENDROOT
BRANCH   1  11
ATOM     11  S   UNL     1       3.940   2.592  19.936  0.00  0.00    +0.000 S 
BRANCH  11  13
ATOM     12  C   UNL     1       1.658   2.905  21.395  0.00  0.00    +0.000 C 
ATOM     13  C   UNL     1       2.130   2.692  19.965  0.00  0.00    +0.000 C 
ENDBRANCH  11  13
ENDBRANCH   1  11
TORSDOF 2
ENDMDL
MODEL 6
REMARK VINA RESULT:      -5.4      2.013      4.216
REMARK  Name = 
REMARK  6 active torsions:
REMARK  status: ('A' for Active; 'I' for Inactive)
REMARK    1  A    between atoms: C_1  and  C_2
REMARK    2  A    between atoms: C_2  and  S_3
REMARK    3  A    between atoms: S_3  and  C_4
REMARK    4  A    between atoms: C_6  and  C_7
REMARK    5  A    between atoms: C_9  and  C_10
REMARK    6  A    between atoms: C_9  and  C_11
REMARK                            x       y       z     vdW  Elec       q    Type
REMARK                         _______ _______ _______ _____ _____    ______ ____
ROOT
ATOM      1  C   UNL     1       5.747   4.629  18.411  0.00  0.00    +0.000 C 
ATOM      2  N   UNL     1       4.971   5.656  18.511  0.00  0.00    +0.000 NA
ATOM      3  C   UNL     1       3.718   5.413  19.024  0.00  0.00    +0.000 C 
ATOM      4  C   UNL     1       2.802   6.596  19.161  0.00  0.00    +0.000 C 
ATOM      5  C   UNL     1       3.284   4.182  19.343  0.00  0.00    +0.000 C 
ATOM      6  C   UNL     1       4.132   2.952  19.176  0.00  0.00    +0.000 C 
ATOM      7  C   UNL     1       3.537   2.057  18.085  0.00  0.00    +0.000 C 
ATOM      8  C   UNL     1       4.224   2.192  20.502  0.00  0.00    +0.000 C 
ATOM      9  N   UNL     1       5.466   3.351  18.786  0.00  0.00    +0.000 N 
ATOM     10  H   UNL     1       6.101   2.639  18.453  0.00  0.00    +0.000 HD
ENDROOT
BRANCH   1  11
ATOM     11  S   UNL     1       7.327   4.806  17.683  0.00  0.00    +0.000 S 
BRANCH  11  13
ATOM     12  C   UNL     1       6.135   3.982  15.373  0.00  0.00    +0.000 C 
ATOM     13  C   UNL     1       6.836   5.188  15.980  0.00  0.00    +0.000 C 
ENDBRANCH  11  13
ENDBRANCH   1  11
TORSDOF 2
ENDMDL
MODEL 7
REMARK VINA RESULT:      -5.3      1.837      2.849
REMARK  Name = 
REMARK  6 active torsions:
REMARK  status: ('A' for Active; 'I' for Inactive)
REMARK    1  A    between atoms: C_1  and  C_2
REMARK    2  A    between atoms: C_2  and  S_3
REMARK    3  A    between atoms: S_3  and  C_4
REMARK    4  A    between atoms: C_6  and  C_7
REMARK    5  A    between atoms: C_9  and  C_10
REMARK    6  A    between atoms: C_9  and  C_11
REMARK                            x       y       z     vdW  Elec       q    Type
REMARK                         _______ _______ _______ _____ _____    ______ ____
ROOT
ATOM      1  C   UNL     1       5.066   4.044  18.306  0.00  0.00    +0.000 C 
ATOM      2  N   UNL     1       6.012   4.441  19.089  0.00  0.00    +0.000 NA
ATOM      3  C   UNL     1       6.931   5.300  18.531  0.00  0.00    +0.000 C 
ATOM      4  C   UNL     1       8.035   5.784  19.428  0.00  0.00    +0.000 C 
ATOM      5  C   UNL     1       6.903   5.662  17.238  0.00  0.00    +0.000 C 
ATOM      6  C   UNL     1       5.858   5.168  16.277  0.00  0.00    +0.000 C 
ATOM      7  C   UNL     1       6.507   4.262  15.226  0.00  0.00    +0.000 C 
ATOM      8  C   UNL     1       5.158   6.352  15.604  0.00  0.00    +0.000 C 
ATOM      9  N   UNL     1       4.868   4.410  17.009  0.00  0.00    +0.000 N 
ATOM     10  H   UNL     1       4.205   3.855  16.486  0.00  0.00    +0.000 HD
ENDROOT
BRANCH   1  11
ATOM     11  S   UNL     1       3.898   2.876  18.882  0.00  0.00    +0.000 S 
BRANCH  11  13
ATOM     12  C   UNL     1       1.259   3.326  18.366  0.00  0.00    +0.000 C 
ATOM     13  C   UNL     1       2.588   3.125  17.654  0.00  0.00    +0.000 C 
ENDBRANCH  11  13
ENDBRANCH   1  11
TORSDOF 2
ENDMDL
MODEL 8
REMARK VINA RESULT:      -5.3      2.906      5.068
REMARK  Name = 
REMARK  6 active torsions:
REMARK  status: ('A' for Active; 'I' for Inactive)
REMARK    1  A    between atoms: C_1  and  C_2
REMARK    2  A    between atoms: C_2  and  S_3
REMARK    3  A    between atoms: S_3  and  C_4
REMARK    4  A    between atoms: C_6  and  C_7
REMARK    5  A    between atoms: C_9  and  C_10
REMARK    6  A    between atoms: C_9  and  C_11
REMARK                            x       y       z     vdW  Elec       q    Type
REMARK                         _______ _______ _______ _____ _____    ______ ____
ROOT
ATOM      1  C   UNL     1       6.597   4.783  16.131  0.00  0.00    +0.000 C 
ATOM      2  N   UNL     1       7.440   5.211  17.009  0.00  0.00    +0.000 NA
ATOM      3  C   UNL     1       6.988   5.241  18.309  0.00  0.00    +0.000 C 
ATOM      4  C   UNL     1       7.956   5.725  19.351  0.00  0.00    +0.000 C 
ATOM      5  C   UNL     1       5.731   4.914  18.654  0.00  0.00    +0.000 C 
ATOM      6  C   UNL     1       4.700   4.477  17.652  0.00  0.00    +0.000 C 
ATOM      7  C   UNL     1       3.593   5.531  17.554  0.00  0.00    +0.000 C 
ATOM      8  C   UNL     1       4.114   3.121  18.056  0.00  0.00    +0.000 C 
ATOM      9  N   UNL     1       5.332   4.332  16.360  0.00  0.00    +0.000 N 
ATOM     10  H   UNL     1       4.743   4.228  15.546  0.00  0.00    +0.000 HD
ENDROOT
BRANCH   1  11
ATOM     11  S   UNL     1       7.032   4.793  14.436  0.00  0.00    +0.000 S 
BRANCH  11  13
ATOM     12  C   UNL     1       5.959   3.361  12.379  0.00  0.00    +0.000 C 
ATOM     13  C   UNL     1       5.602   3.915  13.750  0.00  0.00    +0.000 C 
ENDBRANCH  11  13
ENDBRANCH   1  11
TORSDOF 2
ENDMDL
MODEL 9
REMARK VINA RESULT:      -5.2      2.235      4.725
REMARK  Name = 
REMARK  6 active torsions:
REMARK  status: ('A' for Active; 'I' for Inactive)
REMARK    1  A    between atoms: C_1  and  C_2
REMARK    2  A    between atoms: C_2  and  S_3
REMARK    3  A    between atoms: S_3  and  C_4
REMARK    4  A    between atoms: C_6  and  C_7
REMARK    5  A    between atoms: C_9  and  C_10
REMARK    6  A    between atoms: C_9  and  C_11
REMARK                            x       y       z     vdW  Elec       q    Type
REMARK                         _______ _______ _______ _____ _____    ______ ____
ROOT
ATOM      1  C   UNL     1       3.857   4.676  19.317  0.00  0.00    +0.000 C 
ATOM      2  N   UNL     1       3.456   5.893  19.470  0.00  0.00    +0.000 NA
ATOM      3  C   UNL     1       2.262   6.052  20.136  0.00  0.00    +0.000 C 
ATOM      4  C   UNL     1       1.781   7.461  20.337  0.00  0.00    +0.000 C 
ATOM      5  C   UNL     1       1.512   5.017  20.550  0.00  0.00    +0.000 C 
ATOM      6  C   UNL     1       1.910   3.584  20.329  0.00  0.00    +0.000 C 
ATOM      7  C   UNL     1       0.937   2.920  19.350  0.00  0.00    +0.000 C 
ATOM      8  C   UNL     1       1.926   2.831  21.662  0.00  0.00    +0.000 C 
ATOM      9  N   UNL     1       3.243   3.548  19.770  0.00  0.00    +0.000 N 
ATOM     10  H   UNL     1       3.581   2.675  19.391  0.00  0.00    +0.000 HD
ENDROOT
BRANCH   1  11
ATOM     11  S   UNL     1       5.312   4.353  18.401  0.00  0.00    +0.000 S 
BRANCH  11  13
ATOM     12  C   UNL     1       5.136   5.913  16.171  0.00  0.00    +0.000 C 
ATOM     13  C   UNL     1       4.668   4.574  16.720  0.00  0.00    +0.000 C 
ENDBRANCH  11  13
ENDBRANCH   1  11
TORSDOF 2
ENDMDL
