MODEL 1
REMARK VINA RESULT:      -7.4      0.000      0.000
REMARK  Name = 
REMARK  7 active torsions:
REMARK  status: ('A' for Active; 'I' for Inactive)
REMARK    1  A    between atoms: C_1  and  O_2
REMARK    2  A    between atoms: O_2  and  C_3
REMARK    3  A    between atoms: N_8  and  C_9
REMARK    4  A    between atoms: C_12  and  O_13
REMARK    5  A    between atoms: O_13  and  C_14
REMARK    6  A    between atoms: C_19  and  C_20
REMARK    7  A    between atoms: C_22  and  C_23
REMARK                            x       y       z     vdW  Elec       q    Type
REMARK                         _______ _______ _______ _____ _____    ______ ____
ROOT
ATOM      1  C   UNL     1       5.627   5.825  16.623  0.00  0.00    +0.000 C 
ATOM      2  O   UNL     1       5.075   6.790  16.125  0.00  0.00    +0.000 OA
ATOM      3  N   UNL     1       5.125   4.968  17.573  0.00  0.00    +0.000 N 
ATOM      4  C   UNL     1       4.087   5.238  18.437  0.00  0.00    +0.000 A 
ATOM      5  N   UNL     1       3.481   6.373  18.364  0.00  0.00    +0.000 NA
ATOM      6  N   UNL     1       2.472   6.670  19.251  0.00  0.00    +0.000 N 
ATOM      7  C   UNL     1       1.996   5.753  20.185  0.00  0.00    +0.000 A 
ATOM      8  O   UNL     1       1.044   5.901  20.949  0.00  0.00    +0.000 OA
ATOM      9  C   UNL     1       2.732   4.477  20.226  0.00  0.00    +0.000 A 
ATOM     10  C   UNL     1       3.763   4.176  19.419  0.00  0.00    +0.000 A 
ATOM     11  C   UNL     1       4.548   2.897  19.474  0.00  0.00    +0.000 C 
ATOM     12  H   UNL     1       5.713   4.163  17.703  0.00  0.00    +0.000 HD
ENDROOT
BRANCH   6  13
ATOM     13  C   UNL     1       1.997   8.017  19.153  0.00  0.00    +0.000 A 
ATOM     14  C   UNL     1       1.346   8.654  20.216  0.00  0.00    +0.000 A 
ATOM     15  C   UNL     1       0.917   9.978  20.108  0.00  0.00    +0.000 A 
ATOM     16  C   UNL     1       1.139  10.700  18.941  0.00  0.00    +0.000 A 
ATOM     17  C   UNL     1       1.772  10.082  17.866  0.00  0.00    +0.000 A 
ATOM     18  C   UNL     1       2.206   8.755  17.977  0.00  0.00    +0.000 A 
BRANCH  16  19
ATOM     19  O   UNL     1       0.662  11.980  18.947  0.00  0.00    +0.000 OA
ATOM     20  C   UNL     1       1.609  12.978  18.588  0.00  0.00    +0.000 C 
ENDBRANCH  16  19
ENDBRANCH   6  13
BRANCH   1  22
ATOM     21  C   UNL     1       7.496   4.571  17.248  0.00  0.00    +0.000 C 
ATOM     22  O   UNL     1       6.861   5.378  16.253  0.00  0.00    +0.000 OA
ENDBRANCH   1  22
BRANCH   9  23
ATOM     23  C   UNL     1       2.281   3.462  21.263  0.00  0.00    +0.000 C 
ATOM     24  N   UNL     1       1.907   2.620  22.125  0.00  0.00    +0.000 NA
ENDBRANCH   9  23
TORSDOF 4
ENDMDL
MODEL 2
REMARK VINA RESULT:      -7.3      0.555      1.145
REMARK  Name = 
REMARK  7 active torsions:
REMARK  status: ('A' for Active; 'I' for Inactive)
REMARK    1  A    between atoms: C_1  and  O_2
REMARK    2  A    between atoms: O_2  and  C_3
REMARK    3  A    between atoms: N_8  and  C_9
REMARK    4  A    between atoms: C_12  and  O_13
REMARK    5  A    between atoms: O_13  and  C_14
REMARK    6  A    between atoms: C_19  and  C_20
REMARK    7  A    between atoms: C_22  and  C_23
REMARK                            x       y       z     vdW  Elec       q    Type
REMARK                         _______ _______ _______ _____ _____    ______ ____
ROOT
ATOM      1  C   UNL     1       5.655   5.559  16.600  0.00  0.00    +0.000 C 
ATOM      2  O   UNL     1       5.126   6.533  16.096  0.00  0.00    +0.000 OA
ATOM      3  N   UNL     1       5.136   4.721  17.558  0.00  0.00    +0.000 N 
ATOM      4  C   UNL     1       4.108   5.023  18.423  0.00  0.00    +0.000 A 
ATOM      5  N   UNL     1       3.529   6.171  18.343  0.00  0.00    +0.000 NA
ATOM      6  N   UNL     1       2.530   6.499  19.231  0.00  0.00    +0.000 N 
ATOM      7  C   UNL     1       2.035   5.601  20.173  0.00  0.00    +0.000 A 
ATOM      8  O   UNL     1       1.090   5.778  20.939  0.00  0.00    +0.000 OA
ATOM      9  C   UNL     1       2.740   4.308  20.222  0.00  0.00    +0.000 A 
ATOM     10  C   UNL     1       3.762   3.977  19.414  0.00  0.00    +0.000 A 
ATOM     11  C   UNL     1       4.516   2.679  19.477  0.00  0.00    +0.000 C 
ATOM     12  H   UNL     1       5.705   3.903  17.692  0.00  0.00    +0.000 HD
ENDROOT
BRANCH   6  13
ATOM     13  C   UNL     1       2.088   7.856  19.123  0.00  0.00    +0.000 A 
ATOM     14  C   UNL     1       2.243   8.596  17.945  0.00  0.00    +0.000 A 
ATOM     15  C   UNL     1       1.777   9.910  17.853  0.00  0.00    +0.000 A 
ATOM     16  C   UNL     1       1.136  10.509  18.930  0.00  0.00    +0.000 A 
ATOM     17  C   UNL     1       0.983   9.797  20.116  0.00  0.00    +0.000 A 
ATOM     18  C   UNL     1       1.447   8.478  20.207  0.00  0.00    +0.000 A 
BRANCH  16  19
ATOM     19  O   UNL     1       0.739  11.801  18.728  0.00  0.00    +0.000 OA
ATOM     20  C   UNL     1       1.795  12.746  18.623  0.00  0.00    +0.000 C 
ENDBRANCH  16  19
ENDBRANCH   6  13
BRANCH   1  22
ATOM     21  C   UNL     1       6.955   4.726  14.846  0.00  0.00    +0.000 C 
ATOM     22  O   UNL     1       6.877   5.080  16.230  0.00  0.00    +0.000 OA
ENDBRANCH   1  22
BRANCH   9  23
ATOM     23  C   UNL     1       2.269   3.312  21.268  0.00  0.00    +0.000 C 
ATOM     24  N   UNL     1       1.879   2.485  22.136  0.00  0.00    +0.000 NA
ENDBRANCH   9  23
TORSDOF 4
ENDMDL
MODEL 3
REMARK VINA RESULT:      -7.2      2.080      6.162
REMARK  Name = 
REMARK  7 active torsions:
REMARK  status: ('A' for Active; 'I' for Inactive)
REMARK    1  A    between atoms: C_1  and  O_2
REMARK    2  A    between atoms: O_2  and  C_3
REMARK    3  A    between atoms: N_8  and  C_9
REMARK    4  A    between atoms: C_12  and  O_13
REMARK    5  A    between atoms: O_13  and  C_14
REMARK    6  A    between atoms: C_19  and  C_20
REMARK    7  A    between atoms: C_22  and  C_23
REMARK                            x       y       z     vdW  Elec       q    Type
REMARK                         _______ _______ _______ _____ _____    ______ ____
ROOT
ATOM      1  C   UNL     1       2.092   8.769  17.948  0.00  0.00    +0.000 C 
ATOM      2  O   UNL     1       3.020   8.975  17.186  0.00  0.00    +0.000 OA
ATOM      3  N   UNL     1       1.980   7.770  18.885  0.00  0.00    +0.000 N 
ATOM      4  C   UNL     1       2.680   6.584  18.890  0.00  0.00    +0.000 A 
ATOM      5  N   UNL     1       3.553   6.361  17.969  0.00  0.00    +0.000 NA
ATOM      6  N   UNL     1       4.226   5.161  17.940  0.00  0.00    +0.000 N 
ATOM      7  C   UNL     1       4.080   4.191  18.927  0.00  0.00    +0.000 A 
ATOM      8  O   UNL     1       4.705   3.137  19.028  0.00  0.00    +0.000 OA
ATOM      9  C   UNL     1       3.064   4.499  19.949  0.00  0.00    +0.000 A 
ATOM     10  C   UNL     1       2.341   5.632  19.974  0.00  0.00    +0.000 A 
ATOM     11  C   UNL     1       1.276   5.945  20.985  0.00  0.00    +0.000 C 
ATOM     12  H   UNL     1       1.191   7.911  19.493  0.00  0.00    +0.000 HD
ENDROOT
BRANCH   6  13
ATOM     13  C   UNL     1       5.047   4.991  16.779  0.00  0.00    +0.000 A 
ATOM     14  C   UNL     1       4.570   4.371  15.617  0.00  0.00    +0.000 A 
ATOM     15  C   UNL     1       5.379   4.241  14.487  0.00  0.00    +0.000 A 
ATOM     16  C   UNL     1       6.678   4.737  14.486  0.00  0.00    +0.000 A 
ATOM     17  C   UNL     1       7.177   5.345  15.635  0.00  0.00    +0.000 A 
ATOM     18  C   UNL     1       6.363   5.478  16.767  0.00  0.00    +0.000 A 
BRANCH  16  19
ATOM     19  O   UNL     1       7.378   4.539  13.330  0.00  0.00    +0.000 OA
ATOM     20  C   UNL     1       6.737   3.704  12.374  0.00  0.00    +0.000 C 
ENDBRANCH  16  19
ENDBRANCH   6  13
BRANCH   1  22
ATOM     21  C   UNL     1       0.669   9.930  19.392  0.00  0.00    +0.000 C 
ATOM     22  O   UNL     1       0.995   9.573  18.046  0.00  0.00    +0.000 OA
ENDBRANCH   1  22
BRANCH   9  23
ATOM     23  C   UNL     1       2.833   3.449  21.022  0.00  0.00    +0.000 C 
ATOM     24  N   UNL     1       2.640   2.577  21.913  0.00  0.00    +0.000 NA
ENDBRANCH   9  23
TORSDOF 4
ENDMDL
MODEL 4
REMARK VINA RESULT:      -7.0      4.203      8.288
REMARK  Name = 
REMARK  7 active torsions:
REMARK  status: ('A' for Active; 'I' for Inactive)
REMARK    1  A    between atoms: C_1  and  O_2
REMARK    2  A    between atoms: O_2  and  C_3
REMARK    3  A    between atoms: N_8  and  C_9
REMARK    4  A    between atoms: C_12  and  O_13
REMARK    5  A    between atoms: O_13  and  C_14
REMARK    6  A    between atoms: C_19  and  C_20
REMARK    7  A    between atoms: C_22  and  C_23
REMARK                            x       y       z     vdW  Elec       q    Type
REMARK                         _______ _______ _______ _____ _____    ______ ____
ROOT
ATOM      1  C   UNL     1      -3.070  11.199  16.983  0.00  0.00    +0.000 C 
ATOM      2  O   UNL     1      -2.207  10.623  16.344  0.00  0.00    +0.000 OA
ATOM      3  N   UNL     1      -2.929  11.864  18.177  0.00  0.00    +0.000 N 
ATOM      4  C   UNL     1      -1.909  11.685  19.086  0.00  0.00    +0.000 A 
ATOM      5  N   UNL     1      -0.964  10.851  18.820  0.00  0.00    +0.000 NA
ATOM      6  N   UNL     1       0.036  10.632  19.740  0.00  0.00    +0.000 N 
ATOM      7  C   UNL     1       0.134  11.348  20.930  0.00  0.00    +0.000 A 
ATOM      8  O   UNL     1       1.038  11.283  21.762  0.00  0.00    +0.000 OA
ATOM      9  C   UNL     1      -0.978  12.282  21.182  0.00  0.00    +0.000 A 
ATOM     10  C   UNL     1      -2.005  12.474  20.336  0.00  0.00    +0.000 A 
ATOM     11  C   UNL     1      -3.165  13.392  20.595  0.00  0.00    +0.000 C 
ATOM     12  H   UNL     1      -3.753  12.387  18.417  0.00  0.00    +0.000 HD
ENDROOT
BRANCH   6  13
ATOM     13  C   UNL     1       0.928   9.572  19.379  0.00  0.00    +0.000 A 
ATOM     14  C   UNL     1       1.217   8.515  20.251  0.00  0.00    +0.000 A 
ATOM     15  C   UNL     1       2.067   7.477  19.867  0.00  0.00    +0.000 A 
ATOM     16  C   UNL     1       2.640   7.464  18.601  0.00  0.00    +0.000 A 
ATOM     17  C   UNL     1       2.378   8.512  17.723  0.00  0.00    +0.000 A 
ATOM     18  C   UNL     1       1.521   9.552  18.107  0.00  0.00    +0.000 A 
BRANCH  16  19
ATOM     19  O   UNL     1       3.466   6.407  18.345  0.00  0.00    +0.000 OA
ATOM     20  C   UNL     1       3.521   5.423  19.370  0.00  0.00    +0.000 C 
ENDBRANCH  16  19
ENDBRANCH   6  13
BRANCH   1  22
ATOM     21  C   UNL     1      -5.265  11.686  17.615  0.00  0.00    +0.000 C 
ATOM     22  O   UNL     1      -4.360  11.342  16.563  0.00  0.00    +0.000 OA
ENDBRANCH   1  22
BRANCH   9  23
ATOM     23  C   UNL     1      -0.941  13.051  22.491  0.00  0.00    +0.000 C 
ATOM     24  N   UNL     1      -0.912  13.689  23.579  0.00  0.00    +0.000 NA
ENDBRANCH   9  23
TORSDOF 4
ENDMDL
MODEL 5
REMARK VINA RESULT:      -7.0      1.965      6.049
REMARK  Name = 
REMARK  7 active torsions:
REMARK  status: ('A' for Active; 'I' for Inactive)
REMARK    1  A    between atoms: C_1  and  O_2
REMARK    2  A    between atoms: O_2  and  C_3
REMARK    3  A    between atoms: N_8  and  C_9
REMARK    4  A    between atoms: C_12  and  O_13
REMARK    5  A    between atoms: O_13  and  C_14
REMARK    6  A    between atoms: C_19  and  C_20
REMARK    7  A    between atoms: C_22  and  C_23
REMARK                            x       y       z     vdW  Elec       q    Type
REMARK                         _______ _______ _______ _____ _____    ______ ____
ROOT
ATOM      1  C   UNL     1       1.882   8.922  18.085  0.00  0.00    +0.000 C 
ATOM      2  O   UNL     1       2.849   9.212  17.402  0.00  0.00    +0.000 OA
ATOM      3  N   UNL     1       1.770   7.893  18.989  0.00  0.00    +0.000 N 
ATOM      4  C   UNL     1       2.551   6.759  19.024  0.00  0.00    +0.000 A 
ATOM      5  N   UNL     1       3.506   6.622  18.169  0.00  0.00    +0.000 NA
ATOM      6  N   UNL     1       4.264   5.473  18.167  0.00  0.00    +0.000 N 
ATOM      7  C   UNL     1       4.112   4.469  19.120  0.00  0.00    +0.000 A 
ATOM      8  O   UNL     1       4.802   3.459  19.247  0.00  0.00    +0.000 OA
ATOM      9  C   UNL     1       3.002   4.678  20.065  0.00  0.00    +0.000 A 
ATOM     10  C   UNL     1       2.200   5.757  20.057  0.00  0.00    +0.000 A 
ATOM     11  C   UNL     1       1.040   5.967  20.988  0.00  0.00    +0.000 C 
ATOM     12  H   UNL     1       0.929   7.962  19.536  0.00  0.00    +0.000 HD
ENDROOT
BRANCH   6  13
ATOM     13  C   UNL     1       5.181   5.391  17.071  0.00  0.00    +0.000 A 
ATOM     14  C   UNL     1       6.443   5.996  17.113  0.00  0.00    +0.000 A 
ATOM     15  C   UNL     1       7.334   5.879  16.044  0.00  0.00    +0.000 A 
ATOM     16  C   UNL     1       6.990   5.146  14.914  0.00  0.00    +0.000 A 
ATOM     17  C   UNL     1       5.735   4.548  14.845  0.00  0.00    +0.000 A 
ATOM     18  C   UNL     1       4.843   4.662  15.920  0.00  0.00    +0.000 A 
BRANCH  16  19
ATOM     19  O   UNL     1       7.935   5.115  13.928  0.00  0.00    +0.000 OA
ATOM     20  C   UNL     1       7.445   4.790  12.634  0.00  0.00    +0.000 C 
ENDBRANCH  16  19
ENDBRANCH   6  13
BRANCH   1  22
ATOM     21  C   UNL     1       0.319  10.015  19.433  0.00  0.00    +0.000 C 
ATOM     22  O   UNL     1       0.726   9.644  18.113  0.00  0.00    +0.000 OA
ENDBRANCH   1  22
BRANCH   9  23
ATOM     23  C   UNL     1       2.765   3.586  21.094  0.00  0.00    +0.000 C 
ATOM     24  N   UNL     1       2.569   2.680  21.949  0.00  0.00    +0.000 NA
ENDBRANCH   9  23
TORSDOF 4
ENDMDL
MODEL 6
REMARK VINA RESULT:      -6.8      4.222      8.387
REMARK  Name = 
REMARK  7 active torsions:
REMARK  status: ('A' for Active; 'I' for Inactive)
REMARK    1  A    between atoms: C_1  and  O_2
REMARK    2  A    between atoms: O_2  and  C_3
REMARK    3  A    between atoms: N_8  and  C_9
REMARK    4  A    between atoms: C_12  and  O_13
REMARK    5  A    between atoms: O_13  and  C_14
REMARK    6  A    between atoms: C_19  and  C_20
REMARK    7  A    between atoms: C_22  and  C_23
REMARK                            x       y       z     vdW  Elec       q    Type
REMARK                         _______ _______ _______ _____ _____    ______ ____
ROOT
ATOM      1  C   UNL     1      -3.158  11.172  16.992  0.00  0.00    +0.000 C 
ATOM      2  O   UNL     1      -2.320  10.566  16.349  0.00  0.00    +0.000 OA
ATOM      3  N   UNL     1      -2.975  11.872  18.161  0.00  0.00    +0.000 N 
ATOM      4  C   UNL     1      -1.934  11.707  19.047  0.00  0.00    +0.000 A 
ATOM      5  N   UNL     1      -1.006  10.853  18.781  0.00  0.00    +0.000 NA
ATOM      6  N   UNL     1       0.015  10.649  19.681  0.00  0.00    +0.000 N 
ATOM      7  C   UNL     1       0.155  11.400  20.845  0.00  0.00    +0.000 A 
ATOM      8  O   UNL     1       1.081  11.348  21.653  0.00  0.00    +0.000 OA
ATOM      9  C   UNL     1      -0.938  12.356  21.097  0.00  0.00    +0.000 A 
ATOM     10  C   UNL     1      -1.985  12.536  20.274  0.00  0.00    +0.000 A 
ATOM     11  C   UNL     1      -3.126  13.476  20.536  0.00  0.00    +0.000 C 
ATOM     12  H   UNL     1      -3.786  12.413  18.407  0.00  0.00    +0.000 HD
ENDROOT
BRANCH   6  13
ATOM     13  C   UNL     1       0.884   9.567  19.329  0.00  0.00    +0.000 A 
ATOM     14  C   UNL     1       1.472   9.469  18.062  0.00  0.00    +0.000 A 
ATOM     15  C   UNL     1       2.340   8.421  17.750  0.00  0.00    +0.000 A 
ATOM     16  C   UNL     1       2.649   7.453  18.698  0.00  0.00    +0.000 A 
ATOM     17  C   UNL     1       2.066   7.523  19.960  0.00  0.00    +0.000 A 
ATOM     18  C   UNL     1       1.199   8.577  20.274  0.00  0.00    +0.000 A 
BRANCH  16  19
ATOM     19  O   UNL     1       3.496   6.469  18.273  0.00  0.00    +0.000 OA
ATOM     20  C   UNL     1       2.865   5.251  17.899  0.00  0.00    +0.000 C 
ENDBRANCH  16  19
ENDBRANCH   6  13
BRANCH   1  22
ATOM     21  C   UNL     1      -5.295  11.873  17.621  0.00  0.00    +0.000 C 
ATOM     22  O   UNL     1      -4.457  11.320  16.604  0.00  0.00    +0.000 OA
ENDBRANCH   1  22
BRANCH   9  23
ATOM     23  C   UNL     1      -0.855  13.164  22.381  0.00  0.00    +0.000 C 
ATOM     24  N   UNL     1      -0.788  13.836  23.446  0.00  0.00    +0.000 NA
ENDBRANCH   9  23
TORSDOF 4
ENDMDL
MODEL 7
REMARK VINA RESULT:      -6.5      2.200      6.357
REMARK  Name = 
REMARK  7 active torsions:
REMARK  status: ('A' for Active; 'I' for Inactive)
REMARK    1  A    between atoms: C_1  and  O_2
REMARK    2  A    between atoms: O_2  and  C_3
REMARK    3  A    between atoms: N_8  and  C_9
REMARK    4  A    between atoms: C_12  and  O_13
REMARK    5  A    between atoms: O_13  and  C_14
REMARK    6  A    between atoms: C_19  and  C_20
REMARK    7  A    between atoms: C_22  and  C_23
REMARK                            x       y       z     vdW  Elec       q    Type
REMARK                         _______ _______ _______ _____ _____    ______ ____
ROOT
ATOM      1  C   UNL     1       3.001   3.174  20.649  0.00  0.00    +0.000 C 
ATOM      2  O   UNL     1       3.562   2.612  19.726  0.00  0.00    +0.000 OA
ATOM      3  N   UNL     1       2.409   4.414  20.643  0.00  0.00    +0.000 N 
ATOM      4  C   UNL     1       2.667   5.428  19.747  0.00  0.00    +0.000 A 
ATOM      5  N   UNL     1       3.510   5.230  18.792  0.00  0.00    +0.000 NA
ATOM      6  N   UNL     1       3.807   6.251  17.918  0.00  0.00    +0.000 N 
ATOM      7  C   UNL     1       3.163   7.484  17.953  0.00  0.00    +0.000 A 
ATOM      8  O   UNL     1       3.300   8.414  17.160  0.00  0.00    +0.000 OA
ATOM      9  C   UNL     1       2.216   7.654  19.070  0.00  0.00    +0.000 A 
ATOM     10  C   UNL     1       1.948   6.703  19.980  0.00  0.00    +0.000 A 
ATOM     11  C   UNL     1       1.016   6.873  21.146  0.00  0.00    +0.000 C 
ATOM     12  H   UNL     1       1.880   4.583  21.480  0.00  0.00    +0.000 HD
ENDROOT
BRANCH   6  13
ATOM     13  C   UNL     1       4.868   5.938  17.009  0.00  0.00    +0.000 A 
ATOM     14  C   UNL     1       6.129   6.540  17.104  0.00  0.00    +0.000 A 
ATOM     15  C   UNL     1       7.158   6.198  16.224  0.00  0.00    +0.000 A 
ATOM     16  C   UNL     1       6.955   5.240  15.237  0.00  0.00    +0.000 A 
ATOM     17  C   UNL     1       5.705   4.639  15.116  0.00  0.00    +0.000 A 
ATOM     18  C   UNL     1       4.675   4.979  16.001  0.00  0.00    +0.000 A 
BRANCH  16  19
ATOM     19  O   UNL     1       8.029   5.001  14.427  0.00  0.00    +0.000 OA
ATOM     20  C   UNL     1       7.787   5.181  13.038  0.00  0.00    +0.000 C 
ENDBRANCH  16  19
ENDBRANCH   6  13
BRANCH   1  22
ATOM     21  C   UNL     1       1.419   2.418  22.193  0.00  0.00    +0.000 C 
ATOM     22  O   UNL     1       2.800   2.610  21.874  0.00  0.00    +0.000 OA
ENDBRANCH   1  22
BRANCH   9  23
ATOM     23  C   UNL     1       1.524   9.002  19.179  0.00  0.00    +0.000 C 
ATOM     24  N   UNL     1       0.949  10.121  19.272  0.00  0.00    +0.000 NA
ENDBRANCH   9  23
TORSDOF 4
ENDMDL
MODEL 8
REMARK VINA RESULT:      -6.4      2.191      6.431
REMARK  Name = 
REMARK  7 active torsions:
REMARK  status: ('A' for Active; 'I' for Inactive)
REMARK    1  A    between atoms: C_1  and  O_2
REMARK    2  A    between atoms: O_2  and  C_3
REMARK    3  A    between atoms: N_8  and  C_9
REMARK    4  A    between atoms: C_12  and  O_13
REMARK    5  A    between atoms: O_13  and  C_14
REMARK    6  A    between atoms: C_19  and  C_20
REMARK    7  A    between atoms: C_22  and  C_23
REMARK                            x       y       z     vdW  Elec       q    Type
REMARK                         _______ _______ _______ _____ _____    ______ ____
ROOT
ATOM      1  C   UNL     1       2.904   3.172  20.752  0.00  0.00    +0.000 C 
ATOM      2  O   UNL     1       3.453   2.564  19.850  0.00  0.00    +0.000 OA
ATOM      3  N   UNL     1       2.349   4.428  20.703  0.00  0.00    +0.000 N 
ATOM      4  C   UNL     1       2.641   5.405  19.777  0.00  0.00    +0.000 A 
ATOM      5  N   UNL     1       3.481   5.152  18.833  0.00  0.00    +0.000 NA
ATOM      6  N   UNL     1       3.812   6.135  17.929  0.00  0.00    +0.000 N 
ATOM      7  C   UNL     1       3.204   7.387  17.921  0.00  0.00    +0.000 A 
ATOM      8  O   UNL     1       3.372   8.287  17.099  0.00  0.00    +0.000 OA
ATOM      9  C   UNL     1       2.258   7.620  19.026  0.00  0.00    +0.000 A 
ATOM     10  C   UNL     1       1.958   6.707  19.966  0.00  0.00    +0.000 A 
ATOM     11  C   UNL     1       1.027   6.941  21.120  0.00  0.00    +0.000 C 
ATOM     12  H   UNL     1       1.821   4.639  21.532  0.00  0.00    +0.000 HD
ENDROOT
BRANCH   6  13
ATOM     13  C   UNL     1       4.867   5.762  17.035  0.00  0.00    +0.000 A 
ATOM     14  C   UNL     1       4.669   4.848  15.994  0.00  0.00    +0.000 A 
ATOM     15  C   UNL     1       5.705   4.521  15.116  0.00  0.00    +0.000 A 
ATOM     16  C   UNL     1       6.958   5.108  15.251  0.00  0.00    +0.000 A 
ATOM     17  C   UNL     1       7.180   6.010  16.288  0.00  0.00    +0.000 A 
ATOM     18  C   UNL     1       6.140   6.340  17.166  0.00  0.00    +0.000 A 
BRANCH  16  19
ATOM     19  O   UNL     1       7.894   4.700  14.344  0.00  0.00    +0.000 OA
ATOM     20  C   UNL     1       7.772   5.278  13.051  0.00  0.00    +0.000 C 
ENDBRANCH  16  19
ENDBRANCH   6  13
BRANCH   1  22
ATOM     21  C   UNL     1       1.300   2.410  22.269  0.00  0.00    +0.000 C 
ATOM     22  O   UNL     1       2.682   2.654  21.993  0.00  0.00    +0.000 OA
ENDBRANCH   1  22
BRANCH   9  23
ATOM     23  C   UNL     1       1.605   8.990  19.089  0.00  0.00    +0.000 C 
ATOM     24  N   UNL     1       1.063  10.128  19.140  0.00  0.00    +0.000 NA
ENDBRANCH   9  23
TORSDOF 4
ENDMDL
MODEL 9
REMARK VINA RESULT:      -6.2      1.873      4.315
REMARK  Name = 
REMARK  7 active torsions:
REMARK  status: ('A' for Active; 'I' for Inactive)
REMARK    1  A    between atoms: C_1  and  O_2
REMARK    2  A    between atoms: O_2  and  C_3
REMARK    3  A    between atoms: N_8  and  C_9
REMARK    4  A    between atoms: C_12  and  O_13
REMARK    5  A    between atoms: O_13  and  C_14
REMARK    6  A    between atoms: C_19  and  C_20
REMARK    7  A    between atoms: C_22  and  C_23
REMARK                            x       y       z     vdW  Elec       q    Type
REMARK                         _______ _______ _______ _____ _____    ______ ____
ROOT
ATOM      1  C   UNL     1       1.774   3.504  20.407  0.00  0.00    +0.000 C 
ATOM      2  O   UNL     1       1.358   4.362  21.164  0.00  0.00    +0.000 OA
ATOM      3  N   UNL     1       2.685   3.652  19.388  0.00  0.00    +0.000 N 
ATOM      4  C   UNL     1       3.006   4.833  18.757  0.00  0.00    +0.000 A 
ATOM      5  N   UNL     1       2.451   5.929  19.145  0.00  0.00    +0.000 NA
ATOM      6  N   UNL     1       2.733   7.108  18.493  0.00  0.00    +0.000 N 
ATOM      7  C   UNL     1       3.677   7.199  17.474  0.00  0.00    +0.000 A 
ATOM      8  O   UNL     1       4.055   8.220  16.903  0.00  0.00    +0.000 OA
ATOM      9  C   UNL     1       4.273   5.913  17.070  0.00  0.00    +0.000 A 
ATOM     10  C   UNL     1       3.974   4.733  17.640  0.00  0.00    +0.000 A 
ATOM     11  C   UNL     1       4.543   3.409  17.214  0.00  0.00    +0.000 C 
ATOM     12  H   UNL     1       2.979   2.766  19.014  0.00  0.00    +0.000 HD
ENDROOT
BRANCH   6  13
ATOM     13  C   UNL     1       1.932   8.212  18.929  0.00  0.00    +0.000 A 
ATOM     14  C   UNL     1       1.448   9.176  18.037  0.00  0.00    +0.000 A 
ATOM     15  C   UNL     1       0.644  10.229  18.480  0.00  0.00    +0.000 A 
ATOM     16  C   UNL     1       0.296  10.336  19.821  0.00  0.00    +0.000 A 
ATOM     17  C   UNL     1       0.778   9.396  20.728  0.00  0.00    +0.000 A 
ATOM     18  C   UNL     1       1.580   8.338  20.283  0.00  0.00    +0.000 A 
BRANCH  16  19
ATOM     19  O   UNL     1      -0.481  11.414  20.138  0.00  0.00    +0.000 OA
ATOM     20  C   UNL     1      -1.174  11.999  19.043  0.00  0.00    +0.000 C 
ENDBRANCH  16  19
ENDBRANCH   6  13
BRANCH   1  22
ATOM     21  C   UNL     1       1.543   1.488  19.249  0.00  0.00    +0.000 C 
ATOM     22  O   UNL     1       1.441   2.184  20.494  0.00  0.00    +0.000 OA
ENDBRANCH   1  22
BRANCH   9  23
ATOM     23  C   UNL     1       5.273   5.953  15.927  0.00  0.00    +0.000 C 
ATOM     24  N   UNL     1       6.105   5.986  14.980  0.00  0.00    +0.000 NA
ENDBRANCH   9  23
TORSDOF 4
ENDMDL
