MODEL 1
REMARK VINA RESULT:      -8.4      0.000      0.000
REMARK  Name = 
REMARK  11 active torsions:
REMARK  status: ('A' for Active; 'I' for Inactive)
REMARK    1  A    between atoms: C_1  and  C_2
REMARK    2  A    between atoms: C_2  and  C_3
REMARK    3  A    between atoms: C_3  and  N_4
REMARK    4  A    between atoms: C_3  and  C_21
REMARK    5  A    between atoms: N_4  and  C_5
REMARK    6  A    between atoms: C_7  and  C_8
REMARK    7  A    between atoms: C_10  and  C_11
REMARK    8  A    between atoms: C_11  and  N_12
REMARK    9  A    between atoms: C_15  and  C_16
REMARK   10  A    between atoms: C_16  and  O_18
REMARK   11  A    between atoms: C_26  and  C_27
REMARK                            x       y       z     vdW  Elec       q    Type
REMARK                         _______ _______ _______ _____ _____    ______ ____
ROOT
ATOM      1  C   UNL     1       2.191   5.754  20.188  0.00  0.00    +0.000 A 
ATOM      2  C   UNL     1       1.427   4.633  19.860  0.00  0.00    +0.000 A 
ATOM      3  C   UNL     1       2.027   3.476  19.346  0.00  0.00    +0.000 A 
ATOM      4  C   UNL     1       1.204   2.249  19.081  0.00  0.00    +0.000 C 
ATOM      5  C   UNL     1       3.408   3.468  19.108  0.00  0.00    +0.000 A 
ATOM      6  C   UNL     1       4.178   4.621  19.318  0.00  0.00    +0.000 A 
ATOM      7  C   UNL     1       3.543   5.765  19.819  0.00  0.00    +0.000 A 
ENDROOT
BRANCH   1   8
ATOM      8  N   UNL     1       1.662   6.880  20.822  0.00  0.00    +0.000 N 
ATOM      9  H   UNL     1       0.701   6.716  21.114  0.00  0.00    +0.000 HD
BRANCH   8  10
ATOM     10  C   UNL     1       1.803   8.225  20.224  0.00  0.00    +0.000 C 
BRANCH  10  11
ATOM     11  C   UNL     1       0.947   9.215  21.034  0.00  0.00    +0.000 A 
ATOM     12  C   UNL     1       0.505   8.891  22.325  0.00  0.00    +0.000 A 
ATOM     13  C   UNL     1      -0.401   9.706  23.000  0.00  0.00    +0.000 A 
ATOM     14  C   UNL     1      -0.844  10.895  22.424  0.00  0.00    +0.000 A 
ATOM     15 CL   UNL     1      -2.050  11.791  23.278  0.00  0.00    +0.000 Cl
ATOM     16  C   UNL     1      -0.328  11.319  21.197  0.00  0.00    +0.000 A 
ATOM     17  C   UNL     1      -0.650  12.646  20.566  0.00  0.00    +0.000 C 
ATOM     18  C   UNL     1       0.578  10.471  20.519  0.00  0.00    +0.000 A 
ENDBRANCH  10  11
BRANCH  10  20
ATOM     19  C   UNL     1       2.559   8.581  17.768  0.00  0.00    +0.000 C 
ATOM     20  C   UNL     1       1.430   8.188  18.715  0.00  0.00    +0.000 C 
ENDBRANCH  10  20
ENDBRANCH   8  10
ENDBRANCH   1   8
BRANCH   6  21
ATOM     21  C   UNL     1       5.656   4.639  18.995  0.00  0.00    +0.000 C 
BRANCH  21  22
ATOM     22  N   UNL     1       6.084   5.266  17.742  0.00  0.00    +0.000 NA
ATOM     23  C   UNL     1       5.026   5.777  16.877  0.00  0.00    +0.000 C 
ATOM     24  C   UNL     1       4.829   4.712  15.813  0.00  0.00    +0.000 C 
ATOM     25  C   UNL     1       6.199   4.057  15.665  0.00  0.00    +0.000 C 
ATOM     26  C   UNL     1       6.999   4.500  16.893  0.00  0.00    +0.000 C 
BRANCH  25  27
ATOM     27  C   UNL     1       6.860   4.432  14.353  0.00  0.00    +0.000 C 
ATOM     28  O   UNL     1       7.636   5.357  14.180  0.00  0.00    +0.000 OA
BRANCH  27  29
ATOM     29  O   UNL     1       6.536   3.583  13.345  0.00  0.00    +0.000 OA
ATOM     30  H   UNL     1       7.092   3.679  12.548  0.00  0.00    +0.000 HD
ENDBRANCH  27  29
ENDBRANCH  25  27
ENDBRANCH  21  22
ENDBRANCH   6  21
TORSDOF 8
ENDMDL
MODEL 2
REMARK VINA RESULT:      -8.0      0.659      1.112
REMARK  Name = 
REMARK  11 active torsions:
REMARK  status: ('A' for Active; 'I' for Inactive)
REMARK    1  A    between atoms: C_1  and  C_2
REMARK    2  A    between atoms: C_2  and  C_3
REMARK    3  A    between atoms: C_3  and  N_4
REMARK    4  A    between atoms: C_3  and  C_21
REMARK    5  A    between atoms: N_4  and  C_5
REMARK    6  A    between atoms: C_7  and  C_8
REMARK    7  A    between atoms: C_10  and  C_11
REMARK    8  A    between atoms: C_11  and  N_12
REMARK    9  A    between atoms: C_15  and  C_16
REMARK   10  A    between atoms: C_16  and  O_18
REMARK   11  A    between atoms: C_26  and  C_27
REMARK                            x       y       z     vdW  Elec       q    Type
REMARK                         _______ _______ _______ _____ _____    ______ ____
ROOT
ATOM      1  C   UNL     1       2.156   5.664  20.116  0.00  0.00    +0.000 A 
ATOM      2  C   UNL     1       1.426   4.549  19.701  0.00  0.00    +0.000 A 
ATOM      3  C   UNL     1       2.071   3.396  19.237  0.00  0.00    +0.000 A 
ATOM      4  C   UNL     1       1.275   2.176  18.877  0.00  0.00    +0.000 C 
ATOM      5  C   UNL     1       3.468   3.385  19.139  0.00  0.00    +0.000 A 
ATOM      6  C   UNL     1       4.217   4.533  19.438  0.00  0.00    +0.000 A 
ATOM      7  C   UNL     1       3.538   5.674  19.885  0.00  0.00    +0.000 A 
ENDROOT
BRANCH   1   8
ATOM      8  N   UNL     1       1.570   6.785  20.706  0.00  0.00    +0.000 N 
ATOM      9  H   UNL     1       0.580   6.627  20.885  0.00  0.00    +0.000 HD
BRANCH   8  10
ATOM     10  C   UNL     1       1.788   8.138  20.152  0.00  0.00    +0.000 C 
BRANCH  10  11
ATOM     11  C   UNL     1       0.919   9.138  20.935  0.00  0.00    +0.000 A 
ATOM     12  C   UNL     1       0.794   9.040  22.329  0.00  0.00    +0.000 A 
ATOM     13  C   UNL     1      -0.114   9.834  23.026  0.00  0.00    +0.000 A 
ATOM     14  C   UNL     1      -0.878  10.786  22.355  0.00  0.00    +0.000 A 
ATOM     15 CL   UNL     1      -2.058  11.651  23.275  0.00  0.00    +0.000 Cl
ATOM     16  C   UNL     1      -0.689  11.006  20.989  0.00  0.00    +0.000 A 
ATOM     17  C   UNL     1      -1.373  12.098  20.213  0.00  0.00    +0.000 C 
ATOM     18  C   UNL     1       0.225  10.180  20.294  0.00  0.00    +0.000 A 
ENDBRANCH  10  11
BRANCH  10  20
ATOM     19  C   UNL     1       2.719   8.437  17.748  0.00  0.00    +0.000 C 
ATOM     20  C   UNL     1       1.503   8.149  18.622  0.00  0.00    +0.000 C 
ENDBRANCH  10  20
ENDBRANCH   8  10
ENDBRANCH   1   8
BRANCH   6  21
ATOM     21  C   UNL     1       5.721   4.548  19.266  0.00  0.00    +0.000 C 
BRANCH  21  22
ATOM     22  N   UNL     1       6.276   4.089  17.990  0.00  0.00    +0.000 NA
ATOM     23  C   UNL     1       7.556   4.664  17.594  0.00  0.00    +0.000 C 
ATOM     24  C   UNL     1       7.215   5.756  16.596  0.00  0.00    +0.000 C 
ATOM     25  C   UNL     1       5.930   5.277  15.927  0.00  0.00    +0.000 C 
ATOM     26  C   UNL     1       5.398   4.154  16.820  0.00  0.00    +0.000 C 
BRANCH  25  27
ATOM     27  C   UNL     1       6.173   4.839  14.496  0.00  0.00    +0.000 C 
ATOM     28  O   UNL     1       5.411   4.180  13.809  0.00  0.00    +0.000 OA
BRANCH  27  29
ATOM     29  O   UNL     1       7.350   5.302  14.002  0.00  0.00    +0.000 OA
ATOM     30  H   UNL     1       8.009   5.525  14.686  0.00  0.00    +0.000 HD
ENDBRANCH  27  29
ENDBRANCH  25  27
ENDBRANCH  21  22
ENDBRANCH   6  21
TORSDOF 8
ENDMDL
MODEL 3
REMARK VINA RESULT:      -7.9      2.155      3.276
REMARK  Name = 
REMARK  11 active torsions:
REMARK  status: ('A' for Active; 'I' for Inactive)
REMARK    1  A    between atoms: C_1  and  C_2
REMARK    2  A    between atoms: C_2  and  C_3
REMARK    3  A    between atoms: C_3  and  N_4
REMARK    4  A    between atoms: C_3  and  C_21
REMARK    5  A    between atoms: N_4  and  C_5
REMARK    6  A    between atoms: C_7  and  C_8
REMARK    7  A    between atoms: C_10  and  C_11
REMARK    8  A    between atoms: C_11  and  N_12
REMARK    9  A    between atoms: C_15  and  C_16
REMARK   10  A    between atoms: C_16  and  O_18
REMARK   11  A    between atoms: C_26  and  C_27
REMARK                            x       y       z     vdW  Elec       q    Type
REMARK                         _______ _______ _______ _____ _____    ______ ____
ROOT
ATOM      1  C   UNL     1       1.799   7.233  20.574  0.00  0.00    +0.000 A 
ATOM      2  C   UNL     1       1.449   5.906  20.832  0.00  0.00    +0.000 A 
ATOM      3  C   UNL     1       1.814   4.879  19.953  0.00  0.00    +0.000 A 
ATOM      4  C   UNL     1       1.506   3.449  20.289  0.00  0.00    +0.000 C 
ATOM      5  C   UNL     1       2.494   5.199  18.770  0.00  0.00    +0.000 A 
ATOM      6  C   UNL     1       2.753   6.534  18.431  0.00  0.00    +0.000 A 
ATOM      7  C   UNL     1       2.361   7.538  19.326  0.00  0.00    +0.000 A 
ENDROOT
BRANCH   1   8
ATOM      8  N   UNL     1       1.575   8.272  21.477  0.00  0.00    +0.000 N 
ATOM      9  H   UNL     1       1.935   8.038  22.400  0.00  0.00    +0.000 HD
BRANCH   8  10
ATOM     10  C   UNL     1       0.246   8.912  21.585  0.00  0.00    +0.000 C 
BRANCH  10  11
ATOM     11  C   UNL     1       0.194  10.107  20.616  0.00  0.00    +0.000 A 
ATOM     12  C   UNL     1       1.096  11.173  20.745  0.00  0.00    +0.000 A 
ATOM     13  C   UNL     1       0.955  12.330  19.982  0.00  0.00    +0.000 A 
ATOM     14  C   UNL     1      -0.057  12.426  19.028  0.00  0.00    +0.000 A 
ATOM     15 CL   UNL     1      -0.230  13.934  18.203  0.00  0.00    +0.000 Cl
ATOM     16  C   UNL     1      -0.893  11.336  18.777  0.00  0.00    +0.000 A 
ATOM     17  C   UNL     1      -1.923  11.306  17.681  0.00  0.00    +0.000 C 
ATOM     18  C   UNL     1      -0.747  10.176  19.573  0.00  0.00    +0.000 A 
ENDBRANCH  10  11
BRANCH  10  20
ATOM     19  C   UNL     1      -1.032  10.462  23.229  0.00  0.00    +0.000 C 
ATOM     20  C   UNL     1      -0.046   9.309  23.060  0.00  0.00    +0.000 C 
ENDBRANCH  10  20
ENDBRANCH   8  10
ENDBRANCH   1   8
BRANCH   6  21
ATOM     21  C   UNL     1       3.424   6.889  17.122  0.00  0.00    +0.000 C 
BRANCH  21  22
ATOM     22  N   UNL     1       4.887   6.840  17.058  0.00  0.00    +0.000 NA
ATOM     23  C   UNL     1       5.466   6.157  15.907  0.00  0.00    +0.000 C 
ATOM     24  C   UNL     1       5.839   4.773  16.407  0.00  0.00    +0.000 C 
ATOM     25  C   UNL     1       6.156   4.971  17.886  0.00  0.00    +0.000 C 
ATOM     26  C   UNL     1       5.589   6.346  18.246  0.00  0.00    +0.000 C 
BRANCH  25  27
ATOM     27  C   UNL     1       7.641   4.845  18.163  0.00  0.00    +0.000 C 
ATOM     28  O   UNL     1       8.397   4.030  17.660  0.00  0.00    +0.000 OA
BRANCH  27  29
ATOM     29  O   UNL     1       8.092   5.789  19.028  0.00  0.00    +0.000 OA
ATOM     30  H   UNL     1       8.361   6.625  18.601  0.00  0.00    +0.000 HD
ENDBRANCH  27  29
ENDBRANCH  25  27
ENDBRANCH  21  22
ENDBRANCH   6  21
TORSDOF 8
ENDMDL
MODEL 4
REMARK VINA RESULT:      -7.8      2.183      3.226
REMARK  Name = 
REMARK  11 active torsions:
REMARK  status: ('A' for Active; 'I' for Inactive)
REMARK    1  A    between atoms: C_1  and  C_2
REMARK    2  A    between atoms: C_2  and  C_3
REMARK    3  A    between atoms: C_3  and  N_4
REMARK    4  A    between atoms: C_3  and  C_21
REMARK    5  A    between atoms: N_4  and  C_5
REMARK    6  A    between atoms: C_7  and  C_8
REMARK    7  A    between atoms: C_10  and  C_11
REMARK    8  A    between atoms: C_11  and  N_12
REMARK    9  A    between atoms: C_15  and  C_16
REMARK   10  A    between atoms: C_16  and  O_18
REMARK   11  A    between atoms: C_26  and  C_27
REMARK                            x       y       z     vdW  Elec       q    Type
REMARK                         _______ _______ _______ _____ _____    ______ ____
ROOT
ATOM      1  C   UNL     1       2.080   6.581  20.102  0.00  0.00    +0.000 A 
ATOM      2  C   UNL     1       1.590   5.546  20.901  0.00  0.00    +0.000 A 
ATOM      3  C   UNL     1       1.761   4.206  20.532  0.00  0.00    +0.000 A 
ATOM      4  C   UNL     1       1.306   3.105  21.444  0.00  0.00    +0.000 C 
ATOM      5  C   UNL     1       2.386   3.905  19.315  0.00  0.00    +0.000 A 
ATOM      6  C   UNL     1       2.781   4.927  18.439  0.00  0.00    +0.000 A 
ATOM      7  C   UNL     1       2.582   6.256  18.834  0.00  0.00    +0.000 A 
ENDROOT
BRANCH   1   8
ATOM      8  N   UNL     1       2.051   7.922  20.486  0.00  0.00    +0.000 N 
ATOM      9  H   UNL     1       2.823   8.138  21.113  0.00  0.00    +0.000 HD
BRANCH   8  10
ATOM     10  C   UNL     1       0.801   8.549  20.963  0.00  0.00    +0.000 C 
BRANCH  10  11
ATOM     11  C   UNL     1       0.527   9.808  20.120  0.00  0.00    +0.000 A 
ATOM     12  C   UNL     1       1.358  10.933  20.222  0.00  0.00    +0.000 A 
ATOM     13  C   UNL     1       1.028  12.130  19.590  0.00  0.00    +0.000 A 
ATOM     14  C   UNL     1      -0.111  12.214  18.792  0.00  0.00    +0.000 A 
ATOM     15 CL   UNL     1      -0.508  13.762  18.134  0.00  0.00    +0.000 Cl
ATOM     16  C   UNL     1      -0.893  11.081  18.559  0.00  0.00    +0.000 A 
ATOM     17  C   UNL     1      -2.061  11.049  17.611  0.00  0.00    +0.000 C 
ATOM     18  C   UNL     1      -0.553   9.879  19.222  0.00  0.00    +0.000 A 
ENDBRANCH  10  11
BRANCH  10  20
ATOM     19  C   UNL     1      -0.351   9.498  23.087  0.00  0.00    +0.000 C 
ATOM     20  C   UNL     1       0.891   8.845  22.488  0.00  0.00    +0.000 C 
ENDBRANCH  10  20
ENDBRANCH   8  10
ENDBRANCH   1   8
BRANCH   6  21
ATOM     21  C   UNL     1       3.393   4.606  17.093  0.00  0.00    +0.000 C 
BRANCH  21  22
ATOM     22  N   UNL     1       4.845   4.734  16.944  0.00  0.00    +0.000 NA
ATOM     23  C   UNL     1       5.660   4.161  18.008  0.00  0.00    +0.000 C 
ATOM     24  C   UNL     1       6.048   5.332  18.892  0.00  0.00    +0.000 C 
ATOM     25  C   UNL     1       6.094   6.529  17.948  0.00  0.00    +0.000 C 
ATOM     26  C   UNL     1       5.370   6.075  16.678  0.00  0.00    +0.000 C 
BRANCH  25  27
ATOM     27  C   UNL     1       7.515   6.990  17.695  0.00  0.00    +0.000 C 
ATOM     28  O   UNL     1       7.973   7.345  16.621  0.00  0.00    +0.000 OA
BRANCH  27  29
ATOM     29  O   UNL     1       8.264   7.017  18.827  0.00  0.00    +0.000 OA
ATOM     30  H   UNL     1       7.741   7.012  19.651  0.00  0.00    +0.000 HD
ENDBRANCH  27  29
ENDBRANCH  25  27
ENDBRANCH  21  22
ENDBRANCH   6  21
TORSDOF 8
ENDMDL
MODEL 5
REMARK VINA RESULT:      -7.8      0.746      1.374
REMARK  Name = 
REMARK  11 active torsions:
REMARK  status: ('A' for Active; 'I' for Inactive)
REMARK    1  A    between atoms: C_1  and  C_2
REMARK    2  A    between atoms: C_2  and  C_3
REMARK    3  A    between atoms: C_3  and  N_4
REMARK    4  A    between atoms: C_3  and  C_21
REMARK    5  A    between atoms: N_4  and  C_5
REMARK    6  A    between atoms: C_7  and  C_8
REMARK    7  A    between atoms: C_10  and  C_11
REMARK    8  A    between atoms: C_11  and  N_12
REMARK    9  A    between atoms: C_15  and  C_16
REMARK   10  A    between atoms: C_16  and  O_18
REMARK   11  A    between atoms: C_26  and  C_27
REMARK                            x       y       z     vdW  Elec       q    Type
REMARK                         _______ _______ _______ _____ _____    ______ ____
ROOT
ATOM      1  C   UNL     1       2.439   5.787  19.920  0.00  0.00    +0.000 A 
ATOM      2  C   UNL     1       1.726   4.611  19.678  0.00  0.00    +0.000 A 
ATOM      3  C   UNL     1       2.386   3.423  19.343  0.00  0.00    +0.000 A 
ATOM      4  C   UNL     1       1.612   2.148  19.172  0.00  0.00    +0.000 C 
ATOM      5  C   UNL     1       3.780   3.430  19.197  0.00  0.00    +0.000 A 
ATOM      6  C   UNL     1       4.507   4.624  19.319  0.00  0.00    +0.000 A 
ATOM      7  C   UNL     1       3.813   5.797  19.640  0.00  0.00    +0.000 A 
ENDROOT
BRANCH   1   8
ATOM      8  N   UNL     1       1.843   6.961  20.382  0.00  0.00    +0.000 N 
ATOM      9  H   UNL     1       0.873   6.799  20.644  0.00  0.00    +0.000 HD
BRANCH   8  10
ATOM     10  C   UNL     1       1.973   8.227  19.629  0.00  0.00    +0.000 C 
BRANCH  10  11
ATOM     11  C   UNL     1       0.871   9.194  20.097  0.00  0.00    +0.000 A 
ATOM     12  C   UNL     1       0.229  10.044  19.184  0.00  0.00    +0.000 A 
ATOM     13  C   UNL     1      -0.649  11.034  19.620  0.00  0.00    +0.000 A 
ATOM     14  C   UNL     1      -0.953  11.160  20.974  0.00  0.00    +0.000 A 
ATOM     15 CL   UNL     1      -1.964  12.481  21.442  0.00  0.00    +0.000 Cl
ATOM     16  C   UNL     1      -0.438  10.250  21.899  0.00  0.00    +0.000 A 
ATOM     17  C   UNL     1      -0.815  10.232  23.355  0.00  0.00    +0.000 C 
ATOM     18  C   UNL     1       0.465   9.262  21.442  0.00  0.00    +0.000 A 
ENDBRANCH  10  11
BRANCH  10  20
ATOM     19  C   UNL     1       3.099   8.548  17.313  0.00  0.00    +0.000 C 
ATOM     20  C   UNL     1       1.934   7.953  18.098  0.00  0.00    +0.000 C 
ENDBRANCH  10  20
ENDBRANCH   8  10
ENDBRANCH   1   8
BRANCH   6  21
ATOM     21  C   UNL     1       6.003   4.650  19.092  0.00  0.00    +0.000 C 
BRANCH  21  22
ATOM     22  N   UNL     1       6.504   5.249  17.853  0.00  0.00    +0.000 NA
ATOM     23  C   UNL     1       5.558   6.057  17.092  0.00  0.00    +0.000 C 
ATOM     24  C   UNL     1       5.056   5.151  15.983  0.00  0.00    +0.000 C 
ATOM     25  C   UNL     1       6.218   4.203  15.704  0.00  0.00    +0.000 C 
ATOM     26  C   UNL     1       7.163   4.352  16.900  0.00  0.00    +0.000 C 
BRANCH  25  27
ATOM     27  C   UNL     1       6.883   4.505  14.376  0.00  0.00    +0.000 C 
ATOM     28  O   UNL     1       7.659   5.419  14.154  0.00  0.00    +0.000 OA
BRANCH  27  29
ATOM     29  O   UNL     1       6.560   3.602  13.415  0.00  0.00    +0.000 OA
ATOM     30  H   UNL     1       6.323   4.002  12.556  0.00  0.00    +0.000 HD
ENDBRANCH  27  29
ENDBRANCH  25  27
ENDBRANCH  21  22
ENDBRANCH   6  21
TORSDOF 8
ENDMDL
MODEL 6
REMARK VINA RESULT:      -7.8      3.021      4.545
REMARK  Name = 
REMARK  11 active torsions:
REMARK  status: ('A' for Active; 'I' for Inactive)
REMARK    1  A    between atoms: C_1  and  C_2
REMARK    2  A    between atoms: C_2  and  C_3
REMARK    3  A    between atoms: C_3  and  N_4
REMARK    4  A    between atoms: C_3  and  C_21
REMARK    5  A    between atoms: N_4  and  C_5
REMARK    6  A    between atoms: C_7  and  C_8
REMARK    7  A    between atoms: C_10  and  C_11
REMARK    8  A    between atoms: C_11  and  N_12
REMARK    9  A    between atoms: C_15  and  C_16
REMARK   10  A    between atoms: C_16  and  O_18
REMARK   11  A    between atoms: C_26  and  C_27
REMARK                            x       y       z     vdW  Elec       q    Type
REMARK                         _______ _______ _______ _____ _____    ______ ____
ROOT
ATOM      1  C   UNL     1       1.095   9.879  18.714  0.00  0.00    +0.000 A 
ATOM      2  C   UNL     1       0.797   9.668  20.061  0.00  0.00    +0.000 A 
ATOM      3  C   UNL     1       1.258   8.529  20.733  0.00  0.00    +0.000 A 
ATOM      4  C   UNL     1       1.004   8.360  22.202  0.00  0.00    +0.000 C 
ATOM      5  C   UNL     1       1.983   7.562  20.023  0.00  0.00    +0.000 A 
ATOM      6  C   UNL     1       2.194   7.693  18.643  0.00  0.00    +0.000 A 
ATOM      7  C   UNL     1       1.706   8.839  18.000  0.00  0.00    +0.000 A 
ENDROOT
BRANCH   1   8
ATOM      8  N   UNL     1       0.772  11.055  18.035  0.00  0.00    +0.000 N 
ATOM      9  H   UNL     1       1.579  11.420  17.535  0.00  0.00    +0.000 HD
BRANCH   8  10
ATOM     10  C   UNL     1       0.041  12.148  18.711  0.00  0.00    +0.000 C 
BRANCH  10  11
ATOM     11  C   UNL     1      -1.463  11.984  18.427  0.00  0.00    +0.000 A 
ATOM     12  C   UNL     1      -2.417  12.343  19.390  0.00  0.00    +0.000 A 
ATOM     13  C   UNL     1      -3.767  12.048  19.209  0.00  0.00    +0.000 A 
ATOM     14  C   UNL     1      -4.204  11.440  18.033  0.00  0.00    +0.000 A 
ATOM     15 CL   UNL     1      -5.874  11.010  17.935  0.00  0.00    +0.000 Cl
ATOM     16  C   UNL     1      -3.304  11.187  16.995  0.00  0.00    +0.000 A 
ATOM     17  C   UNL     1      -3.709  10.656  15.647  0.00  0.00    +0.000 C 
ATOM     18  C   UNL     1      -1.936  11.477  17.203  0.00  0.00    +0.000 A 
ENDBRANCH  10  11
BRANCH  10  20
ATOM     19  C   UNL     1       2.098  13.714  18.485  0.00  0.00    +0.000 C 
ATOM     20  C   UNL     1       0.600  13.530  18.267  0.00  0.00    +0.000 C 
ENDBRANCH  10  20
ENDBRANCH   8  10
ENDBRANCH   1   8
BRANCH   6  21
ATOM     21  C   UNL     1       2.914   6.618  17.860  0.00  0.00    +0.000 C 
BRANCH  21  22
ATOM     22  N   UNL     1       4.373   6.700  17.752  0.00  0.00    +0.000 NA
ATOM     23  C   UNL     1       4.914   6.934  16.418  0.00  0.00    +0.000 C 
ATOM     24  C   UNL     1       5.353   5.571  15.917  0.00  0.00    +0.000 C 
ATOM     25  C   UNL     1       5.736   4.802  17.178  0.00  0.00    +0.000 C 
ATOM     26  C   UNL     1       5.147   5.604  18.341  0.00  0.00    +0.000 C 
BRANCH  25  27
ATOM     27  C   UNL     1       7.236   4.610  17.283  0.00  0.00    +0.000 C 
ATOM     28  O   UNL     1       7.873   4.499  18.317  0.00  0.00    +0.000 OA
BRANCH  27  29
ATOM     29  O   UNL     1       7.837   4.523  16.069  0.00  0.00    +0.000 OA
ATOM     30  H   UNL     1       7.434   3.865  15.471  0.00  0.00    +0.000 HD
ENDBRANCH  27  29
ENDBRANCH  25  27
ENDBRANCH  21  22
ENDBRANCH   6  21
TORSDOF 8
ENDMDL
MODEL 7
REMARK VINA RESULT:      -7.7      2.474      4.495
REMARK  Name = 
REMARK  11 active torsions:
REMARK  status: ('A' for Active; 'I' for Inactive)
REMARK    1  A    between atoms: C_1  and  C_2
REMARK    2  A    between atoms: C_2  and  C_3
REMARK    3  A    between atoms: C_3  and  N_4
REMARK    4  A    between atoms: C_3  and  C_21
REMARK    5  A    between atoms: N_4  and  C_5
REMARK    6  A    between atoms: C_7  and  C_8
REMARK    7  A    between atoms: C_10  and  C_11
REMARK    8  A    between atoms: C_11  and  N_12
REMARK    9  A    between atoms: C_15  and  C_16
REMARK   10  A    between atoms: C_16  and  O_18
REMARK   11  A    between atoms: C_26  and  C_27
REMARK                            x       y       z     vdW  Elec       q    Type
REMARK                         _______ _______ _______ _____ _____    ______ ____
ROOT
ATOM      1  C   UNL     1       4.867   4.514  18.335  0.00  0.00    +0.000 A 
ATOM      2  C   UNL     1       5.915   4.884  19.179  0.00  0.00    +0.000 A 
ATOM      3  C   UNL     1       7.053   5.528  18.678  0.00  0.00    +0.000 A 
ATOM      4  C   UNL     1       8.132   5.996  19.610  0.00  0.00    +0.000 C 
ATOM      5  C   UNL     1       7.161   5.754  17.299  0.00  0.00    +0.000 A 
ATOM      6  C   UNL     1       6.176   5.287  16.417  0.00  0.00    +0.000 A 
ATOM      7  C   UNL     1       5.058   4.634  16.952  0.00  0.00    +0.000 A 
ENDROOT
BRANCH   1   8
ATOM      8  N   UNL     1       3.660   3.990  18.800  0.00  0.00    +0.000 N 
ATOM      9  H   UNL     1       3.659   2.974  18.745  0.00  0.00    +0.000 HD
BRANCH   8  10
ATOM     10  C   UNL     1       2.366   4.536  18.339  0.00  0.00    +0.000 C 
BRANCH  10  11
ATOM     11  C   UNL     1       2.162   5.922  18.976  0.00  0.00    +0.000 A 
ATOM     12  C   UNL     1       1.907   6.050  20.349  0.00  0.00    +0.000 A 
ATOM     13  C   UNL     1       1.560   7.279  20.905  0.00  0.00    +0.000 A 
ATOM     14  C   UNL     1       1.516   8.424  20.111  0.00  0.00    +0.000 A 
ATOM     15 CL   UNL     1       0.971   9.885  20.854  0.00  0.00    +0.000 Cl
ATOM     16  C   UNL     1       1.891   8.364  18.767  0.00  0.00    +0.000 A 
ATOM     17  C   UNL     1       1.998   9.569  17.873  0.00  0.00    +0.000 C 
ATOM     18  C   UNL     1       2.224   7.105  18.216  0.00  0.00    +0.000 A 
ENDBRANCH  10  11
BRANCH  10  20
ATOM     19  C   UNL     1       1.602   2.385  19.574  0.00  0.00    +0.000 C 
ATOM     20  C   UNL     1       1.213   3.542  18.659  0.00  0.00    +0.000 C 
ENDBRANCH  10  20
ENDBRANCH   8  10
ENDBRANCH   1   8
BRANCH   6  21
ATOM     21  C   UNL     1       6.322   5.467  14.921  0.00  0.00    +0.000 C 
BRANCH  21  22
ATOM     22  N   UNL     1       6.979   4.403  14.158  0.00  0.00    +0.000 NA
ATOM     23  C   UNL     1       7.727   4.819  12.976  0.00  0.00    +0.000 C 
ATOM     24  C   UNL     1       6.805   4.546  11.801  0.00  0.00    +0.000 C 
ATOM     25  C   UNL     1       5.954   3.361  12.246  0.00  0.00    +0.000 C 
ATOM     26  C   UNL     1       6.152   3.261  13.760  0.00  0.00    +0.000 C 
BRANCH  25  27
ATOM     27  C   UNL     1       6.329   2.092  11.508  0.00  0.00    +0.000 C 
ATOM     28  O   UNL     1       5.553   1.249  11.090  0.00  0.00    +0.000 OA
BRANCH  27  29
ATOM     29  O   UNL     1       7.667   1.986  11.300  0.00  0.00    +0.000 OA
ATOM     30  H   UNL     1       8.210   2.217  12.077  0.00  0.00    +0.000 HD
ENDBRANCH  27  29
ENDBRANCH  25  27
ENDBRANCH  21  22
ENDBRANCH   6  21
TORSDOF 8
ENDMDL
MODEL 8
REMARK VINA RESULT:      -7.7      4.419      8.442
REMARK  Name = 
REMARK  11 active torsions:
REMARK  status: ('A' for Active; 'I' for Inactive)
REMARK    1  A    between atoms: C_1  and  C_2
REMARK    2  A    between atoms: C_2  and  C_3
REMARK    3  A    between atoms: C_3  and  N_4
REMARK    4  A    between atoms: C_3  and  C_21
REMARK    5  A    between atoms: N_4  and  C_5
REMARK    6  A    between atoms: C_7  and  C_8
REMARK    7  A    between atoms: C_10  and  C_11
REMARK    8  A    between atoms: C_11  and  N_12
REMARK    9  A    between atoms: C_15  and  C_16
REMARK   10  A    between atoms: C_16  and  O_18
REMARK   11  A    between atoms: C_26  and  C_27
REMARK                            x       y       z     vdW  Elec       q    Type
REMARK                         _______ _______ _______ _____ _____    ______ ____
ROOT
ATOM      1  C   UNL     1       4.359   4.209  18.968  0.00  0.00    +0.000 A 
ATOM      2  C   UNL     1       3.736   3.411  19.929  0.00  0.00    +0.000 A 
ATOM      3  C   UNL     1       2.429   3.679  20.354  0.00  0.00    +0.000 A 
ATOM      4  C   UNL     1       1.743   2.760  21.322  0.00  0.00    +0.000 C 
ATOM      5  C   UNL     1       1.759   4.800  19.844  0.00  0.00    +0.000 A 
ATOM      6  C   UNL     1       2.405   5.684  18.968  0.00  0.00    +0.000 A 
ATOM      7  C   UNL     1       3.718   5.393  18.575  0.00  0.00    +0.000 A 
ENDROOT
BRANCH   1   8
ATOM      8  N   UNL     1       5.606   3.910  18.418  0.00  0.00    +0.000 N 
ATOM      9  H   UNL     1       6.194   3.422  19.090  0.00  0.00    +0.000 HD
BRANCH   8  10
ATOM     10  C   UNL     1       6.385   4.940  17.697  0.00  0.00    +0.000 C 
BRANCH  10  11
ATOM     11  C   UNL     1       6.297   4.657  16.187  0.00  0.00    +0.000 A 
ATOM     12  C   UNL     1       5.306   3.806  15.674  0.00  0.00    +0.000 A 
ATOM     13  C   UNL     1       5.317   3.415  14.337  0.00  0.00    +0.000 A 
ATOM     14  C   UNL     1       6.284   3.911  13.465  0.00  0.00    +0.000 A 
ATOM     15 CL   UNL     1       6.293   3.291  11.853  0.00  0.00    +0.000 Cl
ATOM     16  C   UNL     1       7.208   4.861  13.906  0.00  0.00    +0.000 A 
ATOM     17  C   UNL     1       8.200   5.545  13.005  0.00  0.00    +0.000 C 
ATOM     18  C   UNL     1       7.193   5.234  15.269  0.00  0.00    +0.000 A 
ENDBRANCH  10  11
BRANCH  10  20
ATOM     19  C   UNL     1       8.046   5.805  19.494  0.00  0.00    +0.000 C 
ATOM     20  C   UNL     1       7.848   4.981  18.225  0.00  0.00    +0.000 C 
ENDBRANCH  10  20
ENDBRANCH   8  10
ENDBRANCH   1   8
BRANCH   6  21
ATOM     21  C   UNL     1       1.711   6.933  18.470  0.00  0.00    +0.000 C 
BRANCH  21  22
ATOM     22  N   UNL     1       2.141   8.225  19.010  0.00  0.00    +0.000 NA
ATOM     23  C   UNL     1       1.495   8.662  20.243  0.00  0.00    +0.000 C 
ATOM     24  C   UNL     1       0.426   9.648  19.810  0.00  0.00    +0.000 C 
ATOM     25  C   UNL     1       0.976  10.277  18.533  0.00  0.00    +0.000 C 
ATOM     26  C   UNL     1       2.126   9.367  18.093  0.00  0.00    +0.000 C 
BRANCH  25  27
ATOM     27  C   UNL     1       1.402  11.714  18.755  0.00  0.00    +0.000 C 
ATOM     28  O   UNL     1       1.160  12.389  19.743  0.00  0.00    +0.000 OA
BRANCH  27  29
ATOM     29  O   UNL     1       2.149  12.201  17.732  0.00  0.00    +0.000 OA
ATOM     30  H   UNL     1       2.811  11.572  17.387  0.00  0.00    +0.000 HD
ENDBRANCH  27  29
ENDBRANCH  25  27
ENDBRANCH  21  22
ENDBRANCH   6  21
TORSDOF 8
ENDMDL
MODEL 9
REMARK VINA RESULT:      -7.6      3.458      5.304
REMARK  Name = 
REMARK  11 active torsions:
REMARK  status: ('A' for Active; 'I' for Inactive)
REMARK    1  A    between atoms: C_1  and  C_2
REMARK    2  A    between atoms: C_2  and  C_3
REMARK    3  A    between atoms: C_3  and  N_4
REMARK    4  A    between atoms: C_3  and  C_21
REMARK    5  A    between atoms: N_4  and  C_5
REMARK    6  A    between atoms: C_7  and  C_8
REMARK    7  A    between atoms: C_10  and  C_11
REMARK    8  A    between atoms: C_11  and  N_12
REMARK    9  A    between atoms: C_15  and  C_16
REMARK   10  A    between atoms: C_16  and  O_18
REMARK   11  A    between atoms: C_26  and  C_27
REMARK                            x       y       z     vdW  Elec       q    Type
REMARK                         _______ _______ _______ _____ _____    ______ ____
ROOT
ATOM      1  C   UNL     1       0.517  10.088  18.753  0.00  0.00    +0.000 A 
ATOM      2  C   UNL     1       0.328   9.887  20.121  0.00  0.00    +0.000 A 
ATOM      3  C   UNL     1       1.041   8.899  20.811  0.00  0.00    +0.000 A 
ATOM      4  C   UNL     1       0.890   8.754  22.298  0.00  0.00    +0.000 C 
ATOM      5  C   UNL     1       1.917   8.066  20.104  0.00  0.00    +0.000 A 
ATOM      6  C   UNL     1       2.037   8.169  18.710  0.00  0.00    +0.000 A 
ATOM      7  C   UNL     1       1.298   9.159  18.049  0.00  0.00    +0.000 A 
ENDROOT
BRANCH   1   8
ATOM      8  N   UNL     1      -0.069  11.139  18.046  0.00  0.00    +0.000 N 
ATOM      9  H   UNL     1       0.583  11.531  17.369  0.00  0.00    +0.000 HD
BRANCH   8  10
ATOM     10  C   UNL     1      -0.798  12.215  18.750  0.00  0.00    +0.000 C 
BRANCH  10  11
ATOM     11  C   UNL     1      -2.309  11.969  18.594  0.00  0.00    +0.000 A 
ATOM     12  C   UNL     1      -2.825  11.389  17.426  0.00  0.00    +0.000 A 
ATOM     13  C   UNL     1      -4.198  11.312  17.208  0.00  0.00    +0.000 A 
ATOM     14  C   UNL     1      -5.092  11.761  18.178  0.00  0.00    +0.000 A 
ATOM     15 CL   UNL     1      -6.774  11.731  17.783  0.00  0.00    +0.000 Cl
ATOM     16  C   UNL     1      -4.622  12.223  19.409  0.00  0.00    +0.000 A 
ATOM     17  C   UNL     1      -5.516  12.603  20.557  0.00  0.00    +0.000 C 
ATOM     18  C   UNL     1      -3.225  12.310  19.607  0.00  0.00    +0.000 A 
ENDBRANCH  10  11
BRANCH  10  20
ATOM     19  C   UNL     1       0.982  14.103  18.779  0.00  0.00    +0.000 C 
ATOM     20  C   UNL     1      -0.349  13.608  18.222  0.00  0.00    +0.000 C 
ENDBRANCH  10  20
ENDBRANCH   8  10
ENDBRANCH   1   8
BRANCH   6  21
ATOM     21  C   UNL     1       2.929   7.226  17.933  0.00  0.00    +0.000 C 
BRANCH  21  22
ATOM     22  N   UNL     1       3.259   5.931  18.536  0.00  0.00    +0.000 NA
ATOM     23  C   UNL     1       4.526   5.332  18.135  0.00  0.00    +0.000 C 
ATOM     24  C   UNL     1       4.168   4.301  17.080  0.00  0.00    +0.000 C 
ATOM     25  C   UNL     1       2.763   3.839  17.455  0.00  0.00    +0.000 C 
ATOM     26  C   UNL     1       2.243   4.880  18.450  0.00  0.00    +0.000 C 
BRANCH  25  27
ATOM     27  C   UNL     1       2.766   2.429  18.011  0.00  0.00    +0.000 C 
ATOM     28  O   UNL     1       1.832   1.876  18.568  0.00  0.00    +0.000 OA
BRANCH  27  29
ATOM     29  O   UNL     1       3.939   1.784  17.789  0.00  0.00    +0.000 OA
ATOM     30  H   UNL     1       3.840   0.917  17.351  0.00  0.00    +0.000 HD
ENDBRANCH  27  29
ENDBRANCH  25  27
ENDBRANCH  21  22
ENDBRANCH   6  21
TORSDOF 8
ENDMDL
