MODEL 1
REMARK VINA RESULT:      -7.1      0.000      0.000
REMARK  Name = 
REMARK  6 active torsions:
REMARK  status: ('A' for Active; 'I' for Inactive)
REMARK    1  A    between atoms: C_1  and  O_2
REMARK    2  A    between atoms: O_2  and  C_3
REMARK    3  A    between atoms: C_6  and  C_7
REMARK    4  A    between atoms: C_8  and  O_9
REMARK    5  A    between atoms: O_9  and  C_10
REMARK    6  A    between atoms: C_10  and  C_12
REMARK                            x       y       z     vdW  Elec       q    Type
REMARK                         _______ _______ _______ _____ _____    ______ ____
ROOT
ATOM      1  C   UNL     1       0.747  11.287  19.712  0.00  0.00    +0.000 C 
ATOM      2  C   UNL     1      -0.235  11.867  18.983  0.00  0.00    +0.000 C 
ATOM      3  C   UNL     1      -0.369  13.288  19.094  0.00  0.00    +0.000 A 
ATOM      4  C   UNL     1       0.051  14.323  18.279  0.00  0.00    +0.000 A 
ATOM      5  C   UNL     1      -0.442  15.529  18.829  0.00  0.00    +0.000 A 
ATOM      6  C   UNL     1      -1.158  15.199  19.960  0.00  0.00    +0.000 A 
ATOM      7  N   UNL     1      -1.020  13.845  20.180  0.00  0.00    +0.000 N 
ATOM      8  C   UNL     1      -1.471  13.144  21.320  0.00  0.00    +0.000 A 
ATOM      9  C   UNL     1      -2.769  13.410  21.782  0.00  0.00    +0.000 A 
ATOM     10  C   UNL     1      -3.282  12.671  22.841  0.00  0.00    +0.000 A 
ATOM     11  C   UNL     1      -2.491  11.706  23.460  0.00  0.00    +0.000 A 
ATOM     12  C   UNL     1      -1.189  11.451  23.005  0.00  0.00    +0.000 A 
ATOM     13  C   UNL     1      -0.664  12.146  21.908  0.00  0.00    +0.000 A 
ATOM     14  S   UNL     1       1.034  11.757  21.388  0.00  0.00    +0.000 S 
ENDROOT
BRANCH   1  18
ATOM     15  C   UNL     1       2.303   7.396  18.771  0.00  0.00    +0.000 A 
ATOM     16  C   UNL     1       1.799   7.669  20.044  0.00  0.00    +0.000 A 
ATOM     17  C   UNL     1       1.247   8.923  20.336  0.00  0.00    +0.000 A 
ATOM     18  C   UNL     1       1.192   9.924  19.351  0.00  0.00    +0.000 A 
ATOM     19  C   UNL     1       1.668   9.629  18.070  0.00  0.00    +0.000 A 
ATOM     20  C   UNL     1       2.230   8.380  17.785  0.00  0.00    +0.000 A 
BRANCH  15  22
ATOM     21  C   UNL     1       3.856   6.031  17.611  0.00  0.00    +0.000 C 
ATOM     22  O   UNL     1       2.856   6.154  18.617  0.00  0.00    +0.000 OA
ENDBRANCH  15  22
ENDBRANCH   1  18
BRANCH   2  23
ATOM     23  O   UNL     1      -1.528  11.234  19.080  0.00  0.00    +0.000 OA
BRANCH  23  24
ATOM     24  C   UNL     1      -2.151  10.837  17.955  0.00  0.00    +0.000 C 
ATOM     25  O   UNL     1      -1.705  10.130  17.072  0.00  0.00    +0.000 OA
BRANCH  24  26
ATOM     26  C   UNL     1      -3.531  11.417  17.921  0.00  0.00    +0.000 A 
ATOM     27  C   UNL     1      -4.091  11.896  19.108  0.00  0.00    +0.000 A 
ATOM     28  C   UNL     1      -5.355  12.485  19.098  0.00  0.00    +0.000 A 
ATOM     29  C   UNL     1      -6.028  12.580  17.891  0.00  0.00    +0.000 A 
ATOM     30  N   UNL     1      -5.527  12.123  16.722  0.00  0.00    +0.000 NA
ATOM     31  C   UNL     1      -4.293  11.550  16.763  0.00  0.00    +0.000 A 
ENDBRANCH  24  26
ENDBRANCH  23  24
ENDBRANCH   2  23
TORSDOF 5
ENDMDL
MODEL 2
REMARK VINA RESULT:      -6.6      2.373      6.473
REMARK  Name = 
REMARK  6 active torsions:
REMARK  status: ('A' for Active; 'I' for Inactive)
REMARK    1  A    between atoms: C_1  and  O_2
REMARK    2  A    between atoms: O_2  and  C_3
REMARK    3  A    between atoms: C_6  and  C_7
REMARK    4  A    between atoms: C_8  and  O_9
REMARK    5  A    between atoms: O_9  and  C_10
REMARK    6  A    between atoms: C_10  and  C_12
REMARK                            x       y       z     vdW  Elec       q    Type
REMARK                         _______ _______ _______ _____ _____    ______ ____
ROOT
ATOM      1  C   UNL     1      -0.401  13.688  21.273  0.00  0.00    +0.000 C 
ATOM      2  C   UNL     1      -1.169  12.578  21.178  0.00  0.00    +0.000 C 
ATOM      3  C   UNL     1      -0.704  11.410  21.862  0.00  0.00    +0.000 A 
ATOM      4  C   UNL     1      -1.058  10.845  23.074  0.00  0.00    +0.000 A 
ATOM      5  C   UNL     1      -0.342   9.633  23.208  0.00  0.00    +0.000 A 
ATOM      6  C   UNL     1       0.423   9.483  22.071  0.00  0.00    +0.000 A 
ATOM      7  N   UNL     1       0.284  10.620  21.303  0.00  0.00    +0.000 N 
ATOM      8  C   UNL     1       1.024  10.924  20.139  0.00  0.00    +0.000 A 
ATOM      9  C   UNL     1       1.185   9.911  19.181  0.00  0.00    +0.000 A 
ATOM     10  C   UNL     1       1.823  10.201  17.981  0.00  0.00    +0.000 A 
ATOM     11  C   UNL     1       2.332  11.479  17.758  0.00  0.00    +0.000 A 
ATOM     12  C   UNL     1       2.181  12.486  18.722  0.00  0.00    +0.000 A 
ATOM     13  C   UNL     1       1.499  12.236  19.920  0.00  0.00    +0.000 A 
ATOM     14  S   UNL     1       1.354  13.596  21.116  0.00  0.00    +0.000 S 
ENDROOT
BRANCH   1  18
ATOM     15  C   UNL     1      -2.358  17.352  20.182  0.00  0.00    +0.000 A 
ATOM     16  C   UNL     1      -2.705  16.686  21.358  0.00  0.00    +0.000 A 
ATOM     17  C   UNL     1      -2.033  15.517  21.739  0.00  0.00    +0.000 A 
ATOM     18  C   UNL     1      -0.999  14.998  20.941  0.00  0.00    +0.000 A 
ATOM     19  C   UNL     1      -0.635  15.692  19.783  0.00  0.00    +0.000 A 
ATOM     20  C   UNL     1      -1.317  16.852  19.400  0.00  0.00    +0.000 A 
BRANCH  15  22
ATOM     21  C   UNL     1      -4.056  18.314  18.835  0.00  0.00    +0.000 C 
ATOM     22  O   UNL     1      -3.112  18.456  19.891  0.00  0.00    +0.000 OA
ENDBRANCH  15  22
ENDBRANCH   1  18
BRANCH   2  23
ATOM     23  O   UNL     1      -1.594  12.238  19.841  0.00  0.00    +0.000 OA
BRANCH  23  24
ATOM     24  C   UNL     1      -2.911  12.190  19.563  0.00  0.00    +0.000 C 
ATOM     25  O   UNL     1      -3.828  12.572  20.263  0.00  0.00    +0.000 OA
BRANCH  24  26
ATOM     26  C   UNL     1      -3.111  11.564  18.218  0.00  0.00    +0.000 A 
ATOM     27  C   UNL     1      -2.069  10.821  17.658  0.00  0.00    +0.000 A 
ATOM     28  C   UNL     1      -2.246  10.186  16.429  0.00  0.00    +0.000 A 
ATOM     29  C   UNL     1      -3.468  10.312  15.791  0.00  0.00    +0.000 A 
ATOM     30  N   UNL     1      -4.499  11.028  16.294  0.00  0.00    +0.000 NA
ATOM     31  C   UNL     1      -4.298  11.639  17.493  0.00  0.00    +0.000 A 
ENDBRANCH  24  26
ENDBRANCH  23  24
ENDBRANCH   2  23
TORSDOF 5
ENDMDL
MODEL 3
REMARK VINA RESULT:      -6.6      1.909      3.036
REMARK  Name = 
REMARK  6 active torsions:
REMARK  status: ('A' for Active; 'I' for Inactive)
REMARK    1  A    between atoms: C_1  and  O_2
REMARK    2  A    between atoms: O_2  and  C_3
REMARK    3  A    between atoms: C_6  and  C_7
REMARK    4  A    between atoms: C_8  and  O_9
REMARK    5  A    between atoms: O_9  and  C_10
REMARK    6  A    between atoms: C_10  and  C_12
REMARK                            x       y       z     vdW  Elec       q    Type
REMARK                         _______ _______ _______ _____ _____    ______ ____
ROOT
ATOM      1  C   UNL     1      -1.193  12.785  21.893  0.00  0.00    +0.000 C 
ATOM      2  C   UNL     1      -1.902  13.236  20.833  0.00  0.00    +0.000 C 
ATOM      3  C   UNL     1      -2.220  14.631  20.813  0.00  0.00    +0.000 A 
ATOM      4  C   UNL     1      -1.649  15.701  20.148  0.00  0.00    +0.000 A 
ATOM      5  C   UNL     1      -2.435  16.845  20.421  0.00  0.00    +0.000 A 
ATOM      6  C   UNL     1      -3.470  16.443  21.238  0.00  0.00    +0.000 A 
ATOM      7  N   UNL     1      -3.275  15.117  21.564  0.00  0.00    +0.000 N 
ATOM      8  C   UNL     1      -4.028  14.380  22.503  0.00  0.00    +0.000 A 
ATOM      9  C   UNL     1      -5.427  14.493  22.456  0.00  0.00    +0.000 A 
ATOM     10  C   UNL     1      -6.204  13.709  23.300  0.00  0.00    +0.000 A 
ATOM     11  C   UNL     1      -5.590  12.852  24.211  0.00  0.00    +0.000 A 
ATOM     12  C   UNL     1      -4.192  12.750  24.265  0.00  0.00    +0.000 A 
ATOM     13  C   UNL     1      -3.385  13.491  23.392  0.00  0.00    +0.000 A 
ATOM     14  S   UNL     1      -1.583  13.304  23.535  0.00  0.00    +0.000 S 
ENDROOT
BRANCH   1  18
ATOM     15  C   UNL     1       0.582   8.902  21.432  0.00  0.00    +0.000 A 
ATOM     16  C   UNL     1       0.740   9.875  20.444  0.00  0.00    +0.000 A 
ATOM     17  C   UNL     1       0.202  11.157  20.617  0.00  0.00    +0.000 A 
ATOM     18  C   UNL     1      -0.503  11.482  21.788  0.00  0.00    +0.000 A 
ATOM     19  C   UNL     1      -0.625  10.511  22.786  0.00  0.00    +0.000 A 
ATOM     20  C   UNL     1      -0.099   9.228  22.605  0.00  0.00    +0.000 A 
BRANCH  15  22
ATOM     21  C   UNL     1       2.002   7.628  20.024  0.00  0.00    +0.000 C 
ATOM     22  O   UNL     1       1.112   7.676  21.134  0.00  0.00    +0.000 OA
ENDBRANCH  15  22
ENDBRANCH   1  18
BRANCH   2  23
ATOM     23  O   UNL     1      -3.067  12.454  20.495  0.00  0.00    +0.000 OA
BRANCH  23  24
ATOM     24  C   UNL     1      -3.267  12.094  19.213  0.00  0.00    +0.000 C 
ATOM     25  O   UNL     1      -2.424  11.818  18.382  0.00  0.00    +0.000 OA
BRANCH  24  26
ATOM     26  C   UNL     1      -4.736  12.088  18.924  0.00  0.00    +0.000 A 
ATOM     27  C   UNL     1      -5.634  12.033  19.993  0.00  0.00    +0.000 A 
ATOM     28  C   UNL     1      -7.008  12.075  19.755  0.00  0.00    +0.000 A 
ATOM     29  C   UNL     1      -7.447  12.172  18.445  0.00  0.00    +0.000 A 
ATOM     30  N   UNL     1      -6.613  12.219  17.383  0.00  0.00    +0.000 NA
ATOM     31  C   UNL     1      -5.278  12.174  17.644  0.00  0.00    +0.000 A 
ENDBRANCH  24  26
ENDBRANCH  23  24
ENDBRANCH   2  23
TORSDOF 5
ENDMDL
MODEL 4
REMARK VINA RESULT:      -6.5      2.852      4.523
REMARK  Name = 
REMARK  6 active torsions:
REMARK  status: ('A' for Active; 'I' for Inactive)
REMARK    1  A    between atoms: C_1  and  O_2
REMARK    2  A    between atoms: O_2  and  C_3
REMARK    3  A    between atoms: C_6  and  C_7
REMARK    4  A    between atoms: C_8  and  O_9
REMARK    5  A    between atoms: O_9  and  C_10
REMARK    6  A    between atoms: C_10  and  C_12
REMARK                            x       y       z     vdW  Elec       q    Type
REMARK                         _______ _______ _______ _____ _____    ______ ____
ROOT
ATOM      1  C   UNL     1      -1.731  11.852  18.604  0.00  0.00    +0.000 C 
ATOM      2  C   UNL     1      -2.387  12.517  19.583  0.00  0.00    +0.000 C 
ATOM      3  C   UNL     1      -1.609  13.399  20.399  0.00  0.00    +0.000 A 
ATOM      4  C   UNL     1      -1.441  14.772  20.378  0.00  0.00    +0.000 A 
ATOM      5  C   UNL     1      -0.631  15.122  21.483  0.00  0.00    +0.000 A 
ATOM      6  C   UNL     1      -0.334  13.956  22.156  0.00  0.00    +0.000 A 
ATOM      7  N   UNL     1      -0.839  12.897  21.432  0.00  0.00    +0.000 N 
ATOM      8  C   UNL     1      -0.612  11.529  21.702  0.00  0.00    +0.000 A 
ATOM      9  C   UNL     1      -0.737  11.095  23.031  0.00  0.00    +0.000 A 
ATOM     10  C   UNL     1      -0.616   9.741  23.321  0.00  0.00    +0.000 A 
ATOM     11  C   UNL     1      -0.332   8.836  22.300  0.00  0.00    +0.000 A 
ATOM     12  C   UNL     1      -0.194   9.275  20.975  0.00  0.00    +0.000 A 
ATOM     13  C   UNL     1      -0.360  10.627  20.646  0.00  0.00    +0.000 A 
ATOM     14  S   UNL     1      -0.158  11.110  18.906  0.00  0.00    +0.000 S 
ENDROOT
BRANCH   1  18
ATOM     15  C   UNL     1      -3.853  10.283  15.216  0.00  0.00    +0.000 A 
ATOM     16  C   UNL     1      -2.620   9.748  15.590  0.00  0.00    +0.000 A 
ATOM     17  C   UNL     1      -1.951  10.227  16.724  0.00  0.00    +0.000 A 
ATOM     18  C   UNL     1      -2.513  11.253  17.502  0.00  0.00    +0.000 A 
ATOM     19  C   UNL     1      -3.765  11.758  17.138  0.00  0.00    +0.000 A 
ATOM     20  C   UNL     1      -4.424  11.287  15.999  0.00  0.00    +0.000 A 
BRANCH  15  22
ATOM     21  C   UNL     1      -3.553   9.789  12.917  0.00  0.00    +0.000 C 
ATOM     22  O   UNL     1      -4.390   9.768  14.068  0.00  0.00    +0.000 OA
ENDBRANCH  15  22
ENDBRANCH   1  18
BRANCH   2  23
ATOM     23  O   UNL     1      -3.249  11.705  20.407  0.00  0.00    +0.000 OA
BRANCH  23  24
ATOM     24  C   UNL     1      -4.221  12.299  21.126  0.00  0.00    +0.000 C 
ATOM     25  O   UNL     1      -4.219  12.532  22.320  0.00  0.00    +0.000 OA
BRANCH  24  26
ATOM     26  C   UNL     1      -5.366  12.644  20.226  0.00  0.00    +0.000 A 
ATOM     27  C   UNL     1      -6.124  11.609  19.672  0.00  0.00    +0.000 A 
ATOM     28  C   UNL     1      -7.226  11.902  18.869  0.00  0.00    +0.000 A 
ATOM     29  C   UNL     1      -7.540  13.231  18.641  0.00  0.00    +0.000 A 
ATOM     30  N   UNL     1      -6.829  14.261  19.150  0.00  0.00    +0.000 NA
ATOM     31  C   UNL     1      -5.758  13.946  19.928  0.00  0.00    +0.000 A 
ENDBRANCH  24  26
ENDBRANCH  23  24
ENDBRANCH   2  23
TORSDOF 5
ENDMDL
MODEL 5
REMARK VINA RESULT:      -6.5      2.317      6.296
REMARK  Name = 
REMARK  6 active torsions:
REMARK  status: ('A' for Active; 'I' for Inactive)
REMARK    1  A    between atoms: C_1  and  O_2
REMARK    2  A    between atoms: O_2  and  C_3
REMARK    3  A    between atoms: C_6  and  C_7
REMARK    4  A    between atoms: C_8  and  O_9
REMARK    5  A    between atoms: O_9  and  C_10
REMARK    6  A    between atoms: C_10  and  C_12
REMARK                            x       y       z     vdW  Elec       q    Type
REMARK                         _______ _______ _______ _____ _____    ______ ____
ROOT
ATOM      1  C   UNL     1       0.037  13.619  20.696  0.00  0.00    +0.000 C 
ATOM      2  C   UNL     1      -0.916  12.661  20.768  0.00  0.00    +0.000 C 
ATOM      3  C   UNL     1      -0.654  11.554  21.637  0.00  0.00    +0.000 A 
ATOM      4  C   UNL     1      -1.084  11.261  22.919  0.00  0.00    +0.000 A 
ATOM      5  C   UNL     1      -0.591   9.979  23.254  0.00  0.00    +0.000 A 
ATOM      6  C   UNL     1       0.118   9.517  22.166  0.00  0.00    +0.000 A 
ATOM      7  N   UNL     1       0.170  10.523  21.224  0.00  0.00    +0.000 N 
ATOM      8  C   UNL     1       0.935  10.503  20.037  0.00  0.00    +0.000 A 
ATOM      9  C   UNL     1       0.900   9.337  19.256  0.00  0.00    +0.000 A 
ATOM     10  C   UNL     1       1.561   9.314  18.033  0.00  0.00    +0.000 A 
ATOM     11  C   UNL     1       2.284  10.430  17.616  0.00  0.00    +0.000 A 
ATOM     12  C   UNL     1       2.328  11.589  18.404  0.00  0.00    +0.000 A 
ATOM     13  C   UNL     1       1.630  11.657  19.617  0.00  0.00    +0.000 A 
ATOM     14  S   UNL     1       1.746  13.195  20.579  0.00  0.00    +0.000 S 
ENDROOT
BRANCH   1  18
ATOM     15  C   UNL     1      -1.208  17.335  18.939  0.00  0.00    +0.000 A 
ATOM     16  C   UNL     1      -1.911  16.789  20.014  0.00  0.00    +0.000 A 
ATOM     17  C   UNL     1      -1.476  15.602  20.618  0.00  0.00    +0.000 A 
ATOM     18  C   UNL     1      -0.325  14.945  20.151  0.00  0.00    +0.000 A 
ATOM     19  C   UNL     1       0.391  15.519  19.097  0.00  0.00    +0.000 A 
ATOM     20  C   UNL     1      -0.053  16.697  18.487  0.00  0.00    +0.000 A 
BRANCH  15  22
ATOM     21  C   UNL     1      -3.157  18.630  18.557  0.00  0.00    +0.000 C 
ATOM     22  O   UNL     1      -1.751  18.471  18.403  0.00  0.00    +0.000 OA
ENDBRANCH  15  22
ENDBRANCH   1  18
BRANCH   2  23
ATOM     23  O   UNL     1      -1.414  12.193  19.498  0.00  0.00    +0.000 OA
BRANCH  23  24
ATOM     24  C   UNL     1      -2.744  12.084  19.314  0.00  0.00    +0.000 C 
ATOM     25  O   UNL     1      -3.627  12.438  20.072  0.00  0.00    +0.000 OA
BRANCH  24  26
ATOM     26  C   UNL     1      -3.010  11.430  17.994  0.00  0.00    +0.000 A 
ATOM     27  C   UNL     1      -4.204  11.717  17.327  0.00  0.00    +0.000 A 
ATOM     28  C   UNL     1      -4.456  11.160  16.073  0.00  0.00    +0.000 A 
ATOM     29  C   UNL     1      -3.500  10.325  15.519  0.00  0.00    +0.000 A 
ATOM     30  N   UNL     1      -2.338  10.014  16.134  0.00  0.00    +0.000 NA
ATOM     31  C   UNL     1      -2.119  10.570  17.357  0.00  0.00    +0.000 A 
ENDBRANCH  24  26
ENDBRANCH  23  24
ENDBRANCH   2  23
TORSDOF 5
ENDMDL
MODEL 6
REMARK VINA RESULT:      -6.4      3.377      6.110
REMARK  Name = 
REMARK  6 active torsions:
REMARK  status: ('A' for Active; 'I' for Inactive)
REMARK    1  A    between atoms: C_1  and  O_2
REMARK    2  A    between atoms: O_2  and  C_3
REMARK    3  A    between atoms: C_6  and  C_7
REMARK    4  A    between atoms: C_8  and  O_9
REMARK    5  A    between atoms: O_9  and  C_10
REMARK    6  A    between atoms: C_10  and  C_12
REMARK                            x       y       z     vdW  Elec       q    Type
REMARK                         _______ _______ _______ _____ _____    ______ ____
ROOT
ATOM      1  C   UNL     1      -4.177  12.233  19.957  0.00  0.00    +0.000 C 
ATOM      2  C   UNL     1      -3.330  12.889  20.784  0.00  0.00    +0.000 C 
ATOM      3  C   UNL     1      -3.720  12.994  22.157  0.00  0.00    +0.000 A 
ATOM      4  C   UNL     1      -3.345  12.283  23.283  0.00  0.00    +0.000 A 
ATOM      5  C   UNL     1      -3.974  12.882  24.399  0.00  0.00    +0.000 A 
ATOM      6  C   UNL     1      -4.710  13.949  23.928  0.00  0.00    +0.000 A 
ATOM      7  N   UNL     1      -4.641  13.948  22.550  0.00  0.00    +0.000 N 
ATOM      8  C   UNL     1      -5.383  14.783  21.687  0.00  0.00    +0.000 A 
ATOM      9  C   UNL     1      -5.457  16.150  22.001  0.00  0.00    +0.000 A 
ATOM     10  C   UNL     1      -6.096  17.018  21.124  0.00  0.00    +0.000 A 
ATOM     11  C   UNL     1      -6.691  16.520  19.966  0.00  0.00    +0.000 A 
ATOM     12  C   UNL     1      -6.628  15.153  19.662  0.00  0.00    +0.000 A 
ATOM     13  C   UNL     1      -5.947  14.262  20.502  0.00  0.00    +0.000 A 
ATOM     14  S   UNL     1      -5.919  12.506  20.035  0.00  0.00    +0.000 S 
ENDROOT
BRANCH   1  18
ATOM     15  C   UNL     1      -2.844  10.575  16.227  0.00  0.00    +0.000 A 
ATOM     16  C   UNL     1      -4.089  11.198  16.320  0.00  0.00    +0.000 A 
ATOM     17  C   UNL     1      -4.503  11.782  17.525  0.00  0.00    +0.000 A 
ATOM     18  C   UNL     1      -3.670  11.749  18.656  0.00  0.00    +0.000 A 
ATOM     19  C   UNL     1      -2.410  11.153  18.541  0.00  0.00    +0.000 A 
ATOM     20  C   UNL     1      -2.005  10.560  17.341  0.00  0.00    +0.000 A 
BRANCH  15  22
ATOM     21  C   UNL     1      -3.605  10.055  14.042  0.00  0.00    +0.000 C 
ATOM     22  O   UNL     1      -2.567  10.003  15.015  0.00  0.00    +0.000 OA
ENDBRANCH  15  22
ENDBRANCH   1  18
BRANCH   2  23
ATOM     23  O   UNL     1      -2.862  14.164  20.299  0.00  0.00    +0.000 OA
BRANCH  23  24
ATOM     24  C   UNL     1      -1.747  14.700  20.831  0.00  0.00    +0.000 C 
ATOM     25  O   UNL     1      -1.664  15.690  21.531  0.00  0.00    +0.000 OA
BRANCH  24  26
ATOM     26  C   UNL     1      -0.560  13.886  20.419  0.00  0.00    +0.000 A 
ATOM     27  C   UNL     1      -0.168  13.894  19.078  0.00  0.00    +0.000 A 
ATOM     28  C   UNL     1       0.963  13.184  18.675  0.00  0.00    +0.000 A 
ATOM     29  C   UNL     1       1.675  12.481  19.633  0.00  0.00    +0.000 A 
ATOM     30  N   UNL     1       1.326  12.439  20.938  0.00  0.00    +0.000 NA
ATOM     31  C   UNL     1       0.217  13.139  21.302  0.00  0.00    +0.000 A 
ENDBRANCH  24  26
ENDBRANCH  23  24
ENDBRANCH   2  23
TORSDOF 5
ENDMDL
MODEL 7
REMARK VINA RESULT:      -6.3      8.700     10.779
REMARK  Name = 
REMARK  6 active torsions:
REMARK  status: ('A' for Active; 'I' for Inactive)
REMARK    1  A    between atoms: C_1  and  O_2
REMARK    2  A    between atoms: O_2  and  C_3
REMARK    3  A    between atoms: C_6  and  C_7
REMARK    4  A    between atoms: C_8  and  O_9
REMARK    5  A    between atoms: O_9  and  C_10
REMARK    6  A    between atoms: C_10  and  C_12
REMARK                            x       y       z     vdW  Elec       q    Type
REMARK                         _______ _______ _______ _____ _____    ______ ____
ROOT
ATOM      1  C   UNL     1       9.269  13.755  20.501  0.00  0.00    +0.000 C 
ATOM      2  C   UNL     1       8.956  13.720  19.185  0.00  0.00    +0.000 C 
ATOM      3  C   UNL     1      10.048  13.741  18.260  0.00  0.00    +0.000 A 
ATOM      4  C   UNL     1      10.674  12.737  17.543  0.00  0.00    +0.000 A 
ATOM      5  C   UNL     1      11.635  13.345  16.703  0.00  0.00    +0.000 A 
ATOM      6  C   UNL     1      11.566  14.704  16.921  0.00  0.00    +0.000 A 
ATOM      7  N   UNL     1      10.676  14.934  17.948  0.00  0.00    +0.000 N 
ATOM      8  C   UNL     1      10.441  16.178  18.574  0.00  0.00    +0.000 A 
ATOM      9  C   UNL     1      10.276  17.304  17.753  0.00  0.00    +0.000 A 
ATOM     10  C   UNL     1       9.948  18.526  18.328  0.00  0.00    +0.000 A 
ATOM     11  C   UNL     1       9.829  18.631  19.712  0.00  0.00    +0.000 A 
ATOM     12  C   UNL     1      10.007  17.507  20.532  0.00  0.00    +0.000 A 
ATOM     13  C   UNL     1      10.289  16.252  19.976  0.00  0.00    +0.000 A 
ATOM     14  S   UNL     1      10.512  14.850  21.111  0.00  0.00    +0.000 S 
ENDROOT
BRANCH   1  18
ATOM     15  C   UNL     1       6.441  12.726  23.564  0.00  0.00    +0.000 A 
ATOM     16  C   UNL     1       6.267  13.880  22.798  0.00  0.00    +0.000 A 
ATOM     17  C   UNL     1       7.163  14.190  21.767  0.00  0.00    +0.000 A 
ATOM     18  C   UNL     1       8.249  13.342  21.488  0.00  0.00    +0.000 A 
ATOM     19  C   UNL     1       8.394  12.171  22.238  0.00  0.00    +0.000 A 
ATOM     20  C   UNL     1       7.505  11.871  23.275  0.00  0.00    +0.000 A 
BRANCH  15  22
ATOM     21  C   UNL     1       5.745  13.312  25.753  0.00  0.00    +0.000 C 
ATOM     22  O   UNL     1       5.530  12.550  24.570  0.00  0.00    +0.000 OA
ENDBRANCH  15  22
ENDBRANCH   1  18
BRANCH   2  23
ATOM     23  O   UNL     1       7.933  14.650  18.772  0.00  0.00    +0.000 OA
BRANCH  23  24
ATOM     24  C   UNL     1       6.960  14.229  17.941  0.00  0.00    +0.000 C 
ATOM     25  O   UNL     1       7.014  13.313  17.143  0.00  0.00    +0.000 OA
BRANCH  24  26
ATOM     26  C   UNL     1       5.745  15.083  18.128  0.00  0.00    +0.000 A 
ATOM     27  C   UNL     1       4.488  14.537  17.855  0.00  0.00    +0.000 A 
ATOM     28  C   UNL     1       3.336  15.295  18.066  0.00  0.00    +0.000 A 
ATOM     29  C   UNL     1       3.475  16.585  18.549  0.00  0.00    +0.000 A 
ATOM     30  N   UNL     1       4.671  17.154  18.817  0.00  0.00    +0.000 NA
ATOM     31  C   UNL     1       5.778  16.393  18.599  0.00  0.00    +0.000 A 
ENDBRANCH  24  26
ENDBRANCH  23  24
ENDBRANCH   2  23
TORSDOF 5
ENDMDL
MODEL 8
REMARK VINA RESULT:      -6.3      3.257      6.475
REMARK  Name = 
REMARK  6 active torsions:
REMARK  status: ('A' for Active; 'I' for Inactive)
REMARK    1  A    between atoms: C_1  and  O_2
REMARK    2  A    between atoms: O_2  and  C_3
REMARK    3  A    between atoms: C_6  and  C_7
REMARK    4  A    between atoms: C_8  and  O_9
REMARK    5  A    between atoms: O_9  and  C_10
REMARK    6  A    between atoms: C_10  and  C_12
REMARK                            x       y       z     vdW  Elec       q    Type
REMARK                         _______ _______ _______ _____ _____    ______ ____
ROOT
ATOM      1  C   UNL     1       0.624  15.317  20.932  0.00  0.00    +0.000 C 
ATOM      2  C   UNL     1       1.622  14.806  20.174  0.00  0.00    +0.000 C 
ATOM      3  C   UNL     1       2.847  15.544  20.134  0.00  0.00    +0.000 A 
ATOM      4  C   UNL     1       4.050  15.378  20.797  0.00  0.00    +0.000 A 
ATOM      5  C   UNL     1       4.952  16.346  20.298  0.00  0.00    +0.000 A 
ATOM      6  C   UNL     1       4.281  17.072  19.338  0.00  0.00    +0.000 A 
ATOM      7  N   UNL     1       2.967  16.654  19.318  0.00  0.00    +0.000 N 
ATOM      8  C   UNL     1       1.921  17.255  18.584  0.00  0.00    +0.000 A 
ATOM      9  C   UNL     1       2.169  17.590  17.243  0.00  0.00    +0.000 A 
ATOM     10  C   UNL     1       1.135  18.094  16.463  0.00  0.00    +0.000 A 
ATOM     11  C   UNL     1      -0.122  18.301  17.028  0.00  0.00    +0.000 A 
ATOM     12  C   UNL     1      -0.364  17.979  18.371  0.00  0.00    +0.000 A 
ATOM     13  C   UNL     1       0.646  17.423  19.168  0.00  0.00    +0.000 A 
ATOM     14  S   UNL     1       0.249  17.041  20.899  0.00  0.00    +0.000 S 
ENDROOT
BRANCH   1  18
ATOM     15  C   UNL     1      -2.654  12.920  22.327  0.00  0.00    +0.000 A 
ATOM     16  C   UNL     1      -2.888  14.065  21.564  0.00  0.00    +0.000 A 
ATOM     17  C   UNL     1      -1.817  14.819  21.068  0.00  0.00    +0.000 A 
ATOM     18  C   UNL     1      -0.492  14.433  21.331  0.00  0.00    +0.000 A 
ATOM     19  C   UNL     1      -0.269  13.266  22.068  0.00  0.00    +0.000 A 
ATOM     20  C   UNL     1      -1.340  12.522  22.573  0.00  0.00    +0.000 A 
BRANCH  15  22
ATOM     21  C   UNL     1      -4.010  12.377  24.196  0.00  0.00    +0.000 C 
ATOM     22  O   UNL     1      -3.776  12.290  22.794  0.00  0.00    +0.000 OA
ENDBRANCH  15  22
ENDBRANCH   1  18
BRANCH   2  23
ATOM     23  O   UNL     1       1.237  14.404  18.842  0.00  0.00    +0.000 OA
BRANCH  23  24
ATOM     24  C   UNL     1       1.564  13.172  18.408  0.00  0.00    +0.000 C 
ATOM     25  O   UNL     1       2.609  12.821  17.897  0.00  0.00    +0.000 OA
BRANCH  24  26
ATOM     26  C   UNL     1       0.411  12.244  18.637  0.00  0.00    +0.000 A 
ATOM     27  C   UNL     1      -0.865  12.638  18.227  0.00  0.00    +0.000 A 
ATOM     28  C   UNL     1      -1.948  11.774  18.383  0.00  0.00    +0.000 A 
ATOM     29  C   UNL     1      -1.723  10.531  18.949  0.00  0.00    +0.000 A 
ATOM     30  N   UNL     1      -0.507  10.113  19.368  0.00  0.00    +0.000 NA
ATOM     31  C   UNL     1       0.531  10.978  19.205  0.00  0.00    +0.000 A 
ENDBRANCH  24  26
ENDBRANCH  23  24
ENDBRANCH   2  23
TORSDOF 5
ENDMDL
MODEL 9
REMARK VINA RESULT:      -6.2      9.219     12.052
REMARK  Name = 
REMARK  6 active torsions:
REMARK  status: ('A' for Active; 'I' for Inactive)
REMARK    1  A    between atoms: C_1  and  O_2
REMARK    2  A    between atoms: O_2  and  C_3
REMARK    3  A    between atoms: C_6  and  C_7
REMARK    4  A    between atoms: C_8  and  O_9
REMARK    5  A    between atoms: O_9  and  C_10
REMARK    6  A    between atoms: C_10  and  C_12
REMARK                            x       y       z     vdW  Elec       q    Type
REMARK                         _______ _______ _______ _____ _____    ______ ____
ROOT
ATOM      1  C   UNL     1       7.893  15.894  19.500  0.00  0.00    +0.000 C 
ATOM      2  C   UNL     1       9.181  16.127  19.844  0.00  0.00    +0.000 C 
ATOM      3  C   UNL     1      10.066  16.540  18.798  0.00  0.00    +0.000 A 
ATOM      4  C   UNL     1      10.547  17.783  18.429  0.00  0.00    +0.000 A 
ATOM      5  C   UNL     1      11.472  17.590  17.377  0.00  0.00    +0.000 A 
ATOM      6  C   UNL     1      11.539  16.235  17.136  0.00  0.00    +0.000 A 
ATOM      7  N   UNL     1      10.600  15.607  17.928  0.00  0.00    +0.000 N 
ATOM      8  C   UNL     1      10.248  14.241  17.864  0.00  0.00    +0.000 A 
ATOM      9  C   UNL     1      11.286  13.299  17.794  0.00  0.00    +0.000 A 
ATOM     10  C   UNL     1      10.981  11.943  17.827  0.00  0.00    +0.000 A 
ATOM     11  C   UNL     1       9.650  11.534  17.887  0.00  0.00    +0.000 A 
ATOM     12  C   UNL     1       8.614  12.477  17.944  0.00  0.00    +0.000 A 
ATOM     13  C   UNL     1       8.895  13.850  17.962  0.00  0.00    +0.000 A 
ATOM     14  S   UNL     1       7.492  15.003  18.030  0.00  0.00    +0.000 S 
ENDROOT
BRANCH   1  18
ATOM     15  C   UNL     1       5.118  15.699  22.771  0.00  0.00    +0.000 A 
ATOM     16  C   UNL     1       5.901  16.837  22.574  0.00  0.00    +0.000 A 
ATOM     17  C   UNL     1       6.771  16.920  21.479  0.00  0.00    +0.000 A 
ATOM     18  C   UNL     1       6.866  15.859  20.562  0.00  0.00    +0.000 A 
ATOM     19  C   UNL     1       6.051  14.738  20.750  0.00  0.00    +0.000 A 
ATOM     20  C   UNL     1       5.194  14.653  21.851  0.00  0.00    +0.000 A 
BRANCH  15  22
ATOM     21  C   UNL     1       3.494  16.846  24.064  0.00  0.00    +0.000 C 
ATOM     22  O   UNL     1       4.340  15.714  23.897  0.00  0.00    +0.000 OA
ENDBRANCH  15  22
ENDBRANCH   1  18
BRANCH   2  23
ATOM     23  O   UNL     1       9.799  15.098  20.644  0.00  0.00    +0.000 OA
BRANCH  23  24
ATOM     24  C   UNL     1       9.814  15.228  21.984  0.00  0.00    +0.000 C 
ATOM     25  O   UNL     1      10.340  16.110  22.635  0.00  0.00    +0.000 OA
BRANCH  24  26
ATOM     26  C   UNL     1       9.074  14.083  22.603  0.00  0.00    +0.000 A 
ATOM     27  C   UNL     1       8.977  12.882  21.896  0.00  0.00    +0.000 A 
ATOM     28  C   UNL     1       8.335  11.783  22.468  0.00  0.00    +0.000 A 
ATOM     29  C   UNL     1       7.805  11.919  23.740  0.00  0.00    +0.000 A 
ATOM     30  N   UNL     1       7.870  13.065  24.455  0.00  0.00    +0.000 NA
ATOM     31  C   UNL     1       8.499  14.121  23.871  0.00  0.00    +0.000 A 
ENDBRANCH  24  26
ENDBRANCH  23  24
ENDBRANCH   2  23
TORSDOF 5
ENDMDL
