MODEL 1
REMARK VINA RESULT:      -6.5      0.000      0.000
REMARK  Name = 
REMARK  6 active torsions:
REMARK  status: ('A' for Active; 'I' for Inactive)
REMARK    1  A    between atoms: C_1  and  C_2
REMARK    2  A    between atoms: N_4  and  C_5
REMARK    3  A    between atoms: N_4  and  C_20
REMARK    4  A    between atoms: C_6  and  N_7
REMARK    5  A    between atoms: N_7  and  C_8
REMARK    6  A    between atoms: N_7  and  C_9
REMARK                            x       y       z     vdW  Elec       q    Type
REMARK                         _______ _______ _______ _____ _____    ______ ____
ROOT
ATOM      1  C   UNL     1      -0.967  11.422  19.540  0.00  0.00    +0.000 C 
ATOM      2  C   UNL     1      -2.016  12.136  20.030  0.00  0.00    +0.000 C 
ATOM      3  C   UNL     1      -3.339  12.027  19.275  0.00  0.00    +0.000 C 
ATOM      4  O   UNL     1      -4.405  12.442  19.719  0.00  0.00    +0.000 OA
ATOM      5  C   UNL     1      -3.359  11.434  17.927  0.00  0.00    +0.000 A 
ATOM      6  C   UNL     1      -4.519  11.524  17.140  0.00  0.00    +0.000 A 
ATOM      7  C   UNL     1      -4.554  10.962  15.863  0.00  0.00    +0.000 A 
ATOM      8  C   UNL     1      -3.432  10.311  15.362  0.00  0.00    +0.000 A 
ATOM      9  C   UNL     1      -2.280  10.212  16.144  0.00  0.00    +0.000 A 
ATOM     10  C   UNL     1      -2.251  10.774  17.431  0.00  0.00    +0.000 A 
ATOM     11  C   UNL     1      -1.058  10.624  18.267  0.00  0.00    +0.000 C 
ATOM     12  O   UNL     1      -0.175   9.851  17.914  0.00  0.00    +0.000 OA
ENDROOT
BRANCH   1  16
ATOM     13  C   UNL     1      -0.235   9.046  21.004  0.00  0.00    +0.000 C 
ATOM     14  C   UNL     1       0.530  10.346  21.152  0.00  0.00    +0.000 C 
ATOM     15  O   UNL     1       1.362  10.442  22.061  0.00  0.00    +0.000 OA
ATOM     16  N   UNL     1       0.283  11.345  20.187  0.00  0.00    +0.000 N 
BRANCH  16  17
ATOM     17  C   UNL     1       1.331  12.305  19.874  0.00  0.00    +0.000 A 
ATOM     18  C   UNL     1       1.951  12.341  18.614  0.00  0.00    +0.000 A 
ATOM     19  C   UNL     1       2.957  13.268  18.327  0.00  0.00    +0.000 A 
ATOM     20  C   UNL     1       3.371  14.183  19.288  0.00  0.00    +0.000 A 
ATOM     21  C   UNL     1       2.759  14.167  20.541  0.00  0.00    +0.000 A 
ATOM     22 BR   UNL     1       3.313  15.396  21.866  0.00  0.00    +0.000 Br
ATOM     23  C   UNL     1       1.751  13.245  20.833  0.00  0.00    +0.000 A 
ENDBRANCH  16  17
ENDBRANCH   1  16
BRANCH   2  24
ATOM     24  N   UNL     1      -1.971  13.015  21.152  0.00  0.00    +0.000 N 
ATOM     25  C   UNL     1      -1.730  14.462  21.048  0.00  0.00    +0.000 C 
ATOM     26  C   UNL     1      -2.106  12.588  22.550  0.00  0.00    +0.000 C 
ENDBRANCH   2  24
TORSDOF 3
ENDMDL
MODEL 2
REMARK VINA RESULT:      -6.4      2.671      5.141
REMARK  Name = 
REMARK  6 active torsions:
REMARK  status: ('A' for Active; 'I' for Inactive)
REMARK    1  A    between atoms: C_1  and  C_2
REMARK    2  A    between atoms: N_4  and  C_5
REMARK    3  A    between atoms: N_4  and  C_20
REMARK    4  A    between atoms: C_6  and  N_7
REMARK    5  A    between atoms: N_7  and  C_8
REMARK    6  A    between atoms: N_7  and  C_9
REMARK                            x       y       z     vdW  Elec       q    Type
REMARK                         _______ _______ _______ _____ _____    ______ ____
ROOT
ATOM      1  C   UNL     1      -1.388  12.292  21.189  0.00  0.00    +0.000 C 
ATOM      2  C   UNL     1      -2.221  12.410  20.120  0.00  0.00    +0.000 C 
ATOM      3  C   UNL     1      -3.672  12.790  20.414  0.00  0.00    +0.000 C 
ATOM      4  O   UNL     1      -4.468  13.134  19.545  0.00  0.00    +0.000 OA
ATOM      5  C   UNL     1      -4.178  12.712  21.795  0.00  0.00    +0.000 A 
ATOM      6  C   UNL     1      -5.554  12.847  22.044  0.00  0.00    +0.000 A 
ATOM      7  C   UNL     1      -6.047  12.780  23.348  0.00  0.00    +0.000 A 
ATOM      8  C   UNL     1      -5.172  12.574  24.408  0.00  0.00    +0.000 A 
ATOM      9  C   UNL     1      -3.804  12.447  24.166  0.00  0.00    +0.000 A 
ATOM     10  C   UNL     1      -3.311  12.521  22.853  0.00  0.00    +0.000 A 
ATOM     11  C   UNL     1      -1.870  12.438  22.608  0.00  0.00    +0.000 C 
ATOM     12  O   UNL     1      -1.098  12.498  23.558  0.00  0.00    +0.000 OA
ENDROOT
BRANCH   1  16
ATOM     13  C   UNL     1       0.511  14.392  21.737  0.00  0.00    +0.000 C 
ATOM     14  C   UNL     1       0.910  13.119  21.019  0.00  0.00    +0.000 C 
ATOM     15  O   UNL     1       2.025  13.065  20.489  0.00  0.00    +0.000 OA
ATOM     16  N   UNL     1      -0.006  12.047  21.065  0.00  0.00    +0.000 N 
BRANCH  16  17
ATOM     17  C   UNL     1       0.492  10.683  20.972  0.00  0.00    +0.000 A 
ATOM     18  C   UNL     1       0.517   9.825  22.084  0.00  0.00    +0.000 A 
ATOM     19  C   UNL     1       0.999   8.517  21.981  0.00  0.00    +0.000 A 
ATOM     20  C   UNL     1       1.468   8.031  20.767  0.00  0.00    +0.000 A 
ATOM     21  C   UNL     1       1.442   8.866  19.650  0.00  0.00    +0.000 A 
ATOM     22 BR   UNL     1       2.084   8.227  17.992  0.00  0.00    +0.000 Br
ATOM     23  C   UNL     1       0.959  10.173  19.747  0.00  0.00    +0.000 A 
ENDBRANCH  16  17
ENDBRANCH   1  16
BRANCH   2  24
ATOM     24  N   UNL     1      -1.871  12.159  18.762  0.00  0.00    +0.000 N 
ATOM     25  C   UNL     1      -2.385  11.024  17.980  0.00  0.00    +0.000 C 
ATOM     26  C   UNL     1      -0.918  12.963  17.985  0.00  0.00    +0.000 C 
ENDBRANCH   2  24
TORSDOF 3
ENDMDL
MODEL 3
REMARK VINA RESULT:      -6.4      0.749      1.115
REMARK  Name = 
REMARK  6 active torsions:
REMARK  status: ('A' for Active; 'I' for Inactive)
REMARK    1  A    between atoms: C_1  and  C_2
REMARK    2  A    between atoms: N_4  and  C_5
REMARK    3  A    between atoms: N_4  and  C_20
REMARK    4  A    between atoms: C_6  and  N_7
REMARK    5  A    between atoms: N_7  and  C_8
REMARK    6  A    between atoms: N_7  and  C_9
REMARK                            x       y       z     vdW  Elec       q    Type
REMARK                         _______ _______ _______ _____ _____    ______ ____
ROOT
ATOM      1  C   UNL     1      -1.138  11.683  20.016  0.00  0.00    +0.000 C 
ATOM      2  C   UNL     1      -2.031  12.370  20.778  0.00  0.00    +0.000 C 
ATOM      3  C   UNL     1      -3.477  12.401  20.287  0.00  0.00    +0.000 C 
ATOM      4  O   UNL     1      -4.414  12.798  20.974  0.00  0.00    +0.000 OA
ATOM      5  C   UNL     1      -3.787  11.976  18.911  0.00  0.00    +0.000 A 
ATOM      6  C   UNL     1      -5.067  12.203  18.381  0.00  0.00    +0.000 A 
ATOM      7  C   UNL     1      -5.376  11.800  17.081  0.00  0.00    +0.000 A 
ATOM      8  C   UNL     1      -4.410  11.175  16.302  0.00  0.00    +0.000 A 
ATOM      9  C   UNL     1      -3.139  10.941  16.828  0.00  0.00    +0.000 A 
ATOM     10  C   UNL     1      -2.833  11.341  18.139  0.00  0.00    +0.000 A 
ATOM     11  C   UNL     1      -1.515  11.049  18.704  0.00  0.00    +0.000 C 
ATOM     12  O   UNL     1      -0.761  10.293  18.102  0.00  0.00    +0.000 OA
ENDROOT
BRANCH   1  16
ATOM     13  C   UNL     1      -0.322   9.187  21.210  0.00  0.00    +0.000 C 
ATOM     14  C   UNL     1       0.558  10.420  21.251  0.00  0.00    +0.000 C 
ATOM     15  O   UNL     1       1.558  10.407  21.977  0.00  0.00    +0.000 OA
ATOM     16  N   UNL     1       0.206  11.484  20.395  0.00  0.00    +0.000 N 
BRANCH  16  17
ATOM     17  C   UNL     1       1.243  12.383  19.914  0.00  0.00    +0.000 A 
ATOM     18  C   UNL     1       1.864  12.201  18.667  0.00  0.00    +0.000 A 
ATOM     19  C   UNL     1       2.861  13.071  18.218  0.00  0.00    +0.000 A 
ATOM     20  C   UNL     1       3.265  14.146  19.001  0.00  0.00    +0.000 A 
ATOM     21  C   UNL     1       2.653  14.348  20.238  0.00  0.00    +0.000 A 
ATOM     22 BR   UNL     1       3.195  15.798  21.321  0.00  0.00    +0.000 Br
ATOM     23  C   UNL     1       1.654  13.482  20.690  0.00  0.00    +0.000 A 
ENDBRANCH  16  17
ENDBRANCH   1  16
BRANCH   2  24
ATOM     24  N   UNL     1      -1.723  13.105  21.960  0.00  0.00    +0.000 N 
ATOM     25  C   UNL     1      -1.629  12.501  23.298  0.00  0.00    +0.000 C 
ATOM     26  C   UNL     1      -1.512  14.558  22.007  0.00  0.00    +0.000 C 
ENDBRANCH   2  24
TORSDOF 3
ENDMDL
MODEL 4
REMARK VINA RESULT:      -6.3      3.149      5.873
REMARK  Name = 
REMARK  6 active torsions:
REMARK  status: ('A' for Active; 'I' for Inactive)
REMARK    1  A    between atoms: C_1  and  C_2
REMARK    2  A    between atoms: N_4  and  C_5
REMARK    3  A    between atoms: N_4  and  C_20
REMARK    4  A    between atoms: C_6  and  N_7
REMARK    5  A    between atoms: N_7  and  C_8
REMARK    6  A    between atoms: N_7  and  C_9
REMARK                            x       y       z     vdW  Elec       q    Type
REMARK                         _______ _______ _______ _____ _____    ______ ____
ROOT
ATOM      1  C   UNL     1       0.504  10.466  19.462  0.00  0.00    +0.000 C 
ATOM      2  C   UNL     1       0.490  10.277  20.809  0.00  0.00    +0.000 C 
ATOM      3  C   UNL     1       1.262   9.073  21.345  0.00  0.00    +0.000 C 
ATOM      4  O   UNL     1       1.507   8.904  22.536  0.00  0.00    +0.000 OA
ATOM      5  C   UNL     1       1.714   8.025  20.412  0.00  0.00    +0.000 A 
ATOM      6  C   UNL     1       2.229   6.818  20.913  0.00  0.00    +0.000 A 
ATOM      7  C   UNL     1       2.665   5.819  20.041  0.00  0.00    +0.000 A 
ATOM      8  C   UNL     1       2.585   6.017  18.667  0.00  0.00    +0.000 A 
ATOM      9  C   UNL     1       2.081   7.217  18.166  0.00  0.00    +0.000 A 
ATOM     10  C   UNL     1       1.649   8.223  19.046  0.00  0.00    +0.000 A 
ATOM     11  C   UNL     1       1.169   9.500  18.518  0.00  0.00    +0.000 C 
ATOM     12  O   UNL     1       1.327   9.752  17.328  0.00  0.00    +0.000 OA
ENDROOT
BRANCH   1  16
ATOM     13  C   UNL     1       2.164  12.642  18.550  0.00  0.00    +0.000 C 
ATOM     14  C   UNL     1       0.660  12.778  18.671  0.00  0.00    +0.000 C 
ATOM     15  O   UNL     1       0.158  13.902  18.561  0.00  0.00    +0.000 OA
ATOM     16  N   UNL     1      -0.078  11.587  18.835  0.00  0.00    +0.000 N 
BRANCH  16  17
ATOM     17  C   UNL     1      -1.452  11.530  18.360  0.00  0.00    +0.000 A 
ATOM     18  C   UNL     1      -2.529  11.958  19.154  0.00  0.00    +0.000 A 
ATOM     19  C   UNL     1      -3.844  11.896  18.686  0.00  0.00    +0.000 A 
ATOM     20  C   UNL     1      -4.120  11.407  17.415  0.00  0.00    +0.000 A 
ATOM     21  C   UNL     1      -3.062  10.987  16.610  0.00  0.00    +0.000 A 
ATOM     22 BR   UNL     1      -3.416  10.309  14.882  0.00  0.00    +0.000 Br
ATOM     23  C   UNL     1      -1.744  11.049  17.071  0.00  0.00    +0.000 A 
ENDBRANCH  16  17
ENDBRANCH   1  16
BRANCH   2  24
ATOM     24  N   UNL     1      -0.224  11.071  21.752  0.00  0.00    +0.000 N 
ATOM     25  C   UNL     1      -0.062  12.527  21.886  0.00  0.00    +0.000 C 
ATOM     26  C   UNL     1      -1.171  10.540  22.741  0.00  0.00    +0.000 C 
ENDBRANCH   2  24
TORSDOF 3
ENDMDL
MODEL 5
REMARK VINA RESULT:      -6.3      2.828      5.870
REMARK  Name = 
REMARK  6 active torsions:
REMARK  status: ('A' for Active; 'I' for Inactive)
REMARK    1  A    between atoms: C_1  and  C_2
REMARK    2  A    between atoms: N_4  and  C_5
REMARK    3  A    between atoms: N_4  and  C_20
REMARK    4  A    between atoms: C_6  and  N_7
REMARK    5  A    between atoms: N_7  and  C_8
REMARK    6  A    between atoms: N_7  and  C_9
REMARK                            x       y       z     vdW  Elec       q    Type
REMARK                         _______ _______ _______ _____ _____    ______ ____
ROOT
ATOM      1  C   UNL     1       0.494  12.117  20.190  0.00  0.00    +0.000 C 
ATOM      2  C   UNL     1      -0.159  12.637  21.264  0.00  0.00    +0.000 C 
ATOM      3  C   UNL     1       0.368  13.960  21.818  0.00  0.00    +0.000 C 
ATOM      4  O   UNL     1      -0.244  14.639  22.637  0.00  0.00    +0.000 OA
ATOM      5  C   UNL     1       1.692  14.449  21.395  0.00  0.00    +0.000 A 
ATOM      6  C   UNL     1       2.277  15.541  22.056  0.00  0.00    +0.000 A 
ATOM      7  C   UNL     1       3.529  16.019  21.662  0.00  0.00    +0.000 A 
ATOM      8  C   UNL     1       4.204  15.406  20.613  0.00  0.00    +0.000 A 
ATOM      9  C   UNL     1       3.623  14.325  19.949  0.00  0.00    +0.000 A 
ATOM     10  C   UNL     1       2.361  13.852  20.344  0.00  0.00    +0.000 A 
ATOM     11  C   UNL     1       1.732  12.751  19.613  0.00  0.00    +0.000 C 
ATOM     12  O   UNL     1       2.222  12.381  18.551  0.00  0.00    +0.000 OA
ENDROOT
BRANCH   1  16
ATOM     13  C   UNL     1      -1.307  12.339  17.948  0.00  0.00    +0.000 C 
ATOM     14  C   UNL     1      -1.042  11.014  18.635  0.00  0.00    +0.000 C 
ATOM     15  O   UNL     1      -1.759  10.048  18.351  0.00  0.00    +0.000 OA
ATOM     16  N   UNL     1       0.062  10.960  19.511  0.00  0.00    +0.000 N 
BRANCH  16  17
ATOM     17  C   UNL     1       0.744   9.691  19.717  0.00  0.00    +0.000 A 
ATOM     18  C   UNL     1       0.591   8.950  20.901  0.00  0.00    +0.000 A 
ATOM     19  C   UNL     1       1.253   7.734  21.087  0.00  0.00    +0.000 A 
ATOM     20  C   UNL     1       2.086   7.224  20.098  0.00  0.00    +0.000 A 
ATOM     21  C   UNL     1       2.242   7.942  18.912  0.00  0.00    +0.000 A 
ATOM     22 BR   UNL     1       3.376   7.271  17.558  0.00  0.00    +0.000 Br
ATOM     23  C   UNL     1       1.580   9.158  18.720  0.00  0.00    +0.000 A 
ENDBRANCH  16  17
ENDBRANCH   1  16
BRANCH   2  24
ATOM     24  N   UNL     1      -1.253  12.030  21.945  0.00  0.00    +0.000 N 
ATOM     25  C   UNL     1      -2.664  12.325  21.653  0.00  0.00    +0.000 C 
ATOM     26  C   UNL     1      -1.119  11.076  23.053  0.00  0.00    +0.000 C 
ENDBRANCH   2  24
TORSDOF 3
ENDMDL
MODEL 6
REMARK VINA RESULT:      -6.3      6.302      9.876
REMARK  Name = 
REMARK  6 active torsions:
REMARK  status: ('A' for Active; 'I' for Inactive)
REMARK    1  A    between atoms: C_1  and  C_2
REMARK    2  A    between atoms: N_4  and  C_5
REMARK    3  A    between atoms: N_4  and  C_20
REMARK    4  A    between atoms: C_6  and  N_7
REMARK    5  A    between atoms: N_7  and  C_8
REMARK    6  A    between atoms: N_7  and  C_9
REMARK                            x       y       z     vdW  Elec       q    Type
REMARK                         _______ _______ _______ _____ _____    ______ ____
ROOT
ATOM      1  C   UNL     1       7.324  15.020  19.914  0.00  0.00    +0.000 C 
ATOM      2  C   UNL     1       7.615  14.616  21.180  0.00  0.00    +0.000 C 
ATOM      3  C   UNL     1       8.803  13.670  21.348  0.00  0.00    +0.000 C 
ATOM      4  O   UNL     1       9.300  13.399  22.437  0.00  0.00    +0.000 OA
ATOM      5  C   UNL     1       9.374  13.005  20.165  0.00  0.00    +0.000 A 
ATOM      6  C   UNL     1      10.315  11.975  20.328  0.00  0.00    +0.000 A 
ATOM      7  C   UNL     1      10.870  11.340  19.215  0.00  0.00    +0.000 A 
ATOM      8  C   UNL     1      10.484  11.723  17.936  0.00  0.00    +0.000 A 
ATOM      9  C   UNL     1       9.555  12.751  17.770  0.00  0.00    +0.000 A 
ATOM     10  C   UNL     1       9.004  13.392  18.891  0.00  0.00    +0.000 A 
ATOM     11  C   UNL     1       8.068  14.503  18.711  0.00  0.00    +0.000 C 
ATOM     12  O   UNL     1       7.922  14.987  17.595  0.00  0.00    +0.000 OA
ENDROOT
BRANCH   1  16
ATOM     13  C   UNL     1       8.019  17.796  19.554  0.00  0.00    +0.000 C 
ATOM     14  C   UNL     1       6.584  17.348  19.748  0.00  0.00    +0.000 C 
ATOM     15  O   UNL     1       5.719  18.207  19.949  0.00  0.00    +0.000 OA
ATOM     16  N   UNL     1       6.324  15.968  19.617  0.00  0.00    +0.000 N 
BRANCH  16  17
ATOM     17  C   UNL     1       5.006  15.531  19.183  0.00  0.00    +0.000 A 
ATOM     18  C   UNL     1       4.578  15.675  17.853  0.00  0.00    +0.000 A 
ATOM     19  C   UNL     1       3.308  15.252  17.450  0.00  0.00    +0.000 A 
ATOM     20  C   UNL     1       2.432  14.675  18.362  0.00  0.00    +0.000 A 
ATOM     21  C   UNL     1       2.845  14.517  19.685  0.00  0.00    +0.000 A 
ATOM     22 BR   UNL     1       1.666  13.743  20.943  0.00  0.00    +0.000 Br
ATOM     23  C   UNL     1       4.114  14.935  20.093  0.00  0.00    +0.000 A 
ENDBRANCH  16  17
ENDBRANCH   1  16
BRANCH   2  24
ATOM     24  N   UNL     1       6.877  14.957  22.351  0.00  0.00    +0.000 N 
ATOM     25  C   UNL     1       7.079  16.197  23.114  0.00  0.00    +0.000 C 
ATOM     26  C   UNL     1       5.860  14.099  22.974  0.00  0.00    +0.000 C 
ENDBRANCH   2  24
TORSDOF 3
ENDMDL
MODEL 7
REMARK VINA RESULT:      -6.2      1.832      3.347
REMARK  Name = 
REMARK  6 active torsions:
REMARK  status: ('A' for Active; 'I' for Inactive)
REMARK    1  A    between atoms: C_1  and  C_2
REMARK    2  A    between atoms: N_4  and  C_5
REMARK    3  A    between atoms: N_4  and  C_20
REMARK    4  A    between atoms: C_6  and  N_7
REMARK    5  A    between atoms: N_7  and  C_8
REMARK    6  A    between atoms: N_7  and  C_9
REMARK                            x       y       z     vdW  Elec       q    Type
REMARK                         _______ _______ _______ _____ _____    ______ ____
ROOT
ATOM      1  C   UNL     1      -1.524  12.250  20.183  0.00  0.00    +0.000 C 
ATOM      2  C   UNL     1      -1.229  11.185  19.390  0.00  0.00    +0.000 C 
ATOM      3  C   UNL     1      -2.299  10.751  18.390  0.00  0.00    +0.000 C 
ATOM      4  O   UNL     1      -2.088   9.952  17.481  0.00  0.00    +0.000 OA
ATOM      5  C   UNL     1      -3.671  11.270  18.523  0.00  0.00    +0.000 A 
ATOM      6  C   UNL     1      -4.705  10.717  17.751  0.00  0.00    +0.000 A 
ATOM      7  C   UNL     1      -6.009  11.203  17.862  0.00  0.00    +0.000 A 
ATOM      8  C   UNL     1      -6.288  12.238  18.747  0.00  0.00    +0.000 A 
ATOM      9  C   UNL     1      -5.262  12.796  19.510  0.00  0.00    +0.000 A 
ATOM     10  C   UNL     1      -3.950  12.309  19.390  0.00  0.00    +0.000 A 
ATOM     11  C   UNL     1      -2.867  12.930  20.155  0.00  0.00    +0.000 C 
ATOM     12  O   UNL     1      -3.079  13.985  20.741  0.00  0.00    +0.000 OA
ENDROOT
BRANCH   1  16
ATOM     13  C   UNL     1      -1.469  11.417  22.944  0.00  0.00    +0.000 C 
ATOM     14  C   UNL     1      -0.760  12.670  22.471  0.00  0.00    +0.000 C 
ATOM     15  O   UNL     1      -0.314  13.451  23.319  0.00  0.00    +0.000 OA
ATOM     16  N   UNL     1      -0.599  12.825  21.079  0.00  0.00    +0.000 N 
BRANCH  16  17
ATOM     17  C   UNL     1       0.527  13.595  20.574  0.00  0.00    +0.000 A 
ATOM     18  C   UNL     1       1.856  13.190  20.783  0.00  0.00    +0.000 A 
ATOM     19  C   UNL     1       2.929  13.941  20.295  0.00  0.00    +0.000 A 
ATOM     20  C   UNL     1       2.705  15.115  19.586  0.00  0.00    +0.000 A 
ATOM     21  C   UNL     1       1.392  15.528  19.362  0.00  0.00    +0.000 A 
ATOM     22 BR   UNL     1       1.066  17.127  18.409  0.00  0.00    +0.000 Br
ATOM     23  C   UNL     1       0.315  14.780  19.845  0.00  0.00    +0.000 A 
ENDBRANCH  16  17
ENDBRANCH   1  16
BRANCH   2  24
ATOM     24  N   UNL     1      -0.034  10.411  19.450  0.00  0.00    +0.000 N 
ATOM     25  C   UNL     1       0.256   9.433  20.510  0.00  0.00    +0.000 C 
ATOM     26  C   UNL     1       1.081  10.523  18.500  0.00  0.00    +0.000 C 
ENDBRANCH   2  24
TORSDOF 3
ENDMDL
MODEL 8
REMARK VINA RESULT:      -6.1      2.037      2.522
REMARK  Name = 
REMARK  6 active torsions:
REMARK  status: ('A' for Active; 'I' for Inactive)
REMARK    1  A    between atoms: C_1  and  C_2
REMARK    2  A    between atoms: N_4  and  C_5
REMARK    3  A    between atoms: N_4  and  C_20
REMARK    4  A    between atoms: C_6  and  N_7
REMARK    5  A    between atoms: N_7  and  C_8
REMARK    6  A    between atoms: N_7  and  C_9
REMARK                            x       y       z     vdW  Elec       q    Type
REMARK                         _______ _______ _______ _____ _____    ______ ____
ROOT
ATOM      1  C   UNL     1      -1.926  12.650  20.359  0.00  0.00    +0.000 C 
ATOM      2  C   UNL     1      -3.237  13.009  20.391  0.00  0.00    +0.000 C 
ATOM      3  C   UNL     1      -4.176  12.283  19.429  0.00  0.00    +0.000 C 
ATOM      4  O   UNL     1      -5.399  12.355  19.497  0.00  0.00    +0.000 OA
ATOM      5  C   UNL     1      -3.611  11.480  18.330  0.00  0.00    +0.000 A 
ATOM      6  C   UNL     1      -4.453  10.990  17.318  0.00  0.00    +0.000 A 
ATOM      7  C   UNL     1      -3.932  10.223  16.274  0.00  0.00    +0.000 A 
ATOM      8  C   UNL     1      -2.570   9.947  16.231  0.00  0.00    +0.000 A 
ATOM      9  C   UNL     1      -1.732  10.426  17.239  0.00  0.00    +0.000 A 
ATOM     10  C   UNL     1      -2.261  11.191  18.291  0.00  0.00    +0.000 A 
ATOM     11  C   UNL     1      -1.386  11.650  19.372  0.00  0.00    +0.000 C 
ATOM     12  O   UNL     1      -0.248  11.202  19.450  0.00  0.00    +0.000 OA
ENDROOT
BRANCH   1  16
ATOM     13  C   UNL     1      -1.494  11.367  22.907  0.00  0.00    +0.000 C 
ATOM     14  C   UNL     1      -0.958  12.752  22.606  0.00  0.00    +0.000 C 
ATOM     15  O   UNL     1      -0.495  13.421  23.537  0.00  0.00    +0.000 OA
ATOM     16  N   UNL     1      -0.965  13.160  21.256  0.00  0.00    +0.000 N 
BRANCH  16  17
ATOM     17  C   UNL     1       0.025  14.124  20.799  0.00  0.00    +0.000 A 
ATOM     18  C   UNL     1       1.378  14.026  21.163  0.00  0.00    +0.000 A 
ATOM     19  C   UNL     1       2.318  14.959  20.719  0.00  0.00    +0.000 A 
ATOM     20  C   UNL     1       1.934  16.015  19.900  0.00  0.00    +0.000 A 
ATOM     21  C   UNL     1       0.596  16.122  19.522  0.00  0.00    +0.000 A 
ATOM     22 BR   UNL     1       0.051  17.555  18.417  0.00  0.00    +0.000 Br
ATOM     23  C   UNL     1      -0.348  15.190  19.961  0.00  0.00    +0.000 A 
ENDBRANCH  16  17
ENDBRANCH   1  16
BRANCH   2  24
ATOM     24  N   UNL     1      -3.798  14.038  21.203  0.00  0.00    +0.000 N 
ATOM     25  C   UNL     1      -4.443  13.796  22.501  0.00  0.00    +0.000 C 
ATOM     26  C   UNL     1      -3.850  15.458  20.830  0.00  0.00    +0.000 C 
ENDBRANCH   2  24
TORSDOF 3
ENDMDL
MODEL 9
REMARK VINA RESULT:      -6.1      1.826      3.951
REMARK  Name = 
REMARK  6 active torsions:
REMARK  status: ('A' for Active; 'I' for Inactive)
REMARK    1  A    between atoms: C_1  and  C_2
REMARK    2  A    between atoms: N_4  and  C_5
REMARK    3  A    between atoms: N_4  and  C_20
REMARK    4  A    between atoms: C_6  and  N_7
REMARK    5  A    between atoms: N_7  and  C_8
REMARK    6  A    between atoms: N_7  and  C_9
REMARK                            x       y       z     vdW  Elec       q    Type
REMARK                         _______ _______ _______ _____ _____    ______ ____
ROOT
ATOM      1  C   UNL     1      -1.215  11.813  21.038  0.00  0.00    +0.000 C 
ATOM      2  C   UNL     1      -2.079  11.851  19.988  0.00  0.00    +0.000 C 
ATOM      3  C   UNL     1      -3.474  12.410  20.261  0.00  0.00    +0.000 C 
ATOM      4  O   UNL     1      -4.272  12.696  19.373  0.00  0.00    +0.000 OA
ATOM      5  C   UNL     1      -3.926  12.587  21.652  0.00  0.00    +0.000 A 
ATOM      6  C   UNL     1      -5.272  12.890  21.916  0.00  0.00    +0.000 A 
ATOM      7  C   UNL     1      -5.713  13.066  23.229  0.00  0.00    +0.000 A 
ATOM      8  C   UNL     1      -4.816  12.935  24.284  0.00  0.00    +0.000 A 
ATOM      9  C   UNL     1      -3.477  12.641  24.025  0.00  0.00    +0.000 A 
ATOM     10  C   UNL     1      -3.036  12.471  22.702  0.00  0.00    +0.000 A 
ATOM     11  C   UNL     1      -1.620  12.213  22.431  0.00  0.00    +0.000 C 
ATOM     12  O   UNL     1      -0.806  12.339  23.339  0.00  0.00    +0.000 OA
ENDROOT
BRANCH   1  16
ATOM     13  C   UNL     1      -0.452   9.074  21.530  0.00  0.00    +0.000 C 
ATOM     14  C   UNL     1       0.572  10.189  21.446  0.00  0.00    +0.000 C 
ATOM     15  O   UNL     1       1.735   9.948  21.787  0.00  0.00    +0.000 OA
ATOM     16  N   UNL     1       0.133  11.419  20.914  0.00  0.00    +0.000 N 
BRANCH  16  17
ATOM     17  C   UNL     1       1.091  12.286  20.245  0.00  0.00    +0.000 A 
ATOM     18  C   UNL     1       1.657  11.948  19.004  0.00  0.00    +0.000 A 
ATOM     19  C   UNL     1       2.577  12.790  18.373  0.00  0.00    +0.000 A 
ATOM     20  C   UNL     1       2.957  13.990  18.962  0.00  0.00    +0.000 A 
ATOM     21  C   UNL     1       2.398  14.345  20.189  0.00  0.00    +0.000 A 
ATOM     22 BR   UNL     1       2.908  15.969  21.011  0.00  0.00    +0.000 Br
ATOM     23  C   UNL     1       1.475  13.509  20.823  0.00  0.00    +0.000 A 
ENDBRANCH  16  17
ENDBRANCH   1  16
BRANCH   2  24
ATOM     24  N   UNL     1      -1.811  11.368  18.674  0.00  0.00    +0.000 N 
ATOM     25  C   UNL     1      -1.420  12.231  17.548  0.00  0.00    +0.000 C 
ATOM     26  C   UNL     1      -1.938   9.965  18.260  0.00  0.00    +0.000 C 
ENDBRANCH   2  24
TORSDOF 3
ENDMDL
