MODEL 1
REMARK VINA RESULT:      -6.5      0.000      0.000
REMARK  Name = 
REMARK  8 active torsions:
REMARK  status: ('A' for Active; 'I' for Inactive)
REMARK    1  A    between atoms: C_1  and  C_2
REMARK    2  A    between atoms: C_3  and  C_4
REMARK    3  A    between atoms: C_5  and  C_6
REMARK    4  A    between atoms: N_12  and  C_13
REMARK    5  A    between atoms: C_13  and  O_14
REMARK    6  A    between atoms: O_14  and  C_15
REMARK    7  A    between atoms: C_15  and  C_16
REMARK    8  A    between atoms: C_16  and  O_17
REMARK                            x       y       z     vdW  Elec       q    Type
REMARK                         _______ _______ _______ _____ _____    ______ ____
ROOT
ATOM      1  C   UNL     1       3.951   5.583  17.872  0.00  0.00    +0.000 A 
ATOM      2  C   UNL     1       4.995   5.575  17.020  0.00  0.00    +0.000 A 
ATOM      3  C   UNL     1       5.202   6.447  15.811  0.00  0.00    +0.000 C 
ATOM      4  C   UNL     1       6.084   4.592  17.242  0.00  0.00    +0.000 A 
ATOM      5  O   UNL     1       7.055   4.509  16.498  0.00  0.00    +0.000 OA
ATOM      6  N   UNL     1       5.950   3.779  18.322  0.00  0.00    +0.000 N 
ATOM      7  C   UNL     1       4.875   3.730  19.156  0.00  0.00    +0.000 A 
ATOM      8  O   UNL     1       4.849   2.887  20.052  0.00  0.00    +0.000 OA
ATOM      9  N   UNL     1       3.863   4.647  18.912  0.00  0.00    +0.000 N 
ATOM     10  H   UNL     1       6.680   3.102  18.479  0.00  0.00    +0.000 HD
ENDROOT
BRANCH   1  13
ATOM     11  C   UNL     1       1.806   8.796  17.832  0.00  0.00    +0.000 C 
ATOM     12  C   UNL     1       2.918   7.826  18.073  0.00  0.00    +0.000 C 
ATOM     13  C   UNL     1       2.857   6.535  17.711  0.00  0.00    +0.000 C 
ENDBRANCH   1  13
BRANCH   9  14
ATOM     14  C   UNL     1       2.724   4.600  19.826  0.00  0.00    +0.000 C 
BRANCH  14  15
ATOM     15  O   UNL     1       1.655   3.796  19.311  0.00  0.00    +0.000 OA
BRANCH  15  16
ATOM     16  C   UNL     1       1.493   2.564  20.025  0.00  0.00    +0.000 C 
BRANCH  16  17
ATOM     17  C   UNL     1       1.542   2.859  21.522  0.00  0.00    +0.000 C 
BRANCH  17  18
ATOM     18  O   UNL     1       2.750   2.355  22.088  0.00  0.00    +0.000 OA
ATOM     19  H   UNL     1       2.638   2.452  23.052  0.00  0.00    +0.000 HD
ENDBRANCH  17  18
ENDBRANCH  16  17
ENDBRANCH  15  16
ENDBRANCH  14  15
ENDBRANCH   9  14
TORSDOF 6
ENDMDL
MODEL 2
REMARK VINA RESULT:      -6.3      0.847      1.155
REMARK  Name = 
REMARK  8 active torsions:
REMARK  status: ('A' for Active; 'I' for Inactive)
REMARK    1  A    between atoms: C_1  and  C_2
REMARK    2  A    between atoms: C_3  and  C_4
REMARK    3  A    between atoms: C_5  and  C_6
REMARK    4  A    between atoms: N_12  and  C_13
REMARK    5  A    between atoms: C_13  and  O_14
REMARK    6  A    between atoms: O_14  and  C_15
REMARK    7  A    between atoms: C_15  and  C_16
REMARK    8  A    between atoms: C_16  and  O_17
REMARK                            x       y       z     vdW  Elec       q    Type
REMARK                         _______ _______ _______ _____ _____    ______ ____
ROOT
ATOM      1  C   UNL     1       3.914   5.651  17.920  0.00  0.00    +0.000 A 
ATOM      2  C   UNL     1       4.916   5.563  17.022  0.00  0.00    +0.000 A 
ATOM      3  C   UNL     1       5.115   6.394  15.782  0.00  0.00    +0.000 C 
ATOM      4  C   UNL     1       5.956   4.524  17.220  0.00  0.00    +0.000 A 
ATOM      5  O   UNL     1       6.886   4.368  16.435  0.00  0.00    +0.000 OA
ATOM      6  N   UNL     1       5.827   3.747  18.326  0.00  0.00    +0.000 N 
ATOM      7  C   UNL     1       4.792   3.779  19.209  0.00  0.00    +0.000 A 
ATOM      8  O   UNL     1       4.760   2.960  20.126  0.00  0.00    +0.000 OA
ATOM      9  N   UNL     1       3.823   4.747  18.987  0.00  0.00    +0.000 N 
ATOM     10  H   UNL     1       6.525   3.032  18.467  0.00  0.00    +0.000 HD
ENDROOT
BRANCH   1  13
ATOM     11  C   UNL     1       1.972   8.990  17.836  0.00  0.00    +0.000 C 
ATOM     12  C   UNL     1       3.040   7.966  18.051  0.00  0.00    +0.000 C 
ATOM     13  C   UNL     1       2.871   6.662  17.785  0.00  0.00    +0.000 C 
ENDBRANCH   1  13
BRANCH   9  14
ATOM     14  C   UNL     1       2.727   4.787  19.953  0.00  0.00    +0.000 C 
BRANCH  14  15
ATOM     15  O   UNL     1       1.496   4.318  19.388  0.00  0.00    +0.000 OA
BRANCH  15  16
ATOM     16  C   UNL     1       1.124   3.020  19.868  0.00  0.00    +0.000 C 
BRANCH  16  17
ATOM     17  C   UNL     1       1.179   2.036  18.702  0.00  0.00    +0.000 C 
BRANCH  17  18
ATOM     18  O   UNL     1       2.462   1.416  18.635  0.00  0.00    +0.000 OA
ATOM     19  H   UNL     1       2.291   0.514  18.308  0.00  0.00    +0.000 HD
ENDBRANCH  17  18
ENDBRANCH  16  17
ENDBRANCH  15  16
ENDBRANCH  14  15
ENDBRANCH   9  14
TORSDOF 6
ENDMDL
MODEL 3
REMARK VINA RESULT:      -6.2      1.499      4.411
REMARK  Name = 
REMARK  8 active torsions:
REMARK  status: ('A' for Active; 'I' for Inactive)
REMARK    1  A    between atoms: C_1  and  C_2
REMARK    2  A    between atoms: C_3  and  C_4
REMARK    3  A    between atoms: C_5  and  C_6
REMARK    4  A    between atoms: N_12  and  C_13
REMARK    5  A    between atoms: C_13  and  O_14
REMARK    6  A    between atoms: O_14  and  C_15
REMARK    7  A    between atoms: C_15  and  C_16
REMARK    8  A    between atoms: C_16  and  O_17
REMARK                            x       y       z     vdW  Elec       q    Type
REMARK                         _______ _______ _______ _____ _____    ______ ____
ROOT
ATOM      1  C   UNL     1       3.867   5.535  18.255  0.00  0.00    +0.000 A 
ATOM      2  C   UNL     1       3.302   4.562  18.998  0.00  0.00    +0.000 A 
ATOM      3  C   UNL     1       1.859   4.438  19.409  0.00  0.00    +0.000 C 
ATOM      4  C   UNL     1       4.168   3.476  19.519  0.00  0.00    +0.000 A 
ATOM      5  O   UNL     1       3.733   2.568  20.220  0.00  0.00    +0.000 OA
ATOM      6  N   UNL     1       5.481   3.536  19.177  0.00  0.00    +0.000 N 
ATOM      7  C   UNL     1       6.080   4.541  18.481  0.00  0.00    +0.000 A 
ATOM      8  O   UNL     1       7.297   4.509  18.309  0.00  0.00    +0.000 OA
ATOM      9  N   UNL     1       5.248   5.554  18.025  0.00  0.00    +0.000 N 
ATOM     10  H   UNL     1       6.081   2.807  19.531  0.00  0.00    +0.000 HD
ENDROOT
BRANCH   1  13
ATOM     11  C   UNL     1       1.895   8.826  17.797  0.00  0.00    +0.000 C 
ATOM     12  C   UNL     1       2.659   7.693  18.406  0.00  0.00    +0.000 C 
ATOM     13  C   UNL     1       3.063   6.622  17.706  0.00  0.00    +0.000 C 
ENDBRANCH   1  13
BRANCH   9  14
ATOM     14  C   UNL     1       5.898   6.618  17.261  0.00  0.00    +0.000 C 
BRANCH  14  15
ATOM     15  O   UNL     1       6.522   6.120  16.070  0.00  0.00    +0.000 OA
BRANCH  15  16
ATOM     16  C   UNL     1       5.590   5.507  15.170  0.00  0.00    +0.000 C 
BRANCH  16  17
ATOM     17  C   UNL     1       6.234   4.251  14.586  0.00  0.00    +0.000 C 
BRANCH  17  18
ATOM     18  O   UNL     1       6.200   3.188  15.537  0.00  0.00    +0.000 OA
ATOM     19  H   UNL     1       5.825   3.583  16.346  0.00  0.00    +0.000 HD
ENDBRANCH  17  18
ENDBRANCH  16  17
ENDBRANCH  15  16
ENDBRANCH  14  15
ENDBRANCH   9  14
TORSDOF 6
ENDMDL
MODEL 4
REMARK VINA RESULT:      -6.1      1.937      4.754
REMARK  Name = 
REMARK  8 active torsions:
REMARK  status: ('A' for Active; 'I' for Inactive)
REMARK    1  A    between atoms: C_1  and  C_2
REMARK    2  A    between atoms: C_3  and  C_4
REMARK    3  A    between atoms: C_5  and  C_6
REMARK    4  A    between atoms: N_12  and  C_13
REMARK    5  A    between atoms: C_13  and  O_14
REMARK    6  A    between atoms: O_14  and  C_15
REMARK    7  A    between atoms: C_15  and  C_16
REMARK    8  A    between atoms: C_16  and  O_17
REMARK                            x       y       z     vdW  Elec       q    Type
REMARK                         _______ _______ _______ _____ _____    ______ ____
ROOT
ATOM      1  C   UNL     1       2.916   4.236  19.485  0.00  0.00    +0.000 A 
ATOM      2  C   UNL     1       1.930   3.996  20.372  0.00  0.00    +0.000 A 
ATOM      3  C   UNL     1       0.646   4.763  20.549  0.00  0.00    +0.000 C 
ATOM      4  C   UNL     1       2.091   2.872  21.326  0.00  0.00    +0.000 A 
ATOM      5  O   UNL     1       1.248   2.606  22.176  0.00  0.00    +0.000 OA
ATOM      6  N   UNL     1       3.231   2.143  21.210  0.00  0.00    +0.000 N 
ATOM      7  C   UNL     1       4.265   2.406  20.364  0.00  0.00    +0.000 A 
ATOM      8  O   UNL     1       5.277   1.709  20.419  0.00  0.00    +0.000 OA
ATOM      9  N   UNL     1       4.094   3.477  19.498  0.00  0.00    +0.000 N 
ATOM     10  H   UNL     1       3.355   1.380  21.858  0.00  0.00    +0.000 HD
ENDROOT
BRANCH   1  13
ATOM     11  C   UNL     1       2.957   7.697  17.771  0.00  0.00    +0.000 C 
ATOM     12  C   UNL     1       3.006   6.616  18.802  0.00  0.00    +0.000 C 
ATOM     13  C   UNL     1       2.808   5.319  18.515  0.00  0.00    +0.000 C 
ENDBRANCH   1  13
BRANCH   9  14
ATOM     14  C   UNL     1       5.201   3.737  18.580  0.00  0.00    +0.000 C 
BRANCH  14  15
ATOM     15  O   UNL     1       6.237   4.515  19.194  0.00  0.00    +0.000 OA
BRANCH  15  16
ATOM     16  C   UNL     1       6.582   5.680  18.432  0.00  0.00    +0.000 C 
BRANCH  16  17
ATOM     17  C   UNL     1       7.928   6.203  18.929  0.00  0.00    +0.000 C 
BRANCH  17  18
ATOM     18  O   UNL     1       8.387   5.425  20.033  0.00  0.00    +0.000 OA
ATOM     19  H   UNL     1       7.734   5.580  20.741  0.00  0.00    +0.000 HD
ENDBRANCH  17  18
ENDBRANCH  16  17
ENDBRANCH  15  16
ENDBRANCH  14  15
ENDBRANCH   9  14
TORSDOF 6
ENDMDL
MODEL 5
REMARK VINA RESULT:      -6.1      1.756      4.400
REMARK  Name = 
REMARK  8 active torsions:
REMARK  status: ('A' for Active; 'I' for Inactive)
REMARK    1  A    between atoms: C_1  and  C_2
REMARK    2  A    between atoms: C_3  and  C_4
REMARK    3  A    between atoms: C_5  and  C_6
REMARK    4  A    between atoms: N_12  and  C_13
REMARK    5  A    between atoms: C_13  and  O_14
REMARK    6  A    between atoms: O_14  and  C_15
REMARK    7  A    between atoms: C_15  and  C_16
REMARK    8  A    between atoms: C_16  and  O_17
REMARK                            x       y       z     vdW  Elec       q    Type
REMARK                         _______ _______ _______ _____ _____    ______ ____
ROOT
ATOM      1  C   UNL     1       3.360   5.506  18.121  0.00  0.00    +0.000 A 
ATOM      2  C   UNL     1       2.739   4.499  18.769  0.00  0.00    +0.000 A 
ATOM      3  C   UNL     1       1.691   4.606  19.844  0.00  0.00    +0.000 C 
ATOM      4  C   UNL     1       3.117   3.104  18.437  0.00  0.00    +0.000 A 
ATOM      5  O   UNL     1       2.613   2.136  18.998  0.00  0.00    +0.000 OA
ATOM      6  N   UNL     1       4.058   2.948  17.471  0.00  0.00    +0.000 N 
ATOM      7  C   UNL     1       4.740   3.950  16.851  0.00  0.00    +0.000 A 
ATOM      8  O   UNL     1       5.627   3.665  16.048  0.00  0.00    +0.000 OA
ATOM      9  N   UNL     1       4.379   5.245  17.196  0.00  0.00    +0.000 N 
ATOM     10  H   UNL     1       4.328   2.004  17.242  0.00  0.00    +0.000 HD
ENDROOT
BRANCH   1  13
ATOM     11  C   UNL     1       1.743   9.014  18.048  0.00  0.00    +0.000 C 
ATOM     12  C   UNL     1       2.121   7.610  17.699  0.00  0.00    +0.000 C 
ATOM     13  C   UNL     1       3.021   6.898  18.396  0.00  0.00    +0.000 C 
ENDBRANCH   1  13
BRANCH   9  14
ATOM     14  C   UNL     1       5.103   6.314  16.509  0.00  0.00    +0.000 C 
BRANCH  14  15
ATOM     15  O   UNL     1       6.014   6.993  17.382  0.00  0.00    +0.000 OA
BRANCH  15  16
ATOM     16  C   UNL     1       7.358   6.510  17.267  0.00  0.00    +0.000 C 
BRANCH  16  17
ATOM     17  C   UNL     1       7.664   5.630  18.476  0.00  0.00    +0.000 C 
BRANCH  17  18
ATOM     18  O   UNL     1       7.875   4.280  18.067  0.00  0.00    +0.000 OA
ATOM     19  H   UNL     1       8.608   4.320  17.425  0.00  0.00    +0.000 HD
ENDBRANCH  17  18
ENDBRANCH  16  17
ENDBRANCH  15  16
ENDBRANCH  14  15
ENDBRANCH   9  14
TORSDOF 6
ENDMDL
MODEL 6
REMARK VINA RESULT:      -6.1      1.239      1.241
REMARK  Name = 
REMARK  8 active torsions:
REMARK  status: ('A' for Active; 'I' for Inactive)
REMARK    1  A    between atoms: C_1  and  C_2
REMARK    2  A    between atoms: C_3  and  C_4
REMARK    3  A    between atoms: C_5  and  C_6
REMARK    4  A    between atoms: N_12  and  C_13
REMARK    5  A    between atoms: C_13  and  O_14
REMARK    6  A    between atoms: O_14  and  C_15
REMARK    7  A    between atoms: C_15  and  C_16
REMARK    8  A    between atoms: C_16  and  O_17
REMARK                            x       y       z     vdW  Elec       q    Type
REMARK                         _______ _______ _______ _____ _____    ______ ____
ROOT
ATOM      1  C   UNL     1       4.295   5.867  17.867  0.00  0.00    +0.000 A 
ATOM      2  C   UNL     1       5.565   5.918  17.419  0.00  0.00    +0.000 A 
ATOM      3  C   UNL     1       6.421   7.140  17.219  0.00  0.00    +0.000 C 
ATOM      4  C   UNL     1       6.235   4.650  17.040  0.00  0.00    +0.000 A 
ATOM      5  O   UNL     1       7.381   4.617  16.604  0.00  0.00    +0.000 OA
ATOM      6  N   UNL     1       5.508   3.514  17.202  0.00  0.00    +0.000 N 
ATOM      7  C   UNL     1       4.206   3.447  17.593  0.00  0.00    +0.000 A 
ATOM      8  O   UNL     1       3.644   2.354  17.621  0.00  0.00    +0.000 OA
ATOM      9  N   UNL     1       3.600   4.651  17.921  0.00  0.00    +0.000 N 
ATOM     10  H   UNL     1       5.951   2.646  16.941  0.00  0.00    +0.000 HD
ENDROOT
BRANCH   1  13
ATOM     11  C   UNL     1       2.097   9.044  17.886  0.00  0.00    +0.000 C 
ATOM     12  C   UNL     1       2.867   7.845  17.433  0.00  0.00    +0.000 C 
ATOM     13  C   UNL     1       3.590   7.080  18.266  0.00  0.00    +0.000 C 
ENDBRANCH   1  13
BRANCH   9  14
ATOM     14  C   UNL     1       2.208   4.566  18.360  0.00  0.00    +0.000 C 
BRANCH  14  15
ATOM     15  O   UNL     1       2.099   4.475  19.786  0.00  0.00    +0.000 OA
BRANCH  15  16
ATOM     16  C   UNL     1       0.931   3.759  20.209  0.00  0.00    +0.000 C 
BRANCH  16  17
ATOM     17  C   UNL     1       1.350   2.708  21.234  0.00  0.00    +0.000 C 
BRANCH  17  18
ATOM     18  O   UNL     1       2.231   3.278  22.199  0.00  0.00    +0.000 OA
ATOM     19  H   UNL     1       1.944   2.909  23.054  0.00  0.00    +0.000 HD
ENDBRANCH  17  18
ENDBRANCH  16  17
ENDBRANCH  15  16
ENDBRANCH  14  15
ENDBRANCH   9  14
TORSDOF 6
ENDMDL
MODEL 7
REMARK VINA RESULT:      -6.0      1.495      1.655
REMARK  Name = 
REMARK  8 active torsions:
REMARK  status: ('A' for Active; 'I' for Inactive)
REMARK    1  A    between atoms: C_1  and  C_2
REMARK    2  A    between atoms: C_3  and  C_4
REMARK    3  A    between atoms: C_5  and  C_6
REMARK    4  A    between atoms: N_12  and  C_13
REMARK    5  A    between atoms: C_13  and  O_14
REMARK    6  A    between atoms: O_14  and  C_15
REMARK    7  A    between atoms: C_15  and  C_16
REMARK    8  A    between atoms: C_16  and  O_17
REMARK                            x       y       z     vdW  Elec       q    Type
REMARK                         _______ _______ _______ _____ _____    ______ ____
ROOT
ATOM      1  C   UNL     1       4.339   5.890  17.832  0.00  0.00    +0.000 A 
ATOM      2  C   UNL     1       5.620   5.982  17.423  0.00  0.00    +0.000 A 
ATOM      3  C   UNL     1       6.454   7.228  17.286  0.00  0.00    +0.000 C 
ATOM      4  C   UNL     1       6.329   4.741  17.026  0.00  0.00    +0.000 A 
ATOM      5  O   UNL     1       7.487   4.747  16.623  0.00  0.00    +0.000 OA
ATOM      6  N   UNL     1       5.623   3.585  17.132  0.00  0.00    +0.000 N 
ATOM      7  C   UNL     1       4.313   3.479  17.483  0.00  0.00    +0.000 A 
ATOM      8  O   UNL     1       3.774   2.373  17.462  0.00  0.00    +0.000 OA
ATOM      9  N   UNL     1       3.670   4.659  17.830  0.00  0.00    +0.000 N 
ATOM     10  H   UNL     1       6.093   2.736  16.858  0.00  0.00    +0.000 HD
ENDROOT
BRANCH   1  13
ATOM     11  C   UNL     1       2.083   9.026  17.881  0.00  0.00    +0.000 C 
ATOM     12  C   UNL     1       2.892   7.858  17.415  0.00  0.00    +0.000 C 
ATOM     13  C   UNL     1       3.596   7.075  18.248  0.00  0.00    +0.000 C 
ENDBRANCH   1  13
BRANCH   9  14
ATOM     14  C   UNL     1       2.269   4.530  18.225  0.00  0.00    +0.000 C 
BRANCH  14  15
ATOM     15  O   UNL     1       2.125   4.328  19.636  0.00  0.00    +0.000 OA
BRANCH  15  16
ATOM     16  C   UNL     1       1.008   3.493  19.967  0.00  0.00    +0.000 C 
BRANCH  16  17
ATOM     17  C   UNL     1       0.745   2.548  18.797  0.00  0.00    +0.000 C 
BRANCH  17  18
ATOM     18  O   UNL     1       1.538   1.369  18.923  0.00  0.00    +0.000 OA
ATOM     19  H   UNL     1       2.369   1.571  18.456  0.00  0.00    +0.000 HD
ENDBRANCH  17  18
ENDBRANCH  16  17
ENDBRANCH  15  16
ENDBRANCH  14  15
ENDBRANCH   9  14
TORSDOF 6
ENDMDL
MODEL 8
REMARK VINA RESULT:      -6.0      2.239      2.886
REMARK  Name = 
REMARK  8 active torsions:
REMARK  status: ('A' for Active; 'I' for Inactive)
REMARK    1  A    between atoms: C_1  and  C_2
REMARK    2  A    between atoms: C_3  and  C_4
REMARK    3  A    between atoms: C_5  and  C_6
REMARK    4  A    between atoms: N_12  and  C_13
REMARK    5  A    between atoms: C_13  and  O_14
REMARK    6  A    between atoms: O_14  and  C_15
REMARK    7  A    between atoms: C_15  and  C_16
REMARK    8  A    between atoms: C_16  and  O_17
REMARK                            x       y       z     vdW  Elec       q    Type
REMARK                         _______ _______ _______ _____ _____    ______ ____
ROOT
ATOM      1  C   UNL     1       5.101   4.473  16.942  0.00  0.00    +0.000 A 
ATOM      2  C   UNL     1       5.729   4.659  15.763  0.00  0.00    +0.000 A 
ATOM      3  C   UNL     1       5.163   4.474  14.381  0.00  0.00    +0.000 C 
ATOM      4  C   UNL     1       7.155   5.068  15.777  0.00  0.00    +0.000 A 
ATOM      5  O   UNL     1       7.799   5.235  14.747  0.00  0.00    +0.000 OA
ATOM      6  N   UNL     1       7.717   5.251  16.999  0.00  0.00    +0.000 N 
ATOM      7  C   UNL     1       7.119   5.009  18.198  0.00  0.00    +0.000 A 
ATOM      8  O   UNL     1       7.772   5.141  19.231  0.00  0.00    +0.000 OA
ATOM      9  N   UNL     1       5.792   4.608  18.154  0.00  0.00    +0.000 N 
ATOM     10  H   UNL     1       8.688   5.523  17.021  0.00  0.00    +0.000 HD
ENDROOT
BRANCH   1  13
ATOM     11  C   UNL     1       1.291   4.404  17.574  0.00  0.00    +0.000 C 
ATOM     12  C   UNL     1       2.734   4.793  17.600  0.00  0.00    +0.000 C 
ATOM     13  C   UNL     1       3.696   4.083  16.991  0.00  0.00    +0.000 C 
ENDBRANCH   1  13
BRANCH   9  14
ATOM     14  C   UNL     1       5.153   4.371  19.447  0.00  0.00    +0.000 C 
BRANCH  14  15
ATOM     15  O   UNL     1       5.250   2.999  19.851  0.00  0.00    +0.000 OA
BRANCH  15  16
ATOM     16  C   UNL     1       3.972   2.404  20.108  0.00  0.00    +0.000 C 
BRANCH  16  17
ATOM     17  C   UNL     1       3.703   1.349  19.036  0.00  0.00    +0.000 C 
BRANCH  17  18
ATOM     18  O   UNL     1       2.319   1.333  18.692  0.00  0.00    +0.000 OA
ATOM     19  H   UNL     1       1.916   0.678  19.293  0.00  0.00    +0.000 HD
ENDBRANCH  17  18
ENDBRANCH  16  17
ENDBRANCH  15  16
ENDBRANCH  14  15
ENDBRANCH   9  14
TORSDOF 6
ENDMDL
MODEL 9
REMARK VINA RESULT:      -5.9      1.442      4.564
REMARK  Name = 
REMARK  8 active torsions:
REMARK  status: ('A' for Active; 'I' for Inactive)
REMARK    1  A    between atoms: C_1  and  C_2
REMARK    2  A    between atoms: C_3  and  C_4
REMARK    3  A    between atoms: C_5  and  C_6
REMARK    4  A    between atoms: N_12  and  C_13
REMARK    5  A    between atoms: C_13  and  O_14
REMARK    6  A    between atoms: O_14  and  C_15
REMARK    7  A    between atoms: C_15  and  C_16
REMARK    8  A    between atoms: C_16  and  O_17
REMARK                            x       y       z     vdW  Elec       q    Type
REMARK                         _______ _______ _______ _____ _____    ______ ____
ROOT
ATOM      1  C   UNL     1       3.100   5.327  18.877  0.00  0.00    +0.000 A 
ATOM      2  C   UNL     1       2.558   4.514  19.806  0.00  0.00    +0.000 A 
ATOM      3  C   UNL     1       1.175   4.586  20.397  0.00  0.00    +0.000 C 
ATOM      4  C   UNL     1       3.390   3.419  20.363  0.00  0.00    +0.000 A 
ATOM      5  O   UNL     1       2.976   2.653  21.226  0.00  0.00    +0.000 OA
ATOM      6  N   UNL     1       4.648   3.306  19.863  0.00  0.00    +0.000 N 
ATOM      7  C   UNL     1       5.233   4.153  18.972  0.00  0.00    +0.000 A 
ATOM      8  O   UNL     1       6.411   3.979  18.664  0.00  0.00    +0.000 OA
ATOM      9  N   UNL     1       4.437   5.179  18.485  0.00  0.00    +0.000 N 
ATOM     10  H   UNL     1       5.226   2.570  20.239  0.00  0.00    +0.000 HD
ENDROOT
BRANCH   1  13
ATOM     11  C   UNL     1       1.679   8.801  17.965  0.00  0.00    +0.000 C 
ATOM     12  C   UNL     1       2.436   7.702  18.639  0.00  0.00    +0.000 C 
ATOM     13  C   UNL     1       2.325   6.412  18.285  0.00  0.00    +0.000 C 
ENDBRANCH   1  13
BRANCH   9  14
ATOM     14  C   UNL     1       5.068   6.070  17.513  0.00  0.00    +0.000 C 
BRANCH  14  15
ATOM     15  O   UNL     1       4.887   5.612  16.167  0.00  0.00    +0.000 OA
BRANCH  15  16
ATOM     16  C   UNL     1       6.050   5.810  15.352  0.00  0.00    +0.000 C 
BRANCH  16  17
ATOM     17  C   UNL     1       6.825   4.496  15.285  0.00  0.00    +0.000 C 
BRANCH  17  18
ATOM     18  O   UNL     1       7.859   4.479  16.267  0.00  0.00    +0.000 OA
ATOM     19  H   UNL     1       7.532   3.886  16.969  0.00  0.00    +0.000 HD
ENDBRANCH  17  18
ENDBRANCH  16  17
ENDBRANCH  15  16
ENDBRANCH  14  15
ENDBRANCH   9  14
TORSDOF 6
ENDMDL
