MODEL 1
REMARK VINA RESULT:      -7.0      0.000      0.000
REMARK  Name = 
REMARK  5 active torsions:
REMARK  status: ('A' for Active; 'I' for Inactive)
REMARK    1  A    between atoms: C_1  and  C_2
REMARK    2  A    between atoms: N_13  and  C_14
REMARK    3  A    between atoms: C_24  and  C_25
REMARK    4  A    between atoms: C_24  and  C_26
REMARK    5  A    between atoms: C_28  and  C_29
REMARK                            x       y       z     vdW  Elec       q    Type
REMARK                         _______ _______ _______ _____ _____    ______ ____
ROOT
ATOM      1  C   UNL     1       4.306  15.345  17.442  0.00  0.00    +0.000 C 
ATOM      2  C   UNL     1       5.352  15.283  18.517  0.00  0.00    +0.000 A 
ATOM      3  C   UNL     1       4.989  15.088  19.870  0.00  0.00    +0.000 A 
ATOM      4  C   UNL     1       5.944  15.012  20.897  0.00  0.00    +0.000 A 
ATOM      5  C   UNL     1       7.261  15.131  20.508  0.00  0.00    +0.000 A 
ATOM      6  C   UNL     1       7.648  15.267  19.173  0.00  0.00    +0.000 A 
ATOM      7  C   UNL     1       6.701  15.363  18.163  0.00  0.00    +0.000 A 
ATOM      8  C   UNL     1       9.142  15.209  19.082  0.00  0.00    +0.000 C 
ATOM      9  S   UNL     1       9.776  16.823  18.505  0.00  0.00    +0.000 S 
ATOM     10  C   UNL     1      11.185  16.067  17.712  0.00  0.00    +0.000 C 
ATOM     11  C   UNL     1      10.830  14.621  17.462  0.00  0.00    +0.000 C 
ATOM     12  O   UNL     1      11.463  13.957  16.646  0.00  0.00    +0.000 OA
ATOM     13  N   UNL     1       9.751  14.173  18.242  0.00  0.00    +0.000 N 
ATOM     14  C   UNL     1       9.561  15.044  20.587  0.00  0.00    +0.000 C 
ATOM     15  O   UNL     1      10.707  14.942  21.007  0.00  0.00    +0.000 OA
ATOM     16  N   UNL     1       8.371  15.025  21.342  0.00  0.00    +0.000 N 
ATOM     17  C   UNL     1       8.260  14.930  22.802  0.00  0.00    +0.000 C 
ATOM     18  C   UNL     1       8.975  13.657  23.301  0.00  0.00    +0.000 C 
ATOM     19  C   UNL     1       8.981  16.145  23.437  0.00  0.00    +0.000 C 
ATOM     20  C   UNL     1       6.774  14.933  23.316  0.00  0.00    +0.000 C 
ATOM     21  C   UNL     1       5.648  14.576  22.311  0.00  0.00    +0.000 C 
ATOM     22  C   UNL     1       4.276  15.034  22.852  0.00  0.00    +0.000 C 
ENDROOT
BRANCH  13  23
ATOM     23  C   UNL     1       9.534  12.763  18.468  0.00  0.00    +0.000 A 
ATOM     24  C   UNL     1       8.573  12.063  17.715  0.00  0.00    +0.000 A 
ATOM     25  C   UNL     1       8.355  10.687  17.893  0.00  0.00    +0.000 A 
ATOM     26  C   UNL     1       9.098   9.998  18.833  0.00  0.00    +0.000 A 
ATOM     27  F   UNL     1       8.895   8.686  19.006  0.00  0.00    +0.000 F 
ATOM     28  C   UNL     1      10.048  10.651  19.597  0.00  0.00    +0.000 A 
ATOM     29  C   UNL     1      10.266  12.025  19.411  0.00  0.00    +0.000 A 
ENDBRANCH  13  23
TORSDOF 1
ENDMDL
MODEL 2
REMARK VINA RESULT:      -6.9      8.749     11.331
REMARK  Name = 
REMARK  5 active torsions:
REMARK  status: ('A' for Active; 'I' for Inactive)
REMARK    1  A    between atoms: C_1  and  C_2
REMARK    2  A    between atoms: N_13  and  C_14
REMARK    3  A    between atoms: C_24  and  C_25
REMARK    4  A    between atoms: C_24  and  C_26
REMARK    5  A    between atoms: C_28  and  C_29
REMARK                            x       y       z     vdW  Elec       q    Type
REMARK                         _______ _______ _______ _____ _____    ______ ____
ROOT
ATOM      1  C   UNL     1      -6.280  12.872  18.998  0.00  0.00    +0.000 C 
ATOM      2  C   UNL     1      -4.835  12.539  19.232  0.00  0.00    +0.000 A 
ATOM      3  C   UNL     1      -4.129  11.707  18.333  0.00  0.00    +0.000 A 
ATOM      4  C   UNL     1      -2.774  11.386  18.516  0.00  0.00    +0.000 A 
ATOM      5  C   UNL     1      -2.166  11.938  19.624  0.00  0.00    +0.000 A 
ATOM      6  C   UNL     1      -2.827  12.808  20.496  0.00  0.00    +0.000 A 
ATOM      7  C   UNL     1      -4.171  13.105  20.324  0.00  0.00    +0.000 A 
ATOM      8  C   UNL     1      -1.847  13.348  21.492  0.00  0.00    +0.000 C 
ATOM      9  S   UNL     1      -2.295  12.754  23.162  0.00  0.00    +0.000 S 
ATOM     10  C   UNL     1      -1.621  14.213  23.939  0.00  0.00    +0.000 C 
ATOM     11  C   UNL     1      -1.581  15.297  22.888  0.00  0.00    +0.000 C 
ATOM     12  O   UNL     1      -1.481  16.477  23.214  0.00  0.00    +0.000 OA
ATOM     13  N   UNL     1      -1.665  14.800  21.576  0.00  0.00    +0.000 N 
ATOM     14  C   UNL     1      -0.515  12.627  21.074  0.00  0.00    +0.000 C 
ATOM     15  O   UNL     1       0.578  12.769  21.608  0.00  0.00    +0.000 OA
ATOM     16  N   UNL     1      -0.824  11.808  19.969  0.00  0.00    +0.000 N 
ATOM     17  C   UNL     1       0.094  10.912  19.258  0.00  0.00    +0.000 C 
ATOM     18  C   UNL     1       1.307  11.709  18.735  0.00  0.00    +0.000 C 
ATOM     19  C   UNL     1       0.630   9.854  20.256  0.00  0.00    +0.000 C 
ATOM     20  C   UNL     1      -0.584  10.143  18.066  0.00  0.00    +0.000 C 
ATOM     21  C   UNL     1      -1.907  10.706  17.486  0.00  0.00    +0.000 C 
ATOM     22  C   UNL     1      -2.630   9.631  16.645  0.00  0.00    +0.000 C 
ENDROOT
BRANCH  13  23
ATOM     23  C   UNL     1      -1.227  15.594  20.453  0.00  0.00    +0.000 A 
ATOM     24  C   UNL     1      -2.015  16.664  19.991  0.00  0.00    +0.000 A 
ATOM     25  C   UNL     1      -1.606  17.471  18.916  0.00  0.00    +0.000 A 
ATOM     26  C   UNL     1      -0.402  17.211  18.290  0.00  0.00    +0.000 A 
ATOM     27  F   UNL     1      -0.007  17.977  17.267  0.00  0.00    +0.000 F 
ATOM     28  C   UNL     1       0.398  16.164  18.711  0.00  0.00    +0.000 A 
ATOM     29  C   UNL     1      -0.012  15.364  19.789  0.00  0.00    +0.000 A 
ENDBRANCH  13  23
TORSDOF 1
ENDMDL
MODEL 3
REMARK VINA RESULT:      -6.7      8.661     11.181
REMARK  Name = 
REMARK  5 active torsions:
REMARK  status: ('A' for Active; 'I' for Inactive)
REMARK    1  A    between atoms: C_1  and  C_2
REMARK    2  A    between atoms: N_13  and  C_14
REMARK    3  A    between atoms: C_24  and  C_25
REMARK    4  A    between atoms: C_24  and  C_26
REMARK    5  A    between atoms: C_28  and  C_29
REMARK                            x       y       z     vdW  Elec       q    Type
REMARK                         _______ _______ _______ _____ _____    ______ ____
ROOT
ATOM      1  C   UNL     1      -6.250  13.228  19.747  0.00  0.00    +0.000 C 
ATOM      2  C   UNL     1      -4.790  12.895  19.846  0.00  0.00    +0.000 A 
ATOM      3  C   UNL     1      -4.190  11.994  18.936  0.00  0.00    +0.000 A 
ATOM      4  C   UNL     1      -2.824  11.671  18.993  0.00  0.00    +0.000 A 
ATOM      5  C   UNL     1      -2.097  12.291  19.988  0.00  0.00    +0.000 A 
ATOM      6  C   UNL     1      -2.655  13.226  20.863  0.00  0.00    +0.000 A 
ATOM      7  C   UNL     1      -4.009  13.527  20.817  0.00  0.00    +0.000 A 
ATOM      8  C   UNL     1      -1.571  13.822  21.708  0.00  0.00    +0.000 C 
ATOM      9  S   UNL     1      -1.836  13.350  23.453  0.00  0.00    +0.000 S 
ATOM     10  C   UNL     1      -1.076  14.851  24.049  0.00  0.00    +0.000 C 
ATOM     11  C   UNL     1      -1.146  15.860  22.927  0.00  0.00    +0.000 C 
ATOM     12  O   UNL     1      -1.007  17.058  23.158  0.00  0.00    +0.000 OA
ATOM     13  N   UNL     1      -1.374  15.274  21.670  0.00  0.00    +0.000 N 
ATOM     14  C   UNL     1      -0.295  13.059  21.199  0.00  0.00    +0.000 C 
ATOM     15  O   UNL     1       0.850  13.225  21.600  0.00  0.00    +0.000 OA
ATOM     16  N   UNL     1      -0.726  12.170  20.193  0.00  0.00    +0.000 N 
ATOM     17  C   UNL     1       0.106  11.216  19.451  0.00  0.00    +0.000 C 
ATOM     18  C   UNL     1       1.258  11.961  18.746  0.00  0.00    +0.000 C 
ATOM     19  C   UNL     1       0.743  10.223  20.457  0.00  0.00    +0.000 C 
ATOM     20  C   UNL     1      -0.701  10.375  18.396  0.00  0.00    +0.000 C 
ATOM     21  C   UNL     1      -2.077  10.912  17.925  0.00  0.00    +0.000 C 
ATOM     22  C   UNL     1      -2.891   9.790  17.244  0.00  0.00    +0.000 C 
ENDROOT
BRANCH  13  23
ATOM     23  C   UNL     1      -1.058  15.984  20.453  0.00  0.00    +0.000 A 
ATOM     24  C   UNL     1       0.163  15.755  19.794  0.00  0.00    +0.000 A 
ATOM     25  C   UNL     1       0.491  16.411  18.596  0.00  0.00    +0.000 A 
ATOM     26  C   UNL     1      -0.405  17.309  18.047  0.00  0.00    +0.000 A 
ATOM     27  F   UNL     1      -0.099  17.936  16.905  0.00  0.00    +0.000 F 
ATOM     28  C   UNL     1      -1.614  17.567  18.668  0.00  0.00    +0.000 A 
ATOM     29  C   UNL     1      -1.938  16.904  19.862  0.00  0.00    +0.000 A 
ENDBRANCH  13  23
TORSDOF 1
ENDMDL
MODEL 4
REMARK VINA RESULT:      -6.4      9.060     11.901
REMARK  Name = 
REMARK  5 active torsions:
REMARK  status: ('A' for Active; 'I' for Inactive)
REMARK    1  A    between atoms: C_1  and  C_2
REMARK    2  A    between atoms: N_13  and  C_14
REMARK    3  A    between atoms: C_24  and  C_25
REMARK    4  A    between atoms: C_24  and  C_26
REMARK    5  A    between atoms: C_28  and  C_29
REMARK                            x       y       z     vdW  Elec       q    Type
REMARK                         _______ _______ _______ _____ _____    ______ ____
ROOT
ATOM      1  C   UNL     1      -6.307  12.833  18.494  0.00  0.00    +0.000 C 
ATOM      2  C   UNL     1      -4.968  12.550  19.111  0.00  0.00    +0.000 A 
ATOM      3  C   UNL     1      -3.983  11.822  18.404  0.00  0.00    +0.000 A 
ATOM      4  C   UNL     1      -2.717  11.552  18.949  0.00  0.00    +0.000 A 
ATOM      5  C   UNL     1      -2.485  12.047  20.215  0.00  0.00    +0.000 A 
ATOM      6  C   UNL     1      -3.421  12.816  20.911  0.00  0.00    +0.000 A 
ATOM      7  C   UNL     1      -4.679  13.062  20.379  0.00  0.00    +0.000 A 
ATOM      8  C   UNL     1      -2.801  13.323  22.176  0.00  0.00    +0.000 C 
ATOM      9  S   UNL     1      -3.662  12.585  23.610  0.00  0.00    +0.000 S 
ATOM     10  C   UNL     1      -3.333  14.011  24.632  0.00  0.00    +0.000 C 
ATOM     11  C   UNL     1      -3.070  15.172  23.703  0.00  0.00    +0.000 C 
ATOM     12  O   UNL     1      -3.145  16.326  24.114  0.00  0.00    +0.000 OA
ATOM     13  N   UNL     1      -2.746  14.772  22.395  0.00  0.00    +0.000 N 
ATOM     14  C   UNL     1      -1.360  12.700  22.115  0.00  0.00    +0.000 C 
ATOM     15  O   UNL     1      -0.475  12.852  22.947  0.00  0.00    +0.000 OA
ATOM     16  N   UNL     1      -1.289  11.954  20.921  0.00  0.00    +0.000 N 
ATOM     17  C   UNL     1      -0.151  11.157  20.451  0.00  0.00    +0.000 C 
ATOM     18  C   UNL     1       1.105  12.047  20.346  0.00  0.00    +0.000 C 
ATOM     19  C   UNL     1       0.151  10.053  21.496  0.00  0.00    +0.000 C 
ATOM     20  C   UNL     1      -0.412  10.450  19.071  0.00  0.00    +0.000 C 
ATOM     21  C   UNL     1      -1.552  10.994  18.171  0.00  0.00    +0.000 C 
ATOM     22  C   UNL     1      -1.934   9.953  17.096  0.00  0.00    +0.000 C 
ENDROOT
BRANCH  13  23
ATOM     23  C   UNL     1      -2.063  15.669  21.494  0.00  0.00    +0.000 A 
ATOM     24  C   UNL     1      -2.783  16.372  20.510  0.00  0.00    +0.000 A 
ATOM     25  C   UNL     1      -2.152  17.270  19.634  0.00  0.00    +0.000 A 
ATOM     26  C   UNL     1      -0.788  17.470  19.732  0.00  0.00    +0.000 A 
ATOM     27  F   UNL     1      -0.182  18.325  18.901  0.00  0.00    +0.000 F 
ATOM     28  C   UNL     1      -0.044  16.793  20.682  0.00  0.00    +0.000 A 
ATOM     29  C   UNL     1      -0.680  15.901  21.558  0.00  0.00    +0.000 A 
ENDBRANCH  13  23
TORSDOF 1
ENDMDL
MODEL 5
REMARK VINA RESULT:      -6.4      8.694     11.051
REMARK  Name = 
REMARK  5 active torsions:
REMARK  status: ('A' for Active; 'I' for Inactive)
REMARK    1  A    between atoms: C_1  and  C_2
REMARK    2  A    between atoms: N_13  and  C_14
REMARK    3  A    between atoms: C_24  and  C_25
REMARK    4  A    between atoms: C_24  and  C_26
REMARK    5  A    between atoms: C_28  and  C_29
REMARK                            x       y       z     vdW  Elec       q    Type
REMARK                         _______ _______ _______ _____ _____    ______ ____
ROOT
ATOM      1  C   UNL     1      -2.412   9.920  15.785  0.00  0.00    +0.000 C 
ATOM      2  C   UNL     1      -2.722  10.799  16.962  0.00  0.00    +0.000 A 
ATOM      3  C   UNL     1      -4.016  10.814  17.533  0.00  0.00    +0.000 A 
ATOM      4  C   UNL     1      -4.334  11.615  18.642  0.00  0.00    +0.000 A 
ATOM      5  C   UNL     1      -3.307  12.383  19.149  0.00  0.00    +0.000 A 
ATOM      6  C   UNL     1      -2.008  12.342  18.638  0.00  0.00    +0.000 A 
ATOM      7  C   UNL     1      -1.701  11.567  17.529  0.00  0.00    +0.000 A 
ATOM      8  C   UNL     1      -1.108  13.166  19.508  0.00  0.00    +0.000 C 
ATOM      9  S   UNL     1      -0.489  14.596  18.554  0.00  0.00    +0.000 S 
ATOM     10  C   UNL     1       1.034  14.648  19.484  0.00  0.00    +0.000 C 
ATOM     11  C   UNL     1       1.230  13.280  20.091  0.00  0.00    +0.000 C 
ATOM     12  O   UNL     1       2.336  12.931  20.495  0.00  0.00    +0.000 OA
ATOM     13  N   UNL     1       0.051  12.516  20.128  0.00  0.00    +0.000 N 
ATOM     14  C   UNL     1      -2.104  13.714  20.593  0.00  0.00    +0.000 C 
ATOM     15  O   UNL     1      -1.812  14.439  21.535  0.00  0.00    +0.000 OA
ATOM     16  N   UNL     1      -3.377  13.199  20.275  0.00  0.00    +0.000 N 
ATOM     17  C   UNL     1      -4.634  13.470  20.981  0.00  0.00    +0.000 C 
ATOM     18  C   UNL     1      -4.495  13.080  22.467  0.00  0.00    +0.000 C 
ATOM     19  C   UNL     1      -4.919  14.992  20.926  0.00  0.00    +0.000 C 
ATOM     20  C   UNL     1      -5.872  12.729  20.357  0.00  0.00    +0.000 C 
ATOM     21  C   UNL     1      -5.611  11.507  19.439  0.00  0.00    +0.000 C 
ATOM     22  C   UNL     1      -6.866  11.182  18.600  0.00  0.00    +0.000 C 
ENDROOT
BRANCH  13  23
ATOM     23  C   UNL     1      -0.076  11.390  21.023  0.00  0.00    +0.000 A 
ATOM     24  C   UNL     1      -0.563  11.575  22.330  0.00  0.00    +0.000 A 
ATOM     25  C   UNL     1      -0.721  10.498  23.217  0.00  0.00    +0.000 A 
ATOM     26  C   UNL     1      -0.389   9.222  22.803  0.00  0.00    +0.000 A 
ATOM     27  F   UNL     1      -0.539   8.191  23.644  0.00  0.00    +0.000 F 
ATOM     28  C   UNL     1       0.099   9.000  21.528  0.00  0.00    +0.000 A 
ATOM     29  C   UNL     1       0.250  10.079  20.644  0.00  0.00    +0.000 A 
ENDBRANCH  13  23
TORSDOF 1
ENDMDL
MODEL 6
REMARK VINA RESULT:      -6.1      1.203      1.619
REMARK  Name = 
REMARK  5 active torsions:
REMARK  status: ('A' for Active; 'I' for Inactive)
REMARK    1  A    between atoms: C_1  and  C_2
REMARK    2  A    between atoms: N_13  and  C_14
REMARK    3  A    between atoms: C_24  and  C_25
REMARK    4  A    between atoms: C_24  and  C_26
REMARK    5  A    between atoms: C_28  and  C_29
REMARK                            x       y       z     vdW  Elec       q    Type
REMARK                         _______ _______ _______ _____ _____    ______ ____
ROOT
ATOM      1  C   UNL     1       4.028  15.714  17.699  0.00  0.00    +0.000 C 
ATOM      2  C   UNL     1       5.130  15.889  18.704  0.00  0.00    +0.000 A 
ATOM      3  C   UNL     1       4.895  15.674  20.082  0.00  0.00    +0.000 A 
ATOM      4  C   UNL     1       5.907  15.817  21.045  0.00  0.00    +0.000 A 
ATOM      5  C   UNL     1       7.151  16.171  20.567  0.00  0.00    +0.000 A 
ATOM      6  C   UNL     1       7.422  16.334  19.206  0.00  0.00    +0.000 A 
ATOM      7  C   UNL     1       6.415  16.213  18.259  0.00  0.00    +0.000 A 
ATOM      8  C   UNL     1       8.891  16.559  19.017  0.00  0.00    +0.000 C 
ATOM      9  S   UNL     1       9.165  18.244  18.366  0.00  0.00    +0.000 S 
ATOM     10  C   UNL     1      10.643  17.744  17.497  0.00  0.00    +0.000 C 
ATOM     11  C   UNL     1      10.559  16.250  17.302  0.00  0.00    +0.000 C 
ATOM     12  O   UNL     1      11.257  15.692  16.460  0.00  0.00    +0.000 OA
ATOM     13  N   UNL     1       9.636  15.630  18.162  0.00  0.00    +0.000 N 
ATOM     14  C   UNL     1       9.425  16.529  20.495  0.00  0.00    +0.000 C 
ATOM     15  O   UNL     1      10.592  16.661  20.840  0.00  0.00    +0.000 OA
ATOM     16  N   UNL     1       8.309  16.308  21.327  0.00  0.00    +0.000 N 
ATOM     17  C   UNL     1       8.308  16.243  22.793  0.00  0.00    +0.000 C 
ATOM     18  C   UNL     1       9.284  15.148  23.271  0.00  0.00    +0.000 C 
ATOM     19  C   UNL     1       8.819  17.594  23.353  0.00  0.00    +0.000 C 
ATOM     20  C   UNL     1       6.883  15.980  23.404  0.00  0.00    +0.000 C 
ATOM     21  C   UNL     1       5.788  15.381  22.484  0.00  0.00    +0.000 C 
ATOM     22  C   UNL     1       4.389  15.586  23.105  0.00  0.00    +0.000 C 
ENDROOT
BRANCH  13  23
ATOM     23  C   UNL     1       9.709  14.214  18.432  0.00  0.00    +0.000 A 
ATOM     24  C   UNL     1      10.753  13.694  19.218  0.00  0.00    +0.000 A 
ATOM     25  C   UNL     1      10.840  12.325  19.519  0.00  0.00    +0.000 A 
ATOM     26  C   UNL     1       9.879  11.460  19.031  0.00  0.00    +0.000 A 
ATOM     27  F   UNL     1       9.956  10.155  19.316  0.00  0.00    +0.000 F 
ATOM     28  C   UNL     1       8.840  11.931  18.249  0.00  0.00    +0.000 A 
ATOM     29  C   UNL     1       8.755  13.301  17.956  0.00  0.00    +0.000 A 
ENDBRANCH  13  23
TORSDOF 1
ENDMDL
MODEL 7
REMARK VINA RESULT:      -6.1     10.153     13.321
REMARK  Name = 
REMARK  5 active torsions:
REMARK  status: ('A' for Active; 'I' for Inactive)
REMARK    1  A    between atoms: C_1  and  C_2
REMARK    2  A    between atoms: N_13  and  C_14
REMARK    3  A    between atoms: C_24  and  C_25
REMARK    4  A    between atoms: C_24  and  C_26
REMARK    5  A    between atoms: C_28  and  C_29
REMARK                            x       y       z     vdW  Elec       q    Type
REMARK                         _______ _______ _______ _____ _____    ______ ____
ROOT
ATOM      1  C   UNL     1      -7.172  10.822  19.427  0.00  0.00    +0.000 C 
ATOM      2  C   UNL     1      -5.795  11.395  19.592  0.00  0.00    +0.000 A 
ATOM      3  C   UNL     1      -4.790  11.156  18.626  0.00  0.00    +0.000 A 
ATOM      4  C   UNL     1      -3.496  11.688  18.745  0.00  0.00    +0.000 A 
ATOM      5  C   UNL     1      -3.262  12.466  19.859  0.00  0.00    +0.000 A 
ATOM      6  C   UNL     1      -4.253  12.763  20.798  0.00  0.00    +0.000 A 
ATOM      7  C   UNL     1      -5.524  12.218  20.689  0.00  0.00    +0.000 A 
ATOM      8  C   UNL     1      -3.717  13.752  21.787  0.00  0.00    +0.000 C 
ATOM      9  S   UNL     1      -3.633  12.971  23.437  0.00  0.00    +0.000 S 
ATOM     10  C   UNL     1      -3.895  14.530  24.267  0.00  0.00    +0.000 C 
ATOM     11  C   UNL     1      -4.559  15.454  23.275  0.00  0.00    +0.000 C 
ATOM     12  O   UNL     1      -5.150  16.460  23.660  0.00  0.00    +0.000 OA
ATOM     13  N   UNL     1      -4.414  15.032  21.942  0.00  0.00    +0.000 N 
ATOM     14  C   UNL     1      -2.243  13.960  21.285  0.00  0.00    +0.000 C 
ATOM     15  O   UNL     1      -1.411  14.705  21.788  0.00  0.00    +0.000 OA
ATOM     16  N   UNL     1      -2.080  13.142  20.149  0.00  0.00    +0.000 N 
ATOM     17  C   UNL     1      -0.855  12.971  19.360  0.00  0.00    +0.000 C 
ATOM     18  C   UNL     1      -0.371  14.340  18.838  0.00  0.00    +0.000 C 
ATOM     19  C   UNL     1       0.257  12.407  20.281  0.00  0.00    +0.000 C 
ATOM     20  C   UNL     1      -1.024  11.978  18.153  0.00  0.00    +0.000 C 
ATOM     21  C   UNL     1      -2.459  11.670  17.650  0.00  0.00    +0.000 C 
ATOM     22  C   UNL     1      -2.464  10.395  16.779  0.00  0.00    +0.000 C 
ENDROOT
BRANCH  13  23
ATOM     23  C   UNL     1      -4.592  15.958  20.848  0.00  0.00    +0.000 A 
ATOM     24  C   UNL     1      -5.747  15.897  20.048  0.00  0.00    +0.000 A 
ATOM     25  C   UNL     1      -5.961  16.797  18.991  0.00  0.00    +0.000 A 
ATOM     26  C   UNL     1      -5.015  17.769  18.724  0.00  0.00    +0.000 A 
ATOM     27  F   UNL     1      -5.215  18.630  17.720  0.00  0.00    +0.000 F 
ATOM     28  C   UNL     1      -3.863  17.858  19.484  0.00  0.00    +0.000 A 
ATOM     29  C   UNL     1      -3.657  16.959  20.542  0.00  0.00    +0.000 A 
ENDBRANCH  13  23
TORSDOF 1
ENDMDL
MODEL 8
REMARK VINA RESULT:      -6.0      2.534      6.004
REMARK  Name = 
REMARK  5 active torsions:
REMARK  status: ('A' for Active; 'I' for Inactive)
REMARK    1  A    between atoms: C_1  and  C_2
REMARK    2  A    between atoms: N_13  and  C_14
REMARK    3  A    between atoms: C_24  and  C_25
REMARK    4  A    between atoms: C_24  and  C_26
REMARK    5  A    between atoms: C_28  and  C_29
REMARK                            x       y       z     vdW  Elec       q    Type
REMARK                         _______ _______ _______ _____ _____    ______ ____
ROOT
ATOM      1  C   UNL     1       9.336  10.125  19.346  0.00  0.00    +0.000 C 
ATOM      2  C   UNL     1       9.590  11.602  19.261  0.00  0.00    +0.000 A 
ATOM      3  C   UNL     1      10.305  12.152  18.172  0.00  0.00    +0.000 A 
ATOM      4  C   UNL     1      10.548  13.531  18.056  0.00  0.00    +0.000 A 
ATOM      5  C   UNL     1      10.039  14.321  19.064  0.00  0.00    +0.000 A 
ATOM      6  C   UNL     1       9.281  13.809  20.120  0.00  0.00    +0.000 A 
ATOM      7  C   UNL     1       9.062  12.444  20.243  0.00  0.00    +0.000 A 
ATOM      8  C   UNL     1       8.752  14.942  20.945  0.00  0.00    +0.000 C 
ATOM      9  S   UNL     1       9.494  14.872  22.614  0.00  0.00    +0.000 S 
ATOM     10  C   UNL     1       8.053  15.615  23.362  0.00  0.00    +0.000 C 
ATOM     11  C   UNL     1       6.896  15.387  22.420  0.00  0.00    +0.000 C 
ATOM     12  O   UNL     1       5.739  15.491  22.819  0.00  0.00    +0.000 OA
ATOM     13  N   UNL     1       7.301  15.064  21.113  0.00  0.00    +0.000 N 
ATOM     14  C   UNL     1       9.350  16.196  20.211  0.00  0.00    +0.000 C 
ATOM     15  O   UNL     1       9.175  17.365  20.529  0.00  0.00    +0.000 OA
ATOM     16  N   UNL     1      10.105  15.711  19.124  0.00  0.00    +0.000 N 
ATOM     17  C   UNL     1      10.885  16.510  18.172  0.00  0.00    +0.000 C 
ATOM     18  C   UNL     1       9.973  17.550  17.489  0.00  0.00    +0.000 C 
ATOM     19  C   UNL     1      11.974  17.289  18.951  0.00  0.00    +0.000 C 
ATOM     20  C   UNL     1      11.607  15.644  17.077  0.00  0.00    +0.000 C 
ATOM     21  C   UNL     1      11.092  14.203  16.820  0.00  0.00    +0.000 C 
ATOM     22  C   UNL     1      12.149  13.381  16.051  0.00  0.00    +0.000 C 
ENDROOT
BRANCH  13  23
ATOM     23  C   UNL     1       6.399  15.225  19.997  0.00  0.00    +0.000 A 
ATOM     24  C   UNL     1       5.507  16.311  19.956  0.00  0.00    +0.000 A 
ATOM     25  C   UNL     1       4.634  16.509  18.874  0.00  0.00    +0.000 A 
ATOM     26  C   UNL     1       4.646  15.616  17.819  0.00  0.00    +0.000 A 
ATOM     27  F   UNL     1       3.817  15.800  16.784  0.00  0.00    +0.000 F 
ATOM     28  C   UNL     1       5.504  14.531  17.825  0.00  0.00    +0.000 A 
ATOM     29  C   UNL     1       6.378  14.341  18.906  0.00  0.00    +0.000 A 
ENDBRANCH  13  23
TORSDOF 1
ENDMDL
MODEL 9
REMARK VINA RESULT:      -6.0      9.955     12.970
REMARK  Name = 
REMARK  5 active torsions:
REMARK  status: ('A' for Active; 'I' for Inactive)
REMARK    1  A    between atoms: C_1  and  C_2
REMARK    2  A    between atoms: N_13  and  C_14
REMARK    3  A    between atoms: C_24  and  C_25
REMARK    4  A    between atoms: C_24  and  C_26
REMARK    5  A    between atoms: C_28  and  C_29
REMARK                            x       y       z     vdW  Elec       q    Type
REMARK                         _______ _______ _______ _____ _____    ______ ____
ROOT
ATOM      1  C   UNL     1      -0.181  10.409  19.867  0.00  0.00    +0.000 C 
ATOM      2  C   UNL     1      -0.739  11.774  20.147  0.00  0.00    +0.000 A 
ATOM      3  C   UNL     1      -0.178  12.924  19.544  0.00  0.00    +0.000 A 
ATOM      4  C   UNL     1      -0.684  14.213  19.775  0.00  0.00    +0.000 A 
ATOM      5  C   UNL     1      -1.771  14.293  20.620  0.00  0.00    +0.000 A 
ATOM      6  C   UNL     1      -2.378  13.168  21.183  0.00  0.00    +0.000 A 
ATOM      7  C   UNL     1      -1.862  11.898  20.970  0.00  0.00    +0.000 A 
ATOM      8  C   UNL     1      -3.616  13.588  21.914  0.00  0.00    +0.000 C 
ATOM      9  S   UNL     1      -3.401  13.267  23.701  0.00  0.00    +0.000 S 
ATOM     10  C   UNL     1      -5.149  12.994  23.935  0.00  0.00    +0.000 C 
ATOM     11  C   UNL     1      -5.726  12.632  22.588  0.00  0.00    +0.000 C 
ATOM     12  O   UNL     1      -6.817  12.075  22.507  0.00  0.00    +0.000 OA
ATOM     13  N   UNL     1      -4.897  12.999  21.513  0.00  0.00    +0.000 N 
ATOM     14  C   UNL     1      -3.613  15.145  21.708  0.00  0.00    +0.000 C 
ATOM     15  O   UNL     1      -4.456  15.928  22.128  0.00  0.00    +0.000 OA
ATOM     16  N   UNL     1      -2.471  15.453  20.941  0.00  0.00    +0.000 N 
ATOM     17  C   UNL     1      -2.024  16.789  20.531  0.00  0.00    +0.000 C 
ATOM     18  C   UNL     1      -3.141  17.494  19.735  0.00  0.00    +0.000 C 
ATOM     19  C   UNL     1      -1.754  17.636  21.800  0.00  0.00    +0.000 C 
ATOM     20  C   UNL     1      -0.703  16.769  19.678  0.00  0.00    +0.000 C 
ATOM     21  C   UNL     1      -0.290  15.441  18.993  0.00  0.00    +0.000 C 
ATOM     22  C   UNL     1       1.196  15.488  18.575  0.00  0.00    +0.000 C 
ENDROOT
BRANCH  13  23
ATOM     23  C   UNL     1      -5.430  13.131  20.178  0.00  0.00    +0.000 A 
ATOM     24  C   UNL     1      -5.130  12.169  19.196  0.00  0.00    +0.000 A 
ATOM     25  C   UNL     1      -5.651  12.256  17.894  0.00  0.00    +0.000 A 
ATOM     26  C   UNL     1      -6.478  13.313  17.563  0.00  0.00    +0.000 A 
ATOM     27  F   UNL     1      -6.978  13.400  16.325  0.00  0.00    +0.000 F 
ATOM     28  C   UNL     1      -6.792  14.282  18.498  0.00  0.00    +0.000 A 
ATOM     29  C   UNL     1      -6.273  14.187  19.799  0.00  0.00    +0.000 A 
ENDBRANCH  13  23
TORSDOF 1
ENDMDL
