MODEL 1
REMARK VINA RESULT:      -7.2      0.000      0.000
REMARK  Name = 
REMARK  7 active torsions:
REMARK  status: ('A' for Active; 'I' for Inactive)
REMARK    1  A    between atoms: C_2  and  C_3
REMARK    2  A    between atoms: C_3  and  O_4
REMARK    3  A    between atoms: O_4  and  C_5
REMARK    4  A    between atoms: C_5  and  C_7
REMARK    5  A    between atoms: C_7  and  S_8
REMARK    6  A    between atoms: S_8  and  C_9
REMARK    7  A    between atoms: N_16  and  C_17
REMARK                            x       y       z     vdW  Elec       q    Type
REMARK                         _______ _______ _______ _____ _____    ______ ____
ROOT
ATOM      1  O   UNL     1       2.013   1.817  19.223  0.00  0.00    +0.000 OA
ENDROOT
BRANCH   1   2
ATOM      2  C   UNL     1       1.440   3.006  18.870  0.00  0.00    +0.000 C 
ATOM      3  O   UNL     1       1.269   3.377  17.714  0.00  0.00    +0.000 OA
BRANCH   2   4
ATOM      4  C   UNL     1       0.925   3.741  20.084  0.00  0.00    +0.000 C 
BRANCH   4   5
ATOM      5  S   UNL     1       2.254   4.705  20.876  0.00  0.00    +0.000 S 
BRANCH   5   6
ATOM      6  C   UNL     1       2.123   6.264  20.015  0.00  0.00    +0.000 A 
ATOM      7  C   UNL     1       2.546   6.451  18.694  0.00  0.00    +0.000 A 
ATOM      8  C   UNL     1       2.436   7.704  18.083  0.00  0.00    +0.000 A 
ATOM      9  C   UNL     1       1.886   8.773  18.786  0.00  0.00    +0.000 A 
ATOM     10 CL   UNL     1       1.780  10.321  18.044  0.00  0.00    +0.000 Cl
ATOM     11  C   UNL     1       1.424   8.593  20.086  0.00  0.00    +0.000 A 
ATOM     12  C   UNL     1       1.538   7.341  20.696  0.00  0.00    +0.000 A 
ENDBRANCH   5   6
ENDBRANCH   4   5
ENDBRANCH   2   4
ENDBRANCH   1   2
BRANCH   1  13
ATOM     13  C   UNL     1       3.217   1.519  18.509  0.00  0.00    +0.000 C 
BRANCH  13  15
ATOM     14  O   UNL     1       4.904   2.451  19.956  0.00  0.00    +0.000 OA
ATOM     15  C   UNL     1       4.313   2.530  18.876  0.00  0.00    +0.000 C 
ATOM     16  N   UNL     1       4.513   3.513  17.924  0.00  0.00    +0.000 N 
ATOM     17  H   UNL     1       3.813   3.630  17.204  0.00  0.00    +0.000 HD
BRANCH  16  18
ATOM     18  C   UNL     1       5.555   4.469  17.953  0.00  0.00    +0.000 A 
ATOM     19  C   UNL     1       6.094   4.962  19.145  0.00  0.00    +0.000 A 
ATOM     20  C   UNL     1       7.140   5.886  19.129  0.00  0.00    +0.000 A 
ATOM     21  C   UNL     1       7.657   6.332  17.917  0.00  0.00    +0.000 A 
ATOM     22  C   UNL     1       7.129   5.849  16.722  0.00  0.00    +0.000 A 
ATOM     23  C   UNL     1       6.090   4.911  16.738  0.00  0.00    +0.000 A 
ENDBRANCH  16  18
ENDBRANCH  13  15
ENDBRANCH   1  13
TORSDOF 7
ENDMDL
MODEL 2
REMARK VINA RESULT:      -7.1      1.752      2.534
REMARK  Name = 
REMARK  7 active torsions:
REMARK  status: ('A' for Active; 'I' for Inactive)
REMARK    1  A    between atoms: C_2  and  C_3
REMARK    2  A    between atoms: C_3  and  O_4
REMARK    3  A    between atoms: O_4  and  C_5
REMARK    4  A    between atoms: C_5  and  C_7
REMARK    5  A    between atoms: C_7  and  S_8
REMARK    6  A    between atoms: S_8  and  C_9
REMARK    7  A    between atoms: N_16  and  C_17
REMARK                            x       y       z     vdW  Elec       q    Type
REMARK                         _______ _______ _______ _____ _____    ______ ____
ROOT
ATOM      1  O   UNL     1       1.378   2.482  19.952  0.00  0.00    +0.000 OA
ENDROOT
BRANCH   1   2
ATOM      2  C   UNL     1       1.727   3.308  20.982  0.00  0.00    +0.000 C 
ATOM      3  O   UNL     1       2.345   2.951  21.979  0.00  0.00    +0.000 OA
BRANCH   2   4
ATOM      4  C   UNL     1       1.370   4.743  20.672  0.00  0.00    +0.000 C 
BRANCH   4   5
ATOM      5  S   UNL     1       2.827   5.665  20.082  0.00  0.00    +0.000 S 
BRANCH   5   6
ATOM      6  C   UNL     1       2.109   7.254  19.695  0.00  0.00    +0.000 A 
ATOM      7  C   UNL     1       1.536   8.093  20.657  0.00  0.00    +0.000 A 
ATOM      8  C   UNL     1       0.971   9.318  20.286  0.00  0.00    +0.000 A 
ATOM      9  C   UNL     1       0.991   9.715  18.951  0.00  0.00    +0.000 A 
ATOM     10 CL   UNL     1       0.267  11.206  18.491  0.00  0.00    +0.000 Cl
ATOM     11  C   UNL     1       1.593   8.909  17.989  0.00  0.00    +0.000 A 
ATOM     12  C   UNL     1       2.154   7.685  18.362  0.00  0.00    +0.000 A 
ENDBRANCH   5   6
ENDBRANCH   4   5
ENDBRANCH   2   4
ENDBRANCH   1   2
BRANCH   1  13
ATOM     13  C   UNL     1       2.491   1.859  19.304  0.00  0.00    +0.000 C 
BRANCH  13  15
ATOM     14  O   UNL     1       2.013   2.874  17.172  0.00  0.00    +0.000 OA
ATOM     15  C   UNL     1       2.863   2.634  18.032  0.00  0.00    +0.000 C 
ATOM     16  N   UNL     1       4.202   2.971  17.950  0.00  0.00    +0.000 N 
ATOM     17  H   UNL     1       4.849   2.513  18.578  0.00  0.00    +0.000 HD
BRANCH  16  18
ATOM     18  C   UNL     1       4.768   3.806  16.959  0.00  0.00    +0.000 A 
ATOM     19  C   UNL     1       5.428   3.302  15.834  0.00  0.00    +0.000 A 
ATOM     20  C   UNL     1       5.950   4.161  14.866  0.00  0.00    +0.000 A 
ATOM     21  C   UNL     1       5.822   5.539  15.015  0.00  0.00    +0.000 A 
ATOM     22  C   UNL     1       5.167   6.054  16.132  0.00  0.00    +0.000 A 
ATOM     23  C   UNL     1       4.631   5.192  17.095  0.00  0.00    +0.000 A 
ENDBRANCH  16  18
ENDBRANCH  13  15
ENDBRANCH   1  13
TORSDOF 7
ENDMDL
MODEL 3
REMARK VINA RESULT:      -7.0      4.734      6.565
REMARK  Name = 
REMARK  7 active torsions:
REMARK  status: ('A' for Active; 'I' for Inactive)
REMARK    1  A    between atoms: C_2  and  C_3
REMARK    2  A    between atoms: C_3  and  O_4
REMARK    3  A    between atoms: O_4  and  C_5
REMARK    4  A    between atoms: C_5  and  C_7
REMARK    5  A    between atoms: C_7  and  S_8
REMARK    6  A    between atoms: S_8  and  C_9
REMARK    7  A    between atoms: N_16  and  C_17
REMARK                            x       y       z     vdW  Elec       q    Type
REMARK                         _______ _______ _______ _____ _____    ______ ____
ROOT
ATOM      1  O   UNL     1       7.854   6.890  16.420  0.00  0.00    +0.000 OA
ENDROOT
BRANCH   1   2
ATOM      2  C   UNL     1       7.254   5.664  16.484  0.00  0.00    +0.000 C 
ATOM      3  O   UNL     1       7.762   4.669  16.988  0.00  0.00    +0.000 OA
BRANCH   2   4
ATOM      4  C   UNL     1       5.833   5.729  15.976  0.00  0.00    +0.000 C 
BRANCH   4   5
ATOM      5  S   UNL     1       5.150   4.057  15.732  0.00  0.00    +0.000 S 
BRANCH   5   6
ATOM      6  C   UNL     1       3.944   3.970  17.045  0.00  0.00    +0.000 A 
ATOM      7  C   UNL     1       3.364   2.772  17.477  0.00  0.00    +0.000 A 
ATOM      8  C   UNL     1       2.407   2.773  18.498  0.00  0.00    +0.000 A 
ATOM      9  C   UNL     1       2.038   3.973  19.101  0.00  0.00    +0.000 A 
ATOM     10 CL   UNL     1       0.838   3.977  20.334  0.00  0.00    +0.000 Cl
ATOM     11  C   UNL     1       2.634   5.167  18.709  0.00  0.00    +0.000 A 
ATOM     12  C   UNL     1       3.587   5.164  17.687  0.00  0.00    +0.000 A 
ENDBRANCH   5   6
ENDBRANCH   4   5
ENDBRANCH   2   4
ENDBRANCH   1   2
BRANCH   1  13
ATOM     13  C   UNL     1       7.215   7.892  17.217  0.00  0.00    +0.000 C 
BRANCH  13  15
ATOM     14  O   UNL     1       8.725   7.868  19.094  0.00  0.00    +0.000 OA
ATOM     15  C   UNL     1       8.229   8.528  18.178  0.00  0.00    +0.000 C 
ATOM     16  N   UNL     1       8.471   9.868  17.935  0.00  0.00    +0.000 N 
ATOM     17  H   UNL     1       7.832  10.366  17.329  0.00  0.00    +0.000 HD
BRANCH  16  18
ATOM     18  C   UNL     1       9.465  10.642  18.579  0.00  0.00    +0.000 A 
ATOM     19  C   UNL     1      10.536  11.218  17.890  0.00  0.00    +0.000 A 
ATOM     20  C   UNL     1      11.482  11.996  18.559  0.00  0.00    +0.000 A 
ATOM     21  C   UNL     1      11.368  12.204  19.930  0.00  0.00    +0.000 A 
ATOM     22  C   UNL     1      10.305  11.635  20.629  0.00  0.00    +0.000 A 
ATOM     23  C   UNL     1       9.349  10.867  19.955  0.00  0.00    +0.000 A 
ENDBRANCH  16  18
ENDBRANCH  13  15
ENDBRANCH   1  13
TORSDOF 7
ENDMDL
MODEL 4
REMARK VINA RESULT:      -6.9      2.265      5.095
REMARK  Name = 
REMARK  7 active torsions:
REMARK  status: ('A' for Active; 'I' for Inactive)
REMARK    1  A    between atoms: C_2  and  C_3
REMARK    2  A    between atoms: C_3  and  O_4
REMARK    3  A    between atoms: O_4  and  C_5
REMARK    4  A    between atoms: C_5  and  C_7
REMARK    5  A    between atoms: C_7  and  S_8
REMARK    6  A    between atoms: S_8  and  C_9
REMARK    7  A    between atoms: N_16  and  C_17
REMARK                            x       y       z     vdW  Elec       q    Type
REMARK                         _______ _______ _______ _____ _____    ______ ____
ROOT
ATOM      1  O   UNL     1       2.284   2.656  20.588  0.00  0.00    +0.000 OA
ENDROOT
BRANCH   1   2
ATOM      2  C   UNL     1       2.858   2.244  19.419  0.00  0.00    +0.000 C 
ATOM      3  O   UNL     1       2.340   1.460  18.631  0.00  0.00    +0.000 OA
BRANCH   2   4
ATOM      4  C   UNL     1       4.151   2.981  19.160  0.00  0.00    +0.000 C 
BRANCH   4   5
ATOM      5  S   UNL     1       4.261   3.515  17.421  0.00  0.00    +0.000 S 
BRANCH   5   6
ATOM      6  C   UNL     1       5.423   4.866  17.536  0.00  0.00    +0.000 A 
ATOM      7  C   UNL     1       6.691   4.742  18.115  0.00  0.00    +0.000 A 
ATOM      8  C   UNL     1       7.548   5.845  18.194  0.00  0.00    +0.000 A 
ATOM      9  C   UNL     1       7.145   7.074  17.678  0.00  0.00    +0.000 A 
ATOM     10 CL   UNL     1       8.186   8.437  17.804  0.00  0.00    +0.000 Cl
ATOM     11  C   UNL     1       5.903   7.203  17.064  0.00  0.00    +0.000 A 
ATOM     12  C   UNL     1       5.048   6.101  16.989  0.00  0.00    +0.000 A 
ENDBRANCH   5   6
ENDBRANCH   4   5
ENDBRANCH   2   4
ENDBRANCH   1   2
BRANCH   1  13
ATOM     13  C   UNL     1       2.779   3.911  21.067  0.00  0.00    +0.000 C 
BRANCH  13  15
ATOM     14  O   UNL     1       0.732   4.931  20.307  0.00  0.00    +0.000 OA
ATOM     15  C   UNL     1       1.945   5.062  20.487  0.00  0.00    +0.000 C 
ATOM     16  N   UNL     1       2.685   6.186  20.164  0.00  0.00    +0.000 N 
ATOM     17  H   UNL     1       3.691   6.097  20.116  0.00  0.00    +0.000 HD
BRANCH  16  18
ATOM     18  C   UNL     1       2.140   7.425  19.755  0.00  0.00    +0.000 A 
ATOM     19  C   UNL     1       2.267   7.912  18.450  0.00  0.00    +0.000 A 
ATOM     20  C   UNL     1       1.692   9.129  18.082  0.00  0.00    +0.000 A 
ATOM     21  C   UNL     1       0.986   9.877  19.017  0.00  0.00    +0.000 A 
ATOM     22  C   UNL     1       0.852   9.404  20.321  0.00  0.00    +0.000 A 
ATOM     23  C   UNL     1       1.416   8.177  20.687  0.00  0.00    +0.000 A 
ENDBRANCH  16  18
ENDBRANCH  13  15
ENDBRANCH   1  13
TORSDOF 7
ENDMDL
MODEL 5
REMARK VINA RESULT:      -6.7      4.959      7.424
REMARK  Name = 
REMARK  7 active torsions:
REMARK  status: ('A' for Active; 'I' for Inactive)
REMARK    1  A    between atoms: C_2  and  C_3
REMARK    2  A    between atoms: C_3  and  O_4
REMARK    3  A    between atoms: O_4  and  C_5
REMARK    4  A    between atoms: C_5  and  C_7
REMARK    5  A    between atoms: C_7  and  S_8
REMARK    6  A    between atoms: S_8  and  C_9
REMARK    7  A    between atoms: N_16  and  C_17
REMARK                            x       y       z     vdW  Elec       q    Type
REMARK                         _______ _______ _______ _____ _____    ______ ____
ROOT
ATOM      1  O   UNL     1       7.488   6.741  16.488  0.00  0.00    +0.000 OA
ENDROOT
BRANCH   1   2
ATOM      2  C   UNL     1       7.723   7.296  17.714  0.00  0.00    +0.000 C 
ATOM      3  O   UNL     1       7.821   6.658  18.757  0.00  0.00    +0.000 OA
BRANCH   2   4
ATOM      4  C   UNL     1       7.979   8.780  17.597  0.00  0.00    +0.000 C 
BRANCH   4   5
ATOM      5  S   UNL     1       8.927   9.394  19.028  0.00  0.00    +0.000 S 
BRANCH   5   6
ATOM      6  C   UNL     1       9.514  10.966  18.419  0.00  0.00    +0.000 A 
ATOM      7  C   UNL     1       8.669  11.951  17.894  0.00  0.00    +0.000 A 
ATOM      8  C   UNL     1       9.194  13.155  17.413  0.00  0.00    +0.000 A 
ATOM      9  C   UNL     1      10.566  13.385  17.469  0.00  0.00    +0.000 A 
ATOM     10 CL   UNL     1      11.213  14.852  16.847  0.00  0.00    +0.000 Cl
ATOM     11  C   UNL     1      11.414  12.432  18.024  0.00  0.00    +0.000 A 
ATOM     12  C   UNL     1      10.888  11.229  18.502  0.00  0.00    +0.000 A 
ENDBRANCH   5   6
ENDBRANCH   4   5
ENDBRANCH   2   4
ENDBRANCH   1   2
BRANCH   1  13
ATOM     13  C   UNL     1       7.347   5.317  16.513  0.00  0.00    +0.000 C 
BRANCH  13  15
ATOM     14  O   UNL     1       5.250   4.958  15.380  0.00  0.00    +0.000 OA
ATOM     15  C   UNL     1       5.862   4.933  16.451  0.00  0.00    +0.000 C 
ATOM     16  N   UNL     1       5.310   4.619  17.680  0.00  0.00    +0.000 N 
ATOM     17  H   UNL     1       5.826   4.872  18.513  0.00  0.00    +0.000 HD
BRANCH  16  18
ATOM     18  C   UNL     1       4.011   4.095  17.876  0.00  0.00    +0.000 A 
ATOM     19  C   UNL     1       2.857   4.873  17.747  0.00  0.00    +0.000 A 
ATOM     20  C   UNL     1       1.592   4.310  17.924  0.00  0.00    +0.000 A 
ATOM     21  C   UNL     1       1.467   2.960  18.236  0.00  0.00    +0.000 A 
ATOM     22  C   UNL     1       2.610   2.174  18.367  0.00  0.00    +0.000 A 
ATOM     23  C   UNL     1       3.878   2.735  18.176  0.00  0.00    +0.000 A 
ENDBRANCH  16  18
ENDBRANCH  13  15
ENDBRANCH   1  13
TORSDOF 7
ENDMDL
MODEL 6
REMARK VINA RESULT:      -6.7      5.174      6.997
REMARK  Name = 
REMARK  7 active torsions:
REMARK  status: ('A' for Active; 'I' for Inactive)
REMARK    1  A    between atoms: C_2  and  C_3
REMARK    2  A    between atoms: C_3  and  O_4
REMARK    3  A    between atoms: O_4  and  C_5
REMARK    4  A    between atoms: C_5  and  C_7
REMARK    5  A    between atoms: C_7  and  S_8
REMARK    6  A    between atoms: S_8  and  C_9
REMARK    7  A    between atoms: N_16  and  C_17
REMARK                            x       y       z     vdW  Elec       q    Type
REMARK                         _______ _______ _______ _____ _____    ______ ____
ROOT
ATOM      1  O   UNL     1       8.366   7.301  18.490  0.00  0.00    +0.000 OA
ENDROOT
BRANCH   1   2
ATOM      2  C   UNL     1       7.644   6.143  18.537  0.00  0.00    +0.000 C 
ATOM      3  O   UNL     1       7.723   5.313  19.437  0.00  0.00    +0.000 OA
BRANCH   2   4
ATOM      4  C   UNL     1       6.643   6.082  17.408  0.00  0.00    +0.000 C 
BRANCH   4   5
ATOM      5  S   UNL     1       6.147   4.362  17.068  0.00  0.00    +0.000 S 
BRANCH   5   6
ATOM      6  C   UNL     1       4.598   4.256  17.949  0.00  0.00    +0.000 A 
ATOM      7  C   UNL     1       3.425   4.888  17.519  0.00  0.00    +0.000 A 
ATOM      8  C   UNL     1       2.247   4.784  18.267  0.00  0.00    +0.000 A 
ATOM      9  C   UNL     1       2.234   4.034  19.440  0.00  0.00    +0.000 A 
ATOM     10 CL   UNL     1       0.794   3.934  20.376  0.00  0.00    +0.000 Cl
ATOM     11  C   UNL     1       3.382   3.369  19.859  0.00  0.00    +0.000 A 
ATOM     12  C   UNL     1       4.558   3.476  19.113  0.00  0.00    +0.000 A 
ENDBRANCH   5   6
ENDBRANCH   4   5
ENDBRANCH   2   4
ENDBRANCH   1   2
BRANCH   1  13
ATOM     13  C   UNL     1       7.754   8.336  17.714  0.00  0.00    +0.000 C 
BRANCH  13  15
ATOM     14  O   UNL     1       8.141  10.692  17.387  0.00  0.00    +0.000 OA
ATOM     15  C   UNL     1       8.353   9.700  18.088  0.00  0.00    +0.000 C 
ATOM     16  N   UNL     1       9.153   9.673  19.216  0.00  0.00    +0.000 N 
ATOM     17  H   UNL     1       9.459   8.773  19.563  0.00  0.00    +0.000 HD
BRANCH  16  18
ATOM     18  C   UNL     1       9.698  10.813  19.851  0.00  0.00    +0.000 A 
ATOM     19  C   UNL     1      10.843  11.464  19.379  0.00  0.00    +0.000 A 
ATOM     20  C   UNL     1      11.334  12.602  20.020  0.00  0.00    +0.000 A 
ATOM     21  C   UNL     1      10.687  13.101  21.146  0.00  0.00    +0.000 A 
ATOM     22  C   UNL     1       9.545  12.462  21.626  0.00  0.00    +0.000 A 
ATOM     23  C   UNL     1       9.045  11.329  20.975  0.00  0.00    +0.000 A 
ENDBRANCH  16  18
ENDBRANCH  13  15
ENDBRANCH   1  13
TORSDOF 7
ENDMDL
MODEL 7
REMARK VINA RESULT:      -6.6      1.390      2.264
REMARK  Name = 
REMARK  7 active torsions:
REMARK  status: ('A' for Active; 'I' for Inactive)
REMARK    1  A    between atoms: C_2  and  C_3
REMARK    2  A    between atoms: C_3  and  O_4
REMARK    3  A    between atoms: O_4  and  C_5
REMARK    4  A    between atoms: C_5  and  C_7
REMARK    5  A    between atoms: C_7  and  S_8
REMARK    6  A    between atoms: S_8  and  C_9
REMARK    7  A    between atoms: N_16  and  C_17
REMARK                            x       y       z     vdW  Elec       q    Type
REMARK                         _______ _______ _______ _____ _____    ______ ____
ROOT
ATOM      1  O   UNL     1       1.441   2.706  19.579  0.00  0.00    +0.000 OA
ENDROOT
BRANCH   1   2
ATOM      2  C   UNL     1       2.230   3.452  20.408  0.00  0.00    +0.000 C 
ATOM      3  O   UNL     1       3.212   3.021  21.004  0.00  0.00    +0.000 OA
BRANCH   2   4
ATOM      4  C   UNL     1       1.816   4.904  20.389  0.00  0.00    +0.000 C 
BRANCH   4   5
ATOM      5  S   UNL     1       3.095   5.938  19.603  0.00  0.00    +0.000 S 
BRANCH   5   6
ATOM      6  C   UNL     1       2.214   7.472  19.360  0.00  0.00    +0.000 A 
ATOM      7  C   UNL     1       2.106   8.108  18.119  0.00  0.00    +0.000 A 
ATOM      8  C   UNL     1       1.419   9.321  17.998  0.00  0.00    +0.000 A 
ATOM      9  C   UNL     1       0.823   9.894  19.119  0.00  0.00    +0.000 A 
ATOM     10 CL   UNL     1       0.006  11.401  18.976  0.00  0.00    +0.000 Cl
ATOM     11  C   UNL     1       0.888   9.253  20.352  0.00  0.00    +0.000 A 
ATOM     12  C   UNL     1       1.577   8.044  20.470  0.00  0.00    +0.000 A 
ENDBRANCH   5   6
ENDBRANCH   4   5
ENDBRANCH   2   4
ENDBRANCH   1   2
BRANCH   1  13
ATOM     13  C   UNL     1       2.173   1.909  18.643  0.00  0.00    +0.000 C 
BRANCH  13  15
ATOM     14  O   UNL     1       2.223   3.433  16.777  0.00  0.00    +0.000 OA
ATOM     15  C   UNL     1       2.875   2.811  17.618  0.00  0.00    +0.000 C 
ATOM     16  N   UNL     1       4.255   2.806  17.716  0.00  0.00    +0.000 N 
ATOM     17  H   UNL     1       4.692   2.078  18.266  0.00  0.00    +0.000 HD
BRANCH  16  18
ATOM     18  C   UNL     1       5.123   3.657  16.992  0.00  0.00    +0.000 A 
ATOM     19  C   UNL     1       5.174   3.670  15.595  0.00  0.00    +0.000 A 
ATOM     20  C   UNL     1       6.026   4.544  14.919  0.00  0.00    +0.000 A 
ATOM     21  C   UNL     1       6.843   5.414  15.635  0.00  0.00    +0.000 A 
ATOM     22  C   UNL     1       6.801   5.411  17.028  0.00  0.00    +0.000 A 
ATOM     23  C   UNL     1       5.936   4.544  17.705  0.00  0.00    +0.000 A 
ENDBRANCH  16  18
ENDBRANCH  13  15
ENDBRANCH   1  13
TORSDOF 7
ENDMDL
MODEL 8
REMARK VINA RESULT:      -6.6      4.775      6.506
REMARK  Name = 
REMARK  7 active torsions:
REMARK  status: ('A' for Active; 'I' for Inactive)
REMARK    1  A    between atoms: C_2  and  C_3
REMARK    2  A    between atoms: C_3  and  O_4
REMARK    3  A    between atoms: O_4  and  C_5
REMARK    4  A    between atoms: C_5  and  C_7
REMARK    5  A    between atoms: C_7  and  S_8
REMARK    6  A    between atoms: S_8  and  C_9
REMARK    7  A    between atoms: N_16  and  C_17
REMARK                            x       y       z     vdW  Elec       q    Type
REMARK                         _______ _______ _______ _____ _____    ______ ____
ROOT
ATOM      1  O   UNL     1       6.613   6.922  17.413  0.00  0.00    +0.000 OA
ENDROOT
BRANCH   1   2
ATOM      2  C   UNL     1       5.326   6.596  17.089  0.00  0.00    +0.000 C 
ATOM      3  O   UNL     1       4.333   7.077  17.625  0.00  0.00    +0.000 OA
BRANCH   2   4
ATOM      4  C   UNL     1       5.286   5.668  15.898  0.00  0.00    +0.000 C 
BRANCH   4   5
ATOM      5  S   UNL     1       5.568   3.941  16.407  0.00  0.00    +0.000 S 
BRANCH   5   6
ATOM      6  C   UNL     1       4.220   3.681  17.549  0.00  0.00    +0.000 A 
ATOM      7  C   UNL     1       2.878   3.633  17.155  0.00  0.00    +0.000 A 
ATOM      8  C   UNL     1       1.866   3.448  18.103  0.00  0.00    +0.000 A 
ATOM      9  C   UNL     1       2.194   3.293  19.448  0.00  0.00    +0.000 A 
ATOM     10 CL   UNL     1       0.947   3.097  20.615  0.00  0.00    +0.000 Cl
ATOM     11  C   UNL     1       3.526   3.298  19.849  0.00  0.00    +0.000 A 
ATOM     12  C   UNL     1       4.536   3.487  18.901  0.00  0.00    +0.000 A 
ENDBRANCH   5   6
ENDBRANCH   4   5
ENDBRANCH   2   4
ENDBRANCH   1   2
BRANCH   1  13
ATOM     13  C   UNL     1       6.950   8.287  17.147  0.00  0.00    +0.000 C 
BRANCH  13  15
ATOM     14  O   UNL     1       8.676   7.921  18.789  0.00  0.00    +0.000 OA
ATOM     15  C   UNL     1       8.099   8.733  18.063  0.00  0.00    +0.000 C 
ATOM     16  N   UNL     1       8.364  10.090  18.012  0.00  0.00    +0.000 N 
ATOM     17  H   UNL     1       7.677  10.695  17.581  0.00  0.00    +0.000 HD
BRANCH  16  18
ATOM     18  C   UNL     1       9.460  10.726  18.641  0.00  0.00    +0.000 A 
ATOM     19  C   UNL     1      10.599  11.135  17.941  0.00  0.00    +0.000 A 
ATOM     20  C   UNL     1      11.647  11.782  18.596  0.00  0.00    +0.000 A 
ATOM     21  C   UNL     1      11.570  12.025  19.964  0.00  0.00    +0.000 A 
ATOM     22  C   UNL     1      10.440  11.623  20.674  0.00  0.00    +0.000 A 
ATOM     23  C   UNL     1       9.383  10.987  20.013  0.00  0.00    +0.000 A 
ENDBRANCH  16  18
ENDBRANCH  13  15
ENDBRANCH   1  13
TORSDOF 7
ENDMDL
MODEL 9
REMARK VINA RESULT:      -6.5      5.063      7.387
REMARK  Name = 
REMARK  7 active torsions:
REMARK  status: ('A' for Active; 'I' for Inactive)
REMARK    1  A    between atoms: C_2  and  C_3
REMARK    2  A    between atoms: C_3  and  O_4
REMARK    3  A    between atoms: O_4  and  C_5
REMARK    4  A    between atoms: C_5  and  C_7
REMARK    5  A    between atoms: C_7  and  S_8
REMARK    6  A    between atoms: S_8  and  C_9
REMARK    7  A    between atoms: N_16  and  C_17
REMARK                            x       y       z     vdW  Elec       q    Type
REMARK                         _______ _______ _______ _____ _____    ______ ____
ROOT
ATOM      1  O   UNL     1       7.919   7.068  18.471  0.00  0.00    +0.000 OA
ENDROOT
BRANCH   1   2
ATOM      2  C   UNL     1       7.373   7.806  17.460  0.00  0.00    +0.000 C 
ATOM      3  O   UNL     1       6.491   7.406  16.709  0.00  0.00    +0.000 OA
BRANCH   2   4
ATOM      4  C   UNL     1       7.903   9.220  17.475  0.00  0.00    +0.000 C 
BRANCH   4   5
ATOM      5  S   UNL     1       8.942   9.513  18.943  0.00  0.00    +0.000 S 
BRANCH   5   6
ATOM      6  C   UNL     1       9.753  11.043  18.505  0.00  0.00    +0.000 A 
ATOM      7  C   UNL     1      11.142  11.172  18.393  0.00  0.00    +0.000 A 
ATOM      8  C   UNL     1      11.718  12.404  18.067  0.00  0.00    +0.000 A 
ATOM      9  C   UNL     1      10.904  13.511  17.836  0.00  0.00    +0.000 A 
ATOM     10 CL   UNL     1      11.614  15.033  17.467  0.00  0.00    +0.000 Cl
ATOM     11  C   UNL     1       9.520  13.389  17.905  0.00  0.00    +0.000 A 
ATOM     12  C   UNL     1       8.947  12.157  18.234  0.00  0.00    +0.000 A 
ENDBRANCH   5   6
ENDBRANCH   4   5
ENDBRANCH   2   4
ENDBRANCH   1   2
BRANCH   1  13
ATOM     13  C   UNL     1       7.859   5.654  18.256  0.00  0.00    +0.000 C 
BRANCH  13  15
ATOM     14  O   UNL     1       6.204   4.962  19.866  0.00  0.00    +0.000 OA
ATOM     15  C   UNL     1       6.483   5.115  18.675  0.00  0.00    +0.000 C 
ATOM     16  N   UNL     1       5.657   4.797  17.612  0.00  0.00    +0.000 N 
ATOM     17  H   UNL     1       6.070   4.724  16.691  0.00  0.00    +0.000 HD
BRANCH  16  18
ATOM     18  C   UNL     1       4.297   4.425  17.726  0.00  0.00    +0.000 A 
ATOM     19  C   UNL     1       3.265   5.361  17.831  0.00  0.00    +0.000 A 
ATOM     20  C   UNL     1       1.933   4.952  17.916  0.00  0.00    +0.000 A 
ATOM     21  C   UNL     1       1.619   3.597  17.901  0.00  0.00    +0.000 A 
ATOM     22  C   UNL     1       2.639   2.652  17.796  0.00  0.00    +0.000 A 
ATOM     23  C   UNL     1       3.973   3.064  17.697  0.00  0.00    +0.000 A 
ENDBRANCH  16  18
ENDBRANCH  13  15
ENDBRANCH   1  13
TORSDOF 7
ENDMDL
