MODEL 1
REMARK VINA RESULT:      -8.9      0.000      0.000
REMARK  Name = 
REMARK  5 active torsions:
REMARK  status: ('A' for Active; 'I' for Inactive)
REMARK    1  A    between atoms: C_2  and  C_3
REMARK    2  A    between atoms: C_3  and  O_4
REMARK    3  A    between atoms: O_4  and  C_5
REMARK    4  A    between atoms: C_16  and  C_17
REMARK    5  A    between atoms: N_20  and  C_21
REMARK                            x       y       z     vdW  Elec       q    Type
REMARK                         _______ _______ _______ _____ _____    ______ ____
ROOT
ATOM      1  O   UNL     1       5.028   6.406  17.857  0.00  0.00    +0.000 OA
ATOM      2  C   UNL     1       4.974   5.212  17.560  0.00  0.00    +0.000 C 
ATOM      3  N   UNL     1       3.880   4.394  17.871  0.00  0.00    +0.000 N 
ATOM      4  C   UNL     1       3.990   2.932  17.772  0.00  0.00    +0.000 C 
ATOM      5  C   UNL     1       2.656   2.262  17.478  0.00  0.00    +0.000 C 
ATOM      6  C   UNL     1       1.616   2.643  18.522  0.00  0.00    +0.000 C 
ATOM      7  C   UNL     1       1.498   4.154  18.611  0.00  0.00    +0.000 C 
ATOM      8  C   UNL     1       2.858   4.853  18.849  0.00  0.00    +0.000 C 
ENDROOT
BRANCH   8   9
ATOM      9  C   UNL     1       2.593   6.332  18.952  0.00  0.00    +0.000 A 
ATOM     10  N   UNL     1       2.293   7.123  17.875  0.00  0.00    +0.000 NA
ATOM     11  N   UNL     1       1.812   8.256  18.366  0.00  0.00    +0.000 NA
ATOM     12  N   UNL     1       1.799   8.095  19.712  0.00  0.00    +0.000 N 
ATOM     13  N   UNL     1       2.319   6.914  20.132  0.00  0.00    +0.000 NA
BRANCH  12  14
ATOM     14  C   UNL     1       1.103   8.963  20.591  0.00  0.00    +0.000 A 
ATOM     15  C   UNL     1       0.357  10.035  20.077  0.00  0.00    +0.000 A 
ATOM     16  C   UNL     1      -0.420  10.814  20.939  0.00  0.00    +0.000 A 
ATOM     17  C   UNL     1      -0.434  10.534  22.301  0.00  0.00    +0.000 A 
ATOM     18  F   UNL     1      -1.198  11.270  23.118  0.00  0.00    +0.000 F 
ATOM     19  C   UNL     1       0.324   9.494  22.827  0.00  0.00    +0.000 A 
ATOM     20  C   UNL     1       1.096   8.703  21.973  0.00  0.00    +0.000 A 
ENDBRANCH  12  14
ENDBRANCH   8   9
BRANCH   2  21
ATOM     21  C   UNL     1       6.192   4.577  16.864  0.00  0.00    +0.000 C 
BRANCH  21  22
ATOM     22  O   UNL     1       6.719   5.400  15.833  0.00  0.00    +0.000 OA
BRANCH  22  23
ATOM     23  C   UNL     1       6.696   4.866  14.571  0.00  0.00    +0.000 A 
ATOM     24  C   UNL     1       7.667   5.361  13.700  0.00  0.00    +0.000 A 
ATOM     25  C   UNL     1       7.736   4.909  12.381  0.00  0.00    +0.000 A 
ATOM     26  C   UNL     1       6.837   3.947  11.930  0.00  0.00    +0.000 A 
ATOM     27  C   UNL     1       5.877   3.431  12.801  0.00  0.00    +0.000 A 
ATOM     28  C   UNL     1       5.808   3.887  14.121  0.00  0.00    +0.000 A 
ENDBRANCH  22  23
ENDBRANCH  21  22
ENDBRANCH   2  21
TORSDOF 5
ENDMDL
MODEL 2
REMARK VINA RESULT:      -8.9      3.523      8.974
REMARK  Name = 
REMARK  5 active torsions:
REMARK  status: ('A' for Active; 'I' for Inactive)
REMARK    1  A    between atoms: C_2  and  C_3
REMARK    2  A    between atoms: C_3  and  O_4
REMARK    3  A    between atoms: O_4  and  C_5
REMARK    4  A    between atoms: C_16  and  C_17
REMARK    5  A    between atoms: N_20  and  C_21
REMARK                            x       y       z     vdW  Elec       q    Type
REMARK                         _______ _______ _______ _____ _____    ______ ____
ROOT
ATOM      1  O   UNL     1       3.341   6.785  19.086  0.00  0.00    +0.000 OA
ATOM      2  C   UNL     1       2.504   6.269  19.828  0.00  0.00    +0.000 C 
ATOM      3  N   UNL     1       2.253   4.892  19.856  0.00  0.00    +0.000 N 
ATOM      4  C   UNL     1       1.052   4.367  20.522  0.00  0.00    +0.000 C 
ATOM      5  C   UNL     1       1.244   2.953  21.048  0.00  0.00    +0.000 C 
ATOM      6  C   UNL     1       1.683   2.014  19.934  0.00  0.00    +0.000 C 
ATOM      7  C   UNL     1       2.930   2.554  19.259  0.00  0.00    +0.000 C 
ATOM      8  C   UNL     1       2.768   4.014  18.772  0.00  0.00    +0.000 C 
ENDROOT
BRANCH   8   9
ATOM      9  C   UNL     1       4.055   4.410  18.097  0.00  0.00    +0.000 A 
ATOM     10  N   UNL     1       5.286   4.288  18.684  0.00  0.00    +0.000 NA
ATOM     11  N   UNL     1       6.178   4.412  17.711  0.00  0.00    +0.000 NA
ATOM     12  N   UNL     1       5.458   4.562  16.571  0.00  0.00    +0.000 N 
ATOM     13  N   UNL     1       4.116   4.607  16.768  0.00  0.00    +0.000 NA
BRANCH  12  14
ATOM     14  C   UNL     1       6.024   4.450  15.276  0.00  0.00    +0.000 A 
ATOM     15  C   UNL     1       5.377   3.689  14.289  0.00  0.00    +0.000 A 
ATOM     16  C   UNL     1       5.877   3.680  12.984  0.00  0.00    +0.000 A 
ATOM     17  C   UNL     1       7.022   4.407  12.678  0.00  0.00    +0.000 A 
ATOM     18  F   UNL     1       7.483   4.412  11.420  0.00  0.00    +0.000 F 
ATOM     19  C   UNL     1       7.689   5.140  13.653  0.00  0.00    +0.000 A 
ATOM     20  C   UNL     1       7.191   5.165  14.958  0.00  0.00    +0.000 A 
ENDBRANCH  12  14
ENDBRANCH   8   9
BRANCH   2  21
ATOM     21  C   UNL     1       1.655   7.190  20.723  0.00  0.00    +0.000 C 
BRANCH  21  22
ATOM     22  O   UNL     1       1.394   8.449  20.115  0.00  0.00    +0.000 OA
BRANCH  22  23
ATOM     23  C   UNL     1       0.718   9.356  20.888  0.00  0.00    +0.000 A 
ATOM     24  C   UNL     1       0.306   8.881  22.135  0.00  0.00    +0.000 A 
ATOM     25  C   UNL     1      -0.408   9.704  23.007  0.00  0.00    +0.000 A 
ATOM     26  C   UNL     1      -0.703  11.015  22.641  0.00  0.00    +0.000 A 
ATOM     27  C   UNL     1      -0.275  11.503  21.406  0.00  0.00    +0.000 A 
ATOM     28  C   UNL     1       0.438  10.676  20.532  0.00  0.00    +0.000 A 
ENDBRANCH  22  23
ENDBRANCH  21  22
ENDBRANCH   2  21
TORSDOF 5
ENDMDL
MODEL 3
REMARK VINA RESULT:      -8.8      0.272      1.310
REMARK  Name = 
REMARK  5 active torsions:
REMARK  status: ('A' for Active; 'I' for Inactive)
REMARK    1  A    between atoms: C_2  and  C_3
REMARK    2  A    between atoms: C_3  and  O_4
REMARK    3  A    between atoms: O_4  and  C_5
REMARK    4  A    between atoms: C_16  and  C_17
REMARK    5  A    between atoms: N_20  and  C_21
REMARK                            x       y       z     vdW  Elec       q    Type
REMARK                         _______ _______ _______ _____ _____    ______ ____
ROOT
ATOM      1  O   UNL     1       5.085   6.588  17.808  0.00  0.00    +0.000 OA
ATOM      2  C   UNL     1       5.067   5.401  17.480  0.00  0.00    +0.000 C 
ATOM      3  N   UNL     1       3.981   4.554  17.737  0.00  0.00    +0.000 N 
ATOM      4  C   UNL     1       4.125   3.098  17.605  0.00  0.00    +0.000 C 
ATOM      5  C   UNL     1       2.816   2.408  17.253  0.00  0.00    +0.000 C 
ATOM      6  C   UNL     1       1.736   2.741  18.272  0.00  0.00    +0.000 C 
ATOM      7  C   UNL     1       1.582   4.246  18.395  0.00  0.00    +0.000 C 
ATOM      8  C   UNL     1       2.919   4.967  18.692  0.00  0.00    +0.000 C 
ENDROOT
BRANCH   8   9
ATOM      9  C   UNL     1       2.620   6.437  18.822  0.00  0.00    +0.000 A 
ATOM     10  N   UNL     1       2.320   7.245  17.758  0.00  0.00    +0.000 NA
ATOM     11  N   UNL     1       1.806   8.356  18.265  0.00  0.00    +0.000 NA
ATOM     12  N   UNL     1       1.774   8.165  19.607  0.00  0.00    +0.000 N 
ATOM     13  N   UNL     1       2.314   6.987  20.010  0.00  0.00    +0.000 NA
BRANCH  12  14
ATOM     14  C   UNL     1       1.045   8.998  20.493  0.00  0.00    +0.000 A 
ATOM     15  C   UNL     1       0.927   8.653  21.848  0.00  0.00    +0.000 A 
ATOM     16  C   UNL     1       0.309   9.537  22.737  0.00  0.00    +0.000 A 
ATOM     17  C   UNL     1      -0.202  10.743  22.269  0.00  0.00    +0.000 A 
ATOM     18  F   UNL     1      -0.773  11.595  23.130  0.00  0.00    +0.000 F 
ATOM     19  C   UNL     1      -0.119  11.083  20.924  0.00  0.00    +0.000 A 
ATOM     20  C   UNL     1       0.507  10.212  20.029  0.00  0.00    +0.000 A 
ENDBRANCH  12  14
ENDBRANCH   8   9
BRANCH   2  21
ATOM     21  C   UNL     1       6.319   4.809  16.808  0.00  0.00    +0.000 C 
BRANCH  21  22
ATOM     22  O   UNL     1       6.790   5.611  15.734  0.00  0.00    +0.000 OA
BRANCH  22  23
ATOM     23  C   UNL     1       6.776   5.021  14.497  0.00  0.00    +0.000 A 
ATOM     24  C   UNL     1       5.737   4.113  14.286  0.00  0.00    +0.000 A 
ATOM     25  C   UNL     1       5.625   3.431  13.073  0.00  0.00    +0.000 A 
ATOM     26  C   UNL     1       6.547   3.666  12.057  0.00  0.00    +0.000 A 
ATOM     27  C   UNL     1       7.575   4.589  12.253  0.00  0.00    +0.000 A 
ATOM     28  C   UNL     1       7.688   5.268  13.470  0.00  0.00    +0.000 A 
ENDBRANCH  22  23
ENDBRANCH  21  22
ENDBRANCH   2  21
TORSDOF 5
ENDMDL
MODEL 4
REMARK VINA RESULT:      -8.6      3.538      8.947
REMARK  Name = 
REMARK  5 active torsions:
REMARK  status: ('A' for Active; 'I' for Inactive)
REMARK    1  A    between atoms: C_2  and  C_3
REMARK    2  A    between atoms: C_3  and  O_4
REMARK    3  A    between atoms: O_4  and  C_5
REMARK    4  A    between atoms: C_16  and  C_17
REMARK    5  A    between atoms: N_20  and  C_21
REMARK                            x       y       z     vdW  Elec       q    Type
REMARK                         _______ _______ _______ _____ _____    ______ ____
ROOT
ATOM      1  O   UNL     1       3.387   6.927  19.007  0.00  0.00    +0.000 OA
ATOM      2  C   UNL     1       2.571   6.426  19.782  0.00  0.00    +0.000 C 
ATOM      3  N   UNL     1       2.332   5.048  19.854  0.00  0.00    +0.000 N 
ATOM      4  C   UNL     1       1.152   4.532  20.562  0.00  0.00    +0.000 C 
ATOM      5  C   UNL     1       1.368   3.135  21.122  0.00  0.00    +0.000 C 
ATOM      6  C   UNL     1       1.788   2.168  20.024  0.00  0.00    +0.000 C 
ATOM      7  C   UNL     1       3.014   2.699  19.304  0.00  0.00    +0.000 C 
ATOM      8  C   UNL     1       2.829   4.145  18.782  0.00  0.00    +0.000 C 
ENDROOT
BRANCH   8   9
ATOM      9  C   UNL     1       4.097   4.531  18.066  0.00  0.00    +0.000 A 
ATOM     10  N   UNL     1       5.348   4.352  18.593  0.00  0.00    +0.000 NA
ATOM     11  N   UNL     1       6.200   4.490  17.587  0.00  0.00    +0.000 NA
ATOM     12  N   UNL     1       5.436   4.705  16.487  0.00  0.00    +0.000 N 
ATOM     13  N   UNL     1       4.106   4.779  16.745  0.00  0.00    +0.000 NA
BRANCH  12  14
ATOM     14  C   UNL     1       5.941   4.628  15.165  0.00  0.00    +0.000 A 
ATOM     15  C   UNL     1       7.119   5.311  14.820  0.00  0.00    +0.000 A 
ATOM     16  C   UNL     1       7.674   5.136  13.550  0.00  0.00    +0.000 A 
ATOM     17  C   UNL     1       7.046   4.304  12.630  0.00  0.00    +0.000 A 
ATOM     18  F   UNL     1       7.596   4.123  11.422  0.00  0.00    +0.000 F 
ATOM     19  C   UNL     1       5.864   3.646  12.948  0.00  0.00    +0.000 A 
ATOM     20  C   UNL     1       5.306   3.804  14.219  0.00  0.00    +0.000 A 
ENDBRANCH  12  14
ENDBRANCH   8   9
BRANCH   2  21
ATOM     21  C   UNL     1       1.736   7.365  20.671  0.00  0.00    +0.000 C 
BRANCH  21  22
ATOM     22  O   UNL     1       1.423   8.590  20.024  0.00  0.00    +0.000 OA
BRANCH  22  23
ATOM     23  C   UNL     1       0.643   9.461  20.739  0.00  0.00    +0.000 A 
ATOM     24  C   UNL     1       0.050  10.477  19.988  0.00  0.00    +0.000 A 
ATOM     25  C   UNL     1      -0.754  11.438  20.604  0.00  0.00    +0.000 A 
ATOM     26  C   UNL     1      -0.979  11.379  21.977  0.00  0.00    +0.000 A 
ATOM     27  C   UNL     1      -0.407  10.353  22.730  0.00  0.00    +0.000 A 
ATOM     28  C   UNL     1       0.400   9.393  22.111  0.00  0.00    +0.000 A 
ENDBRANCH  22  23
ENDBRANCH  21  22
ENDBRANCH   2  21
TORSDOF 5
ENDMDL
MODEL 5
REMARK VINA RESULT:      -8.5      3.569      8.602
REMARK  Name = 
REMARK  5 active torsions:
REMARK  status: ('A' for Active; 'I' for Inactive)
REMARK    1  A    between atoms: C_2  and  C_3
REMARK    2  A    between atoms: C_3  and  O_4
REMARK    3  A    between atoms: O_4  and  C_5
REMARK    4  A    between atoms: C_16  and  C_17
REMARK    5  A    between atoms: N_20  and  C_21
REMARK                            x       y       z     vdW  Elec       q    Type
REMARK                         _______ _______ _______ _____ _____    ______ ____
ROOT
ATOM      1  O   UNL     1       3.252   6.799  18.945  0.00  0.00    +0.000 OA
ATOM      2  C   UNL     1       2.435   6.288  19.712  0.00  0.00    +0.000 C 
ATOM      3  N   UNL     1       2.245   4.904  19.815  0.00  0.00    +0.000 N 
ATOM      4  C   UNL     1       1.067   4.362  20.506  0.00  0.00    +0.000 C 
ATOM      5  C   UNL     1       1.320   2.989  21.109  0.00  0.00    +0.000 C 
ATOM      6  C   UNL     1       1.805   2.011  20.049  0.00  0.00    +0.000 C 
ATOM      7  C   UNL     1       3.030   2.570  19.348  0.00  0.00    +0.000 C 
ATOM      8  C   UNL     1       2.805   3.993  18.782  0.00  0.00    +0.000 C 
ENDROOT
BRANCH   8   9
ATOM      9  C   UNL     1       4.076   4.409  18.088  0.00  0.00    +0.000 A 
ATOM     10  N   UNL     1       5.314   4.331  18.669  0.00  0.00    +0.000 NA
ATOM     11  N   UNL     1       6.195   4.459  17.687  0.00  0.00    +0.000 NA
ATOM     12  N   UNL     1       5.464   4.567  16.550  0.00  0.00    +0.000 N 
ATOM     13  N   UNL     1       4.123   4.580  16.756  0.00  0.00    +0.000 NA
BRANCH  12  14
ATOM     14  C   UNL     1       6.023   4.443  15.253  0.00  0.00    +0.000 A 
ATOM     15  C   UNL     1       5.365   3.683  14.273  0.00  0.00    +0.000 A 
ATOM     16  C   UNL     1       5.860   3.664  12.965  0.00  0.00    +0.000 A 
ATOM     17  C   UNL     1       7.010   4.379  12.650  0.00  0.00    +0.000 A 
ATOM     18  F   UNL     1       7.466   4.374  11.391  0.00  0.00    +0.000 F 
ATOM     19  C   UNL     1       7.687   5.111  13.619  0.00  0.00    +0.000 A 
ATOM     20  C   UNL     1       7.195   5.147  14.926  0.00  0.00    +0.000 A 
ENDBRANCH  12  14
ENDBRANCH   8   9
BRANCH   2  21
ATOM     21  C   UNL     1       1.541   7.217  20.553  0.00  0.00    +0.000 C 
BRANCH  21  22
ATOM     22  O   UNL     1       1.898   8.585  20.416  0.00  0.00    +0.000 OA
BRANCH  22  23
ATOM     23  C   UNL     1       0.907   9.419  19.968  0.00  0.00    +0.000 A 
ATOM     24  C   UNL     1       0.240  10.133  20.965  0.00  0.00    +0.000 A 
ATOM     25  C   UNL     1      -0.803  11.003  20.639  0.00  0.00    +0.000 A 
ATOM     26  C   UNL     1      -1.175  11.171  19.307  0.00  0.00    +0.000 A 
ATOM     27  C   UNL     1      -0.498  10.477  18.304  0.00  0.00    +0.000 A 
ATOM     28  C   UNL     1       0.544   9.605  18.634  0.00  0.00    +0.000 A 
ENDBRANCH  22  23
ENDBRANCH  21  22
ENDBRANCH   2  21
TORSDOF 5
ENDMDL
MODEL 6
REMARK VINA RESULT:      -8.4      0.967      1.443
REMARK  Name = 
REMARK  5 active torsions:
REMARK  status: ('A' for Active; 'I' for Inactive)
REMARK    1  A    between atoms: C_2  and  C_3
REMARK    2  A    between atoms: C_3  and  O_4
REMARK    3  A    between atoms: O_4  and  C_5
REMARK    4  A    between atoms: C_16  and  C_17
REMARK    5  A    between atoms: N_20  and  C_21
REMARK                            x       y       z     vdW  Elec       q    Type
REMARK                         _______ _______ _______ _____ _____    ______ ____
ROOT
ATOM      1  O   UNL     1       5.297   7.048  17.487  0.00  0.00    +0.000 OA
ATOM      2  C   UNL     1       5.278   5.834  17.280  0.00  0.00    +0.000 C 
ATOM      3  N   UNL     1       4.155   5.034  17.525  0.00  0.00    +0.000 N 
ATOM      4  C   UNL     1       4.276   3.569  17.554  0.00  0.00    +0.000 C 
ATOM      5  C   UNL     1       2.985   2.866  17.161  0.00  0.00    +0.000 C 
ATOM      6  C   UNL     1       1.830   3.318  18.044  0.00  0.00    +0.000 C 
ATOM      7  C   UNL     1       1.703   4.830  18.000  0.00  0.00    +0.000 C 
ATOM      8  C   UNL     1       3.026   5.558  18.338  0.00  0.00    +0.000 C 
ENDROOT
BRANCH   8   9
ATOM      9  C   UNL     1       2.751   7.038  18.293  0.00  0.00    +0.000 A 
ATOM     10  N   UNL     1       2.727   7.767  17.134  0.00  0.00    +0.000 NA
ATOM     11  N   UNL     1       2.145   8.921  17.431  0.00  0.00    +0.000 NA
ATOM     12  N   UNL     1       1.804   8.833  18.740  0.00  0.00    +0.000 N 
ATOM     13  N   UNL     1       2.201   7.680  19.337  0.00  0.00    +0.000 NA
BRANCH  12  14
ATOM     14  C   UNL     1       0.919   9.741  19.374  0.00  0.00    +0.000 A 
ATOM     15  C   UNL     1      -0.058  10.412  18.623  0.00  0.00    +0.000 A 
ATOM     16  C   UNL     1      -1.001  11.214  19.273  0.00  0.00    +0.000 A 
ATOM     17  C   UNL     1      -0.952  11.357  20.655  0.00  0.00    +0.000 A 
ATOM     18  F   UNL     1      -1.872  12.108  21.273  0.00  0.00    +0.000 F 
ATOM     19  C   UNL     1       0.029  10.721  21.407  0.00  0.00    +0.000 A 
ATOM     20  C   UNL     1       0.969   9.908  20.770  0.00  0.00    +0.000 A 
ENDBRANCH  12  14
ENDBRANCH   8   9
BRANCH   2  21
ATOM     21  C   UNL     1       6.569   5.157  16.782  0.00  0.00    +0.000 C 
BRANCH  21  22
ATOM     22  O   UNL     1       7.106   5.793  15.630  0.00  0.00    +0.000 OA
BRANCH  22  23
ATOM     23  C   UNL     1       6.945   5.120  14.448  0.00  0.00    +0.000 A 
ATOM     24  C   UNL     1       5.871   4.228  14.415  0.00  0.00    +0.000 A 
ATOM     25  C   UNL     1       5.613   3.468  13.273  0.00  0.00    +0.000 A 
ATOM     26  C   UNL     1       6.423   3.608  12.149  0.00  0.00    +0.000 A 
ATOM     27  C   UNL     1       7.484   4.513  12.166  0.00  0.00    +0.000 A 
ATOM     28  C   UNL     1       7.743   5.271  13.313  0.00  0.00    +0.000 A 
ENDBRANCH  22  23
ENDBRANCH  21  22
ENDBRANCH   2  21
TORSDOF 5
ENDMDL
MODEL 7
REMARK VINA RESULT:      -8.4      4.372      8.598
REMARK  Name = 
REMARK  5 active torsions:
REMARK  status: ('A' for Active; 'I' for Inactive)
REMARK    1  A    between atoms: C_2  and  C_3
REMARK    2  A    between atoms: C_3  and  O_4
REMARK    3  A    between atoms: O_4  and  C_5
REMARK    4  A    between atoms: C_16  and  C_17
REMARK    5  A    between atoms: N_20  and  C_21
REMARK                            x       y       z     vdW  Elec       q    Type
REMARK                         _______ _______ _______ _____ _____    ______ ____
ROOT
ATOM      1  O   UNL     1       6.415   4.107  17.694  0.00  0.00    +0.000 OA
ATOM      2  C   UNL     1       5.484   4.344  18.465  0.00  0.00    +0.000 C 
ATOM      3  N   UNL     1       4.647   5.459  18.333  0.00  0.00    +0.000 N 
ATOM      4  C   UNL     1       3.760   5.860  19.434  0.00  0.00    +0.000 C 
ATOM      5  C   UNL     1       2.513   6.583  18.949  0.00  0.00    +0.000 C 
ATOM      6  C   UNL     1       2.881   7.792  18.102  0.00  0.00    +0.000 C 
ATOM      7  C   UNL     1       3.786   7.370  16.959  0.00  0.00    +0.000 C 
ATOM      8  C   UNL     1       5.029   6.580  17.433  0.00  0.00    +0.000 C 
ENDROOT
BRANCH   8   9
ATOM      9  C   UNL     1       5.851   6.256  16.214  0.00  0.00    +0.000 A 
ATOM     10  N   UNL     1       7.220   6.219  16.212  0.00  0.00    +0.000 NA
ATOM     11  N   UNL     1       7.575   5.597  15.097  0.00  0.00    +0.000 NA
ATOM     12  N   UNL     1       6.416   5.245  14.489  0.00  0.00    +0.000 N 
ATOM     13  N   UNL     1       5.302   5.673  15.134  0.00  0.00    +0.000 NA
BRANCH  12  14
ATOM     14  C   UNL     1       6.353   4.323  13.413  0.00  0.00    +0.000 A 
ATOM     15  C   UNL     1       7.505   4.036  12.664  0.00  0.00    +0.000 A 
ATOM     16  C   UNL     1       7.462   3.041  11.684  0.00  0.00    +0.000 A 
ATOM     17  C   UNL     1       6.276   2.357  11.444  0.00  0.00    +0.000 A 
ATOM     18  F   UNL     1       6.248   1.389  10.518  0.00  0.00    +0.000 F 
ATOM     19  C   UNL     1       5.120   2.653  12.158  0.00  0.00    +0.000 A 
ATOM     20  C   UNL     1       5.155   3.638  13.148  0.00  0.00    +0.000 A 
ENDBRANCH  12  14
ENDBRANCH   8   9
BRANCH   2  21
ATOM     21  C   UNL     1       5.269   3.401  19.663  0.00  0.00    +0.000 C 
BRANCH  21  22
ATOM     22  O   UNL     1       4.444   2.290  19.339  0.00  0.00    +0.000 OA
BRANCH  22  23
ATOM     23  C   UNL     1       3.095   2.489  19.476  0.00  0.00    +0.000 A 
ATOM     24  C   UNL     1       2.669   2.786  20.772  0.00  0.00    +0.000 A 
ATOM     25  C   UNL     1       1.315   2.992  21.044  0.00  0.00    +0.000 A 
ATOM     26  C   UNL     1       0.380   2.914  20.016  0.00  0.00    +0.000 A 
ATOM     27  C   UNL     1       0.801   2.639  18.715  0.00  0.00    +0.000 A 
ATOM     28  C   UNL     1       2.157   2.431  18.444  0.00  0.00    +0.000 A 
ENDBRANCH  22  23
ENDBRANCH  21  22
ENDBRANCH   2  21
TORSDOF 5
ENDMDL
MODEL 8
REMARK VINA RESULT:      -8.4      3.623      8.523
REMARK  Name = 
REMARK  5 active torsions:
REMARK  status: ('A' for Active; 'I' for Inactive)
REMARK    1  A    between atoms: C_2  and  C_3
REMARK    2  A    between atoms: C_3  and  O_4
REMARK    3  A    between atoms: O_4  and  C_5
REMARK    4  A    between atoms: C_16  and  C_17
REMARK    5  A    between atoms: N_20  and  C_21
REMARK                            x       y       z     vdW  Elec       q    Type
REMARK                         _______ _______ _______ _____ _____    ______ ____
ROOT
ATOM      1  O   UNL     1       3.248   6.701  18.991  0.00  0.00    +0.000 OA
ATOM      2  C   UNL     1       2.449   6.158  19.756  0.00  0.00    +0.000 C 
ATOM      3  N   UNL     1       2.251   4.772  19.795  0.00  0.00    +0.000 N 
ATOM      4  C   UNL     1       1.088   4.206  20.493  0.00  0.00    +0.000 C 
ATOM      5  C   UNL     1       1.345   2.803  21.019  0.00  0.00    +0.000 C 
ATOM      6  C   UNL     1       1.791   1.875  19.898  0.00  0.00    +0.000 C 
ATOM      7  C   UNL     1       3.000   2.459  19.189  0.00  0.00    +0.000 C 
ATOM      8  C   UNL     1       2.772   3.910  18.702  0.00  0.00    +0.000 C 
ENDROOT
BRANCH   8   9
ATOM      9  C   UNL     1       4.026   4.350  17.993  0.00  0.00    +0.000 A 
ATOM     10  N   UNL     1       5.280   4.229  18.530  0.00  0.00    +0.000 NA
ATOM     11  N   UNL     1       6.132   4.402  17.529  0.00  0.00    +0.000 NA
ATOM     12  N   UNL     1       5.368   4.578  16.423  0.00  0.00    +0.000 N 
ATOM     13  N   UNL     1       4.034   4.593  16.671  0.00  0.00    +0.000 NA
BRANCH  12  14
ATOM     14  C   UNL     1       5.886   4.520  15.105  0.00  0.00    +0.000 A 
ATOM     15  C   UNL     1       7.090   5.170  14.792  0.00  0.00    +0.000 A 
ATOM     16  C   UNL     1       7.654   5.009  13.523  0.00  0.00    +0.000 A 
ATOM     17  C   UNL     1       7.008   4.224  12.574  0.00  0.00    +0.000 A 
ATOM     18  F   UNL     1       7.565   4.057  11.368  0.00  0.00    +0.000 F 
ATOM     19  C   UNL     1       5.800   3.600  12.861  0.00  0.00    +0.000 A 
ATOM     20  C   UNL     1       5.234   3.744  14.130  0.00  0.00    +0.000 A 
ENDBRANCH  12  14
ENDBRANCH   8   9
BRANCH   2  21
ATOM     21  C   UNL     1       1.589   7.051  20.668  0.00  0.00    +0.000 C 
BRANCH  21  22
ATOM     22  O   UNL     1       1.938   8.425  20.570  0.00  0.00    +0.000 OA
BRANCH  22  23
ATOM     23  C   UNL     1       0.971   9.251  20.061  0.00  0.00    +0.000 A 
ATOM     24  C   UNL     1       1.009   9.426  18.677  0.00  0.00    +0.000 A 
ATOM     25  C   UNL     1       0.087  10.259  18.040  0.00  0.00    +0.000 A 
ATOM     26  C   UNL     1      -0.888  10.914  18.787  0.00  0.00    +0.000 A 
ATOM     27  C   UNL     1      -0.946  10.728  20.168  0.00  0.00    +0.000 A 
ATOM     28  C   UNL     1      -0.020   9.895  20.805  0.00  0.00    +0.000 A 
ENDBRANCH  22  23
ENDBRANCH  21  22
ENDBRANCH   2  21
TORSDOF 5
ENDMDL
MODEL 9
REMARK VINA RESULT:      -8.3      4.744      7.380
REMARK  Name = 
REMARK  5 active torsions:
REMARK  status: ('A' for Active; 'I' for Inactive)
REMARK    1  A    between atoms: C_2  and  C_3
REMARK    2  A    between atoms: C_3  and  O_4
REMARK    3  A    between atoms: O_4  and  C_5
REMARK    4  A    between atoms: C_16  and  C_17
REMARK    5  A    between atoms: N_20  and  C_21
REMARK                            x       y       z     vdW  Elec       q    Type
REMARK                         _______ _______ _______ _____ _____    ______ ____
ROOT
ATOM      1  O   UNL     1       4.737   5.960  18.236  0.00  0.00    +0.000 OA
ATOM      2  C   UNL     1       4.535   5.170  17.313  0.00  0.00    +0.000 C 
ATOM      3  N   UNL     1       5.394   5.043  16.214  0.00  0.00    +0.000 N 
ATOM      4  C   UNL     1       4.961   4.321  15.010  0.00  0.00    +0.000 C 
ATOM      5  C   UNL     1       6.122   3.703  14.247  0.00  0.00    +0.000 C 
ATOM      6  C   UNL     1       7.158   4.757  13.886  0.00  0.00    +0.000 C 
ATOM      7  C   UNL     1       7.612   5.490  15.136  0.00  0.00    +0.000 C 
ATOM      8  C   UNL     1       6.434   6.073  15.954  0.00  0.00    +0.000 C 
ENDROOT
BRANCH   8   9
ATOM      9  C   UNL     1       7.022   6.797  17.137  0.00  0.00    +0.000 A 
ATOM     10  N   UNL     1       7.826   6.196  18.068  0.00  0.00    +0.000 NA
ATOM     11  N   UNL     1       8.406   7.174  18.748  0.00  0.00    +0.000 NA
ATOM     12  N   UNL     1       7.967   8.325  18.181  0.00  0.00    +0.000 N 
ATOM     13  N   UNL     1       7.062   8.140  17.187  0.00  0.00    +0.000 NA
BRANCH  12  14
ATOM     14  C   UNL     1       8.559   9.589  18.430  0.00  0.00    +0.000 A 
ATOM     15  C   UNL     1       8.379  10.642  17.521  0.00  0.00    +0.000 A 
ATOM     16  C   UNL     1       8.866  11.915  17.832  0.00  0.00    +0.000 A 
ATOM     17  C   UNL     1       9.541  12.124  19.029  0.00  0.00    +0.000 A 
ATOM     18  F   UNL     1       9.985  13.351  19.331  0.00  0.00    +0.000 F 
ATOM     19  C   UNL     1       9.752  11.082  19.924  0.00  0.00    +0.000 A 
ATOM     20  C   UNL     1       9.261   9.809  19.629  0.00  0.00    +0.000 A 
ENDBRANCH  12  14
ENDBRANCH   8   9
BRANCH   2  21
ATOM     21  C   UNL     1       3.248   4.326  17.342  0.00  0.00    +0.000 C 
BRANCH  21  22
ATOM     22  O   UNL     1       3.426   3.087  18.017  0.00  0.00    +0.000 OA
BRANCH  22  23
ATOM     23  C   UNL     1       2.815   2.980  19.238  0.00  0.00    +0.000 A 
ATOM     24  C   UNL     1       1.445   3.250  19.241  0.00  0.00    +0.000 A 
ATOM     25  C   UNL     1       0.712   3.192  20.427  0.00  0.00    +0.000 A 
ATOM     26  C   UNL     1       1.346   2.851  21.619  0.00  0.00    +0.000 A 
ATOM     27  C   UNL     1       2.710   2.559  21.621  0.00  0.00    +0.000 A 
ATOM     28  C   UNL     1       3.443   2.620  20.431  0.00  0.00    +0.000 A 
ENDBRANCH  22  23
ENDBRANCH  21  22
ENDBRANCH   2  21
TORSDOF 5
ENDMDL
