MODEL 1
REMARK VINA RESULT:      -9.8      0.000      0.000
REMARK  Name = 
REMARK  3 active torsions:
REMARK  status: ('A' for Active; 'I' for Inactive)
REMARK    1  A    between atoms: C_2  and  C_4
REMARK    2  A    between atoms: C_8  and  C_9
REMARK    3  A    between atoms: C_16  and  C_17
REMARK                            x       y       z     vdW  Elec       q    Type
REMARK                         _______ _______ _______ _____ _____    ______ ____
ROOT
ATOM      1  C   UNL     1       5.954   4.859  15.272  0.00  0.00    +0.000 A 
ATOM      2  C   UNL     1       5.375   3.660  15.863  0.00  0.00    +0.000 A 
ATOM      3  C   UNL     1       4.397   3.780  16.772  0.00  0.00    +0.000 A 
ATOM      4  N   UNL     1       3.988   5.046  17.199  0.00  0.00    +0.000 N 
ATOM      5  C   UNL     1       3.043   5.422  18.154  0.00  0.00    +0.000 A 
ATOM      6  C   UNL     1       3.071   6.819  18.125  0.00  0.00    +0.000 A 
ATOM      7  N   UNL     1       3.995   7.285  17.209  0.00  0.00    +0.000 NA
ATOM      8  C   UNL     1       4.541   6.213  16.679  0.00  0.00    +0.000 A 
ATOM      9  C   UNL     1       5.556   6.084  15.683  0.00  0.00    +0.000 A 
ENDROOT
BRANCH   5  10
ATOM     10  C   UNL     1       2.218   4.480  18.918  0.00  0.00    +0.000 A 
ATOM     11  C   UNL     1       1.193   3.747  18.361  0.00  0.00    +0.000 A 
ATOM     12  C   UNL     1       0.522   2.909  19.218  0.00  0.00    +0.000 A 
ATOM     13  N   UNL     1       0.868   2.737  20.502  0.00  0.00    +0.000 NA
ATOM     14  C   UNL     1       1.895   3.464  20.944  0.00  0.00    +0.000 A 
ATOM     15  N   UNL     1       2.350   3.210  22.220  0.00  0.00    +0.000 N 
ATOM     16  N   UNL     1       2.572   4.346  20.209  0.00  0.00    +0.000 NA
ATOM     17  H   UNL     1       2.065   2.282  22.502  0.00  0.00    +0.000 HD
ATOM     18  H   UNL     1       3.338   3.422  22.273  0.00  0.00    +0.000 HD
ENDBRANCH   5  10
BRANCH   6  19
ATOM     19  C   UNL     1       2.252   7.746  18.906  0.00  0.00    +0.000 A 
ATOM     20  C   UNL     1       1.984   7.540  20.268  0.00  0.00    +0.000 A 
ATOM     21  C   UNL     1       1.124   8.390  20.968  0.00  0.00    +0.000 A 
ATOM     22  C   UNL     1       0.570   9.486  20.320  0.00  0.00    +0.000 A 
ATOM     23  F   UNL     1      -0.259  10.296  20.990  0.00  0.00    +0.000 F 
ATOM     24  C   UNL     1       0.867   9.750  18.989  0.00  0.00    +0.000 A 
ATOM     25  C   UNL     1       1.707   8.882  18.283  0.00  0.00    +0.000 A 
ENDBRANCH   6  19
BRANCH   1  27
ATOM     26  N   UNL     1       6.841   3.817  13.268  0.00  0.00    +0.000 N 
ATOM     27  C   UNL     1       7.009   4.784  14.216  0.00  0.00    +0.000 C 
ATOM     28  O   UNL     1       7.959   5.555  14.167  0.00  0.00    +0.000 OA
ATOM     29  H   UNL     1       7.514   3.791  12.512  0.00  0.00    +0.000 HD
ATOM     30  H   UNL     1       6.003   3.263  13.170  0.00  0.00    +0.000 HD
ENDBRANCH   1  27
TORSDOF 3
ENDMDL
MODEL 2
REMARK VINA RESULT:      -9.2      0.660      1.256
REMARK  Name = 
REMARK  3 active torsions:
REMARK  status: ('A' for Active; 'I' for Inactive)
REMARK    1  A    between atoms: C_2  and  C_4
REMARK    2  A    between atoms: C_8  and  C_9
REMARK    3  A    between atoms: C_16  and  C_17
REMARK                            x       y       z     vdW  Elec       q    Type
REMARK                         _______ _______ _______ _____ _____    ______ ____
ROOT
ATOM      1  C   UNL     1       5.952   4.893  15.344  0.00  0.00    +0.000 A 
ATOM      2  C   UNL     1       5.571   3.748  16.159  0.00  0.00    +0.000 A 
ATOM      3  C   UNL     1       4.658   3.904  17.128  0.00  0.00    +0.000 A 
ATOM      4  N   UNL     1       4.130   5.169  17.398  0.00  0.00    +0.000 N 
ATOM      5  C   UNL     1       3.222   5.588  18.371  0.00  0.00    +0.000 A 
ATOM      6  C   UNL     1       3.077   6.957  18.131  0.00  0.00    +0.000 A 
ATOM      7  N   UNL     1       3.865   7.369  17.074  0.00  0.00    +0.000 NA
ATOM      8  C   UNL     1       4.495   6.293  16.660  0.00  0.00    +0.000 A 
ATOM      9  C   UNL     1       5.441   6.117  15.604  0.00  0.00    +0.000 A 
ENDROOT
BRANCH   5  10
ATOM     10  C   UNL     1       2.579   4.695  19.341  0.00  0.00    +0.000 A 
ATOM     11  C   UNL     1       2.793   4.774  20.700  0.00  0.00    +0.000 A 
ATOM     12  C   UNL     1       2.111   3.863  21.467  0.00  0.00    +0.000 A 
ATOM     13  N   UNL     1       1.228   2.988  20.963  0.00  0.00    +0.000 NA
ATOM     14  C   UNL     1       1.061   3.008  19.640  0.00  0.00    +0.000 A 
ATOM     15  N   UNL     1       0.068   2.211  19.114  0.00  0.00    +0.000 N 
ATOM     16  N   UNL     1       1.718   3.813  18.804  0.00  0.00    +0.000 NA
ATOM     17  H   UNL     1      -0.610   1.997  19.833  0.00  0.00    +0.000 HD
ATOM     18  H   UNL     1      -0.285   2.631  18.263  0.00  0.00    +0.000 HD
ENDBRANCH   5  10
BRANCH   6  19
ATOM     19  C   UNL     1       2.213   7.901  18.839  0.00  0.00    +0.000 A 
ATOM     20  C   UNL     1       1.939   7.780  20.210  0.00  0.00    +0.000 A 
ATOM     21  C   UNL     1       1.038   8.641  20.841  0.00  0.00    +0.000 A 
ATOM     22  C   UNL     1       0.446   9.665  20.114  0.00  0.00    +0.000 A 
ATOM     23  F   UNL     1      -0.423  10.485  20.719  0.00  0.00    +0.000 F 
ATOM     24  C   UNL     1       0.747   9.848  18.770  0.00  0.00    +0.000 A 
ATOM     25  C   UNL     1       1.629   8.968  18.133  0.00  0.00    +0.000 A 
ENDBRANCH   6  19
BRANCH   1  27
ATOM     26  N   UNL     1       6.673   3.774  13.316  0.00  0.00    +0.000 N 
ATOM     27  C   UNL     1       6.926   4.767  14.217  0.00  0.00    +0.000 C 
ATOM     28  O   UNL     1       7.881   5.519  14.074  0.00  0.00    +0.000 OA
ATOM     29  H   UNL     1       7.288   3.713  12.513  0.00  0.00    +0.000 HD
ATOM     30  H   UNL     1       5.821   3.233  13.296  0.00  0.00    +0.000 HD
ENDBRANCH   1  27
TORSDOF 3
ENDMDL
MODEL 3
REMARK VINA RESULT:      -8.8      1.377      1.431
REMARK  Name = 
REMARK  3 active torsions:
REMARK  status: ('A' for Active; 'I' for Inactive)
REMARK    1  A    between atoms: C_2  and  C_4
REMARK    2  A    between atoms: C_8  and  C_9
REMARK    3  A    between atoms: C_16  and  C_17
REMARK                            x       y       z     vdW  Elec       q    Type
REMARK                         _______ _______ _______ _____ _____    ______ ____
ROOT
ATOM      1  C   UNL     1       6.525   4.947  14.390  0.00  0.00    +0.000 A 
ATOM      2  C   UNL     1       6.208   3.702  15.077  0.00  0.00    +0.000 A 
ATOM      3  C   UNL     1       5.331   3.715  16.090  0.00  0.00    +0.000 A 
ATOM      4  N   UNL     1       4.781   4.922  16.528  0.00  0.00    +0.000 N 
ATOM      5  C   UNL     1       3.902   5.194  17.576  0.00  0.00    +0.000 A 
ATOM      6  C   UNL     1       3.711   6.577  17.507  0.00  0.00    +0.000 A 
ATOM      7  N   UNL     1       4.444   7.135  16.477  0.00  0.00    +0.000 NA
ATOM      8  C   UNL     1       5.086   6.135  15.915  0.00  0.00    +0.000 A 
ATOM      9  C   UNL     1       5.992   6.115  14.812  0.00  0.00    +0.000 A 
ENDROOT
BRANCH   5  10
ATOM     10  C   UNL     1       3.323   4.174  18.457  0.00  0.00    +0.000 A 
ATOM     11  C   UNL     1       1.996   3.805  18.419  0.00  0.00    +0.000 A 
ATOM     12  C   UNL     1       1.619   2.832  19.311  0.00  0.00    +0.000 A 
ATOM     13  N   UNL     1       2.480   2.208  20.129  0.00  0.00    +0.000 NA
ATOM     14  C   UNL     1       3.751   2.608  20.071  0.00  0.00    +0.000 A 
ATOM     15  N   UNL     1       4.674   1.895  20.806  0.00  0.00    +0.000 N 
ATOM     16  N   UNL     1       4.205   3.582  19.283  0.00  0.00    +0.000 NA
ATOM     17  H   UNL     1       4.310   0.972  21.001  0.00  0.00    +0.000 HD
ATOM     18  H   UNL     1       5.576   1.944  20.350  0.00  0.00    +0.000 HD
ENDBRANCH   5  10
BRANCH   6  19
ATOM     19  C   UNL     1       2.851   7.404  18.353  0.00  0.00    +0.000 A 
ATOM     20  C   UNL     1       2.565   7.065  19.685  0.00  0.00    +0.000 A 
ATOM     21  C   UNL     1       1.668   7.822  20.442  0.00  0.00    +0.000 A 
ATOM     22  C   UNL     1       1.093   8.957  19.887  0.00  0.00    +0.000 A 
ATOM     23  F   UNL     1       0.228   9.678  20.612  0.00  0.00    +0.000 F 
ATOM     24  C   UNL     1       1.406   9.352  18.592  0.00  0.00    +0.000 A 
ATOM     25  C   UNL     1       2.284   8.578  17.827  0.00  0.00    +0.000 A 
ENDBRANCH   6  19
BRANCH   1  27
ATOM     26  N   UNL     1       8.536   5.809  13.341  0.00  0.00    +0.000 N 
ATOM     27  C   UNL     1       7.456   4.984  13.220  0.00  0.00    +0.000 C 
ATOM     28  O   UNL     1       7.295   4.300  12.218  0.00  0.00    +0.000 OA
ATOM     29  H   UNL     1       9.209   5.801  12.584  0.00  0.00    +0.000 HD
ATOM     30  H   UNL     1       8.801   6.270  14.199  0.00  0.00    +0.000 HD
ENDBRANCH   1  27
TORSDOF 3
ENDMDL
MODEL 4
REMARK VINA RESULT:      -8.7      1.167      1.538
REMARK  Name = 
REMARK  3 active torsions:
REMARK  status: ('A' for Active; 'I' for Inactive)
REMARK    1  A    between atoms: C_2  and  C_4
REMARK    2  A    between atoms: C_8  and  C_9
REMARK    3  A    between atoms: C_16  and  C_17
REMARK                            x       y       z     vdW  Elec       q    Type
REMARK                         _______ _______ _______ _____ _____    ______ ____
ROOT
ATOM      1  C   UNL     1       6.341   4.840  14.645  0.00  0.00    +0.000 A 
ATOM      2  C   UNL     1       6.060   3.624  15.395  0.00  0.00    +0.000 A 
ATOM      3  C   UNL     1       5.206   3.670  16.429  0.00  0.00    +0.000 A 
ATOM      4  N   UNL     1       4.648   4.888  16.824  0.00  0.00    +0.000 N 
ATOM      5  C   UNL     1       3.790   5.195  17.880  0.00  0.00    +0.000 A 
ATOM      6  C   UNL     1       3.576   6.571  17.753  0.00  0.00    +0.000 A 
ATOM      7  N   UNL     1       4.275   7.091  16.682  0.00  0.00    +0.000 NA
ATOM      8  C   UNL     1       4.920   6.076  16.150  0.00  0.00    +0.000 A 
ATOM      9  C   UNL     1       5.800   6.019  15.027  0.00  0.00    +0.000 A 
ENDROOT
BRANCH   5  10
ATOM     10  C   UNL     1       3.248   4.207  18.820  0.00  0.00    +0.000 A 
ATOM     11  C   UNL     1       3.990   3.639  19.833  0.00  0.00    +0.000 A 
ATOM     12  C   UNL     1       3.328   2.734  20.624  0.00  0.00    +0.000 A 
ATOM     13  N   UNL     1       2.023   2.454  20.491  0.00  0.00    +0.000 NA
ATOM     14  C   UNL     1       1.378   3.078  19.504  0.00  0.00    +0.000 A 
ATOM     15  N   UNL     1       0.013   2.906  19.430  0.00  0.00    +0.000 N 
ATOM     16  N   UNL     1       1.943   3.929  18.648  0.00  0.00    +0.000 NA
ATOM     17  H   UNL     1      -0.341   2.617  20.332  0.00  0.00    +0.000 HD
ATOM     18  H   UNL     1      -0.407   3.729  19.016  0.00  0.00    +0.000 HD
ENDBRANCH   5  10
BRANCH   6  19
ATOM     19  C   UNL     1       2.723   7.423  18.581  0.00  0.00    +0.000 A 
ATOM     20  C   UNL     1       2.432   7.113  19.919  0.00  0.00    +0.000 A 
ATOM     21  C   UNL     1       1.542   7.894  20.660  0.00  0.00    +0.000 A 
ATOM     22  C   UNL     1       0.979   9.024  20.082  0.00  0.00    +0.000 A 
ATOM     23  F   UNL     1       0.121   9.768  20.791  0.00  0.00    +0.000 F 
ATOM     24  C   UNL     1       1.299   9.390  18.780  0.00  0.00    +0.000 A 
ATOM     25  C   UNL     1       2.169   8.592  18.031  0.00  0.00    +0.000 A 
ENDBRANCH   6  19
BRANCH   1  27
ATOM     26  N   UNL     1       8.309   5.687  13.507  0.00  0.00    +0.000 N 
ATOM     27  C   UNL     1       7.243   4.838  13.453  0.00  0.00    +0.000 C 
ATOM     28  O   UNL     1       7.073   4.102  12.490  0.00  0.00    +0.000 OA
ATOM     29  H   UNL     1       8.964   5.655  12.736  0.00  0.00    +0.000 HD
ATOM     30  H   UNL     1       8.585   6.195  14.335  0.00  0.00    +0.000 HD
ENDBRANCH   1  27
TORSDOF 3
ENDMDL
MODEL 5
REMARK VINA RESULT:      -8.7      2.291      4.281
REMARK  Name = 
REMARK  3 active torsions:
REMARK  status: ('A' for Active; 'I' for Inactive)
REMARK    1  A    between atoms: C_2  and  C_4
REMARK    2  A    between atoms: C_8  and  C_9
REMARK    3  A    between atoms: C_16  and  C_17
REMARK                            x       y       z     vdW  Elec       q    Type
REMARK                         _______ _______ _______ _____ _____    ______ ____
ROOT
ATOM      1  C   UNL     1       6.177   5.083  14.768  0.00  0.00    +0.000 A 
ATOM      2  C   UNL     1       5.664   6.432  14.966  0.00  0.00    +0.000 A 
ATOM      3  C   UNL     1       4.816   6.671  15.977  0.00  0.00    +0.000 A 
ATOM      4  N   UNL     1       4.374   5.622  16.787  0.00  0.00    +0.000 N 
ATOM      5  C   UNL     1       3.470   5.611  17.849  0.00  0.00    +0.000 A 
ATOM      6  C   UNL     1       3.451   4.276  18.262  0.00  0.00    +0.000 A 
ATOM      7  N   UNL     1       4.290   3.498  17.489  0.00  0.00    +0.000 NA
ATOM      8  C   UNL     1       4.819   4.315  16.606  0.00  0.00    +0.000 A 
ATOM      9  C   UNL     1       5.751   4.068  15.553  0.00  0.00    +0.000 A 
ENDROOT
BRANCH   5  10
ATOM     10  C   UNL     1       2.792   6.803  18.371  0.00  0.00    +0.000 A 
ATOM     11  C   UNL     1       2.341   7.829  17.569  0.00  0.00    +0.000 A 
ATOM     12  C   UNL     1       1.726   8.870  18.219  0.00  0.00    +0.000 A 
ATOM     13  N   UNL     1       1.496   8.882  19.540  0.00  0.00    +0.000 NA
ATOM     14  C   UNL     1       1.939   7.830  20.230  0.00  0.00    +0.000 A 
ATOM     15  N   UNL     1       1.602   7.758  21.565  0.00  0.00    +0.000 N 
ATOM     16  N   UNL     1       2.597   6.798  19.701  0.00  0.00    +0.000 NA
ATOM     17  H   UNL     1       0.786   8.329  21.738  0.00  0.00    +0.000 HD
ATOM     18  H   UNL     1       1.549   6.788  21.847  0.00  0.00    +0.000 HD
ENDBRANCH   5  10
BRANCH   6  19
ATOM     19  C   UNL     1       2.694   3.695  19.371  0.00  0.00    +0.000 A 
ATOM     20  C   UNL     1       1.291   3.649  19.375  0.00  0.00    +0.000 A 
ATOM     21  C   UNL     1       0.591   3.172  20.486  0.00  0.00    +0.000 A 
ATOM     22  C   UNL     1       1.294   2.686  21.580  0.00  0.00    +0.000 A 
ATOM     23  F   UNL     1       0.621   2.236  22.646  0.00  0.00    +0.000 F 
ATOM     24  C   UNL     1       2.683   2.661  21.578  0.00  0.00    +0.000 A 
ATOM     25  C   UNL     1       3.382   3.164  20.476  0.00  0.00    +0.000 A 
ENDBRANCH   6  19
BRANCH   1  27
ATOM     26  N   UNL     1       6.888   3.673  12.926  0.00  0.00    +0.000 N 
ATOM     27  C   UNL     1       7.165   4.769  13.691  0.00  0.00    +0.000 C 
ATOM     28  O   UNL     1       8.152   5.458  13.470  0.00  0.00    +0.000 OA
ATOM     29  H   UNL     1       7.513   3.481  12.153  0.00  0.00    +0.000 HD
ATOM     30  H   UNL     1       6.015   3.168  12.960  0.00  0.00    +0.000 HD
ENDBRANCH   1  27
TORSDOF 3
ENDMDL
MODEL 6
REMARK VINA RESULT:      -8.7      1.182      1.551
REMARK  Name = 
REMARK  3 active torsions:
REMARK  status: ('A' for Active; 'I' for Inactive)
REMARK    1  A    between atoms: C_2  and  C_4
REMARK    2  A    between atoms: C_8  and  C_9
REMARK    3  A    between atoms: C_16  and  C_17
REMARK                            x       y       z     vdW  Elec       q    Type
REMARK                         _______ _______ _______ _____ _____    ______ ____
ROOT
ATOM      1  C   UNL     1       6.547   4.993  14.478  0.00  0.00    +0.000 A 
ATOM      2  C   UNL     1       6.230   3.744  15.156  0.00  0.00    +0.000 A 
ATOM      3  C   UNL     1       5.326   3.745  16.147  0.00  0.00    +0.000 A 
ATOM      4  N   UNL     1       4.750   4.945  16.571  0.00  0.00    +0.000 N 
ATOM      5  C   UNL     1       3.841   5.205  17.597  0.00  0.00    +0.000 A 
ATOM      6  C   UNL     1       3.634   6.585  17.523  0.00  0.00    +0.000 A 
ATOM      7  N   UNL     1       4.385   7.153  16.512  0.00  0.00    +0.000 NA
ATOM      8  C   UNL     1       5.054   6.162  15.967  0.00  0.00    +0.000 A 
ATOM      9  C   UNL     1       5.988   6.154  14.887  0.00  0.00    +0.000 A 
ENDROOT
BRANCH   5  10
ATOM     10  C   UNL     1       3.254   4.176  18.462  0.00  0.00    +0.000 A 
ATOM     11  C   UNL     1       1.931   3.794  18.394  0.00  0.00    +0.000 A 
ATOM     12  C   UNL     1       1.545   2.815  19.275  0.00  0.00    +0.000 A 
ATOM     13  N   UNL     1       2.394   2.198  20.111  0.00  0.00    +0.000 NA
ATOM     14  C   UNL     1       3.662   2.611  20.082  0.00  0.00    +0.000 A 
ATOM     15  N   UNL     1       4.576   1.906  20.835  0.00  0.00    +0.000 N 
ATOM     16  N   UNL     1       4.123   3.591  19.306  0.00  0.00    +0.000 NA
ATOM     17  H   UNL     1       4.218   0.979  21.021  0.00  0.00    +0.000 HD
ATOM     18  H   UNL     1       5.487   1.965  20.400  0.00  0.00    +0.000 HD
ENDBRANCH   5  10
BRANCH   6  19
ATOM     19  C   UNL     1       2.741   7.400  18.347  0.00  0.00    +0.000 A 
ATOM     20  C   UNL     1       2.131   8.566  17.859  0.00  0.00    +0.000 A 
ATOM     21  C   UNL     1       1.356   9.375  18.695  0.00  0.00    +0.000 A 
ATOM     22  C   UNL     1       1.143   8.991  20.012  0.00  0.00    +0.000 A 
ATOM     23  F   UNL     1       0.406   9.770  20.813  0.00  0.00    +0.000 F 
ATOM     24  C   UNL     1       1.683   7.809  20.504  0.00  0.00    +0.000 A 
ATOM     25  C   UNL     1       2.480   7.015  19.674  0.00  0.00    +0.000 A 
ENDBRANCH   6  19
BRANCH   1  27
ATOM     26  N   UNL     1       7.187   4.277  12.250  0.00  0.00    +0.000 N 
ATOM     27  C   UNL     1       7.506   5.044  13.332  0.00  0.00    +0.000 C 
ATOM     28  O   UNL     1       8.507   5.750  13.331  0.00  0.00    +0.000 OA
ATOM     29  H   UNL     1       7.793   4.346  11.441  0.00  0.00    +0.000 HD
ATOM     30  H   UNL     1       6.303   3.805  12.134  0.00  0.00    +0.000 HD
ENDBRANCH   1  27
TORSDOF 3
ENDMDL
MODEL 7
REMARK VINA RESULT:      -8.7      0.835      1.631
REMARK  Name = 
REMARK  3 active torsions:
REMARK  status: ('A' for Active; 'I' for Inactive)
REMARK    1  A    between atoms: C_2  and  C_4
REMARK    2  A    between atoms: C_8  and  C_9
REMARK    3  A    between atoms: C_16  and  C_17
REMARK                            x       y       z     vdW  Elec       q    Type
REMARK                         _______ _______ _______ _____ _____    ______ ____
ROOT
ATOM      1  C   UNL     1       6.232   4.884  14.890  0.00  0.00    +0.000 A 
ATOM      2  C   UNL     1       5.934   3.675  15.645  0.00  0.00    +0.000 A 
ATOM      3  C   UNL     1       5.052   3.730  16.654  0.00  0.00    +0.000 A 
ATOM      4  N   UNL     1       4.479   4.950  17.020  0.00  0.00    +0.000 N 
ATOM      5  C   UNL     1       3.591   5.266  18.048  0.00  0.00    +0.000 A 
ATOM      6  C   UNL     1       3.376   6.639  17.899  0.00  0.00    +0.000 A 
ATOM      7  N   UNL     1       4.103   7.150  16.842  0.00  0.00    +0.000 NA
ATOM      8  C   UNL     1       4.765   6.131  16.340  0.00  0.00    +0.000 A 
ATOM      9  C   UNL     1       5.677   6.065  15.243  0.00  0.00    +0.000 A 
ENDROOT
BRANCH   5  10
ATOM     10  C   UNL     1       3.026   4.286  18.983  0.00  0.00    +0.000 A 
ATOM     11  C   UNL     1       3.663   3.888  20.139  0.00  0.00    +0.000 A 
ATOM     12  C   UNL     1       2.994   2.965  20.903  0.00  0.00    +0.000 A 
ATOM     13  N   UNL     1       1.765   2.516  20.609  0.00  0.00    +0.000 NA
ATOM     14  C   UNL     1       1.213   2.983  19.489  0.00  0.00    +0.000 A 
ATOM     15  N   UNL     1      -0.097   2.638  19.234  0.00  0.00    +0.000 N 
ATOM     16  N   UNL     1       1.803   3.836  18.651  0.00  0.00    +0.000 NA
ATOM     17  H   UNL     1      -0.550   2.371  20.098  0.00  0.00    +0.000 HD
ATOM     18  H   UNL     1      -0.538   3.370  18.693  0.00  0.00    +0.000 HD
ENDBRANCH   5  10
BRANCH   6  19
ATOM     19  C   UNL     1       2.497   7.497  18.693  0.00  0.00    +0.000 A 
ATOM     20  C   UNL     1       1.918   8.663  18.169  0.00  0.00    +0.000 A 
ATOM     21  C   UNL     1       1.156   9.512  18.976  0.00  0.00    +0.000 A 
ATOM     22  C   UNL     1       0.925   9.171  20.301  0.00  0.00    +0.000 A 
ATOM     23  F   UNL     1       0.202   9.989  21.075  0.00  0.00    +0.000 F 
ATOM     24  C   UNL     1       1.434   7.991  20.830  0.00  0.00    +0.000 A 
ATOM     25  C   UNL     1       2.218   7.155  20.028  0.00  0.00    +0.000 A 
ENDBRANCH   6  19
BRANCH   1  27
ATOM     26  N   UNL     1       6.831   4.040  12.695  0.00  0.00    +0.000 N 
ATOM     27  C   UNL     1       7.167   4.871  13.723  0.00  0.00    +0.000 C 
ATOM     28  O   UNL     1       8.162   5.581  13.659  0.00  0.00    +0.000 OA
ATOM     29  H   UNL     1       7.420   4.064  11.871  0.00  0.00    +0.000 HD
ATOM     30  H   UNL     1       5.947   3.557  12.626  0.00  0.00    +0.000 HD
ENDBRANCH   1  27
TORSDOF 3
ENDMDL
MODEL 8
REMARK VINA RESULT:      -8.4      2.375      4.607
REMARK  Name = 
REMARK  3 active torsions:
REMARK  status: ('A' for Active; 'I' for Inactive)
REMARK    1  A    between atoms: C_2  and  C_4
REMARK    2  A    between atoms: C_8  and  C_9
REMARK    3  A    between atoms: C_16  and  C_17
REMARK                            x       y       z     vdW  Elec       q    Type
REMARK                         _______ _______ _______ _____ _____    ______ ____
ROOT
ATOM      1  C   UNL     1       6.046   5.140  14.956  0.00  0.00    +0.000 A 
ATOM      2  C   UNL     1       5.542   6.482  15.213  0.00  0.00    +0.000 A 
ATOM      3  C   UNL     1       4.707   6.685  16.243  0.00  0.00    +0.000 A 
ATOM      4  N   UNL     1       4.270   5.607  17.016  0.00  0.00    +0.000 N 
ATOM      5  C   UNL     1       3.379   5.558  18.088  0.00  0.00    +0.000 A 
ATOM      6  C   UNL     1       3.359   4.208  18.449  0.00  0.00    +0.000 A 
ATOM      7  N   UNL     1       4.184   3.457  17.635  0.00  0.00    +0.000 NA
ATOM      8  C   UNL     1       4.707   4.306  16.779  0.00  0.00    +0.000 A 
ATOM      9  C   UNL     1       5.625   4.096  15.705  0.00  0.00    +0.000 A 
ENDROOT
BRANCH   5  10
ATOM     10  C   UNL     1       2.713   6.731  18.664  0.00  0.00    +0.000 A 
ATOM     11  C   UNL     1       2.350   6.821  19.991  0.00  0.00    +0.000 A 
ATOM     12  C   UNL     1       1.737   7.990  20.366  0.00  0.00    +0.000 A 
ATOM     13  N   UNL     1       1.555   9.027  19.535  0.00  0.00    +0.000 NA
ATOM     14  C   UNL     1       1.969   8.862  18.278  0.00  0.00    +0.000 A 
ATOM     15  N   UNL     1       1.911   9.955  17.441  0.00  0.00    +0.000 N 
ATOM     16  N   UNL     1       2.522   7.746  17.802  0.00  0.00    +0.000 NA
ATOM     17  H   UNL     1       1.892  10.802  17.993  0.00  0.00    +0.000 HD
ATOM     18  H   UNL     1       2.639   9.882  16.742  0.00  0.00    +0.000 HD
ENDBRANCH   5  10
BRANCH   6  19
ATOM     19  C   UNL     1       2.612   3.587  19.543  0.00  0.00    +0.000 A 
ATOM     20  C   UNL     1       1.216   3.453  19.513  0.00  0.00    +0.000 A 
ATOM     21  C   UNL     1       0.519   2.939  20.610  0.00  0.00    +0.000 A 
ATOM     22  C   UNL     1       1.224   2.506  21.725  0.00  0.00    +0.000 A 
ATOM     23  F   UNL     1       0.555   2.020  22.778  0.00  0.00    +0.000 F 
ATOM     24  C   UNL     1       2.611   2.568  21.758  0.00  0.00    +0.000 A 
ATOM     25  C   UNL     1       3.305   3.107  20.669  0.00  0.00    +0.000 A 
ENDBRANCH   6  19
BRANCH   1  27
ATOM     26  N   UNL     1       6.718   3.811  13.040  0.00  0.00    +0.000 N 
ATOM     27  C   UNL     1       7.019   4.863  13.855  0.00  0.00    +0.000 C 
ATOM     28  O   UNL     1       8.014   5.548  13.658  0.00  0.00    +0.000 OA
ATOM     29  H   UNL     1       7.334   3.647  12.253  0.00  0.00    +0.000 HD
ATOM     30  H   UNL     1       5.838   3.317  13.058  0.00  0.00    +0.000 HD
ENDBRANCH   1  27
TORSDOF 3
ENDMDL
MODEL 9
REMARK VINA RESULT:      -7.9      3.778      6.556
REMARK  Name = 
REMARK  3 active torsions:
REMARK  status: ('A' for Active; 'I' for Inactive)
REMARK    1  A    between atoms: C_2  and  C_4
REMARK    2  A    between atoms: C_8  and  C_9
REMARK    3  A    between atoms: C_16  and  C_17
REMARK                            x       y       z     vdW  Elec       q    Type
REMARK                         _______ _______ _______ _____ _____    ______ ____
ROOT
ATOM      1  C   UNL     1       0.669   9.722  20.172  0.00  0.00    +0.000 A 
ATOM      2  C   UNL     1       0.478   8.618  21.103  0.00  0.00    +0.000 A 
ATOM      3  C   UNL     1       1.146   7.472  20.910  0.00  0.00    +0.000 A 
ATOM      4  N   UNL     1       1.961   7.315  19.787  0.00  0.00    +0.000 N 
ATOM      5  C   UNL     1       2.705   6.219  19.349  0.00  0.00    +0.000 A 
ATOM      6  C   UNL     1       3.318   6.673  18.177  0.00  0.00    +0.000 A 
ATOM      7  N   UNL     1       2.963   7.977  17.897  0.00  0.00    +0.000 NA
ATOM      8  C   UNL     1       2.143   8.337  18.859  0.00  0.00    +0.000 A 
ATOM      9  C   UNL     1       1.460   9.571  19.086  0.00  0.00    +0.000 A 
ENDROOT
BRANCH   5  10
ATOM     10  C   UNL     1       2.798   4.942  20.066  0.00  0.00    +0.000 A 
ATOM     11  C   UNL     1       1.839   4.499  20.951  0.00  0.00    +0.000 A 
ATOM     12  C   UNL     1       2.080   3.280  21.534  0.00  0.00    +0.000 A 
ATOM     13  N   UNL     1       3.135   2.511  21.227  0.00  0.00    +0.000 NA
ATOM     14  C   UNL     1       3.993   3.008  20.334  0.00  0.00    +0.000 A 
ATOM     15  N   UNL     1       5.012   2.184  19.907  0.00  0.00    +0.000 N 
ATOM     16  N   UNL     1       3.878   4.203  19.755  0.00  0.00    +0.000 NA
ATOM     17  H   UNL     1       4.757   1.219  20.069  0.00  0.00    +0.000 HD
ATOM     18  H   UNL     1       5.273   2.435  18.962  0.00  0.00    +0.000 HD
ENDBRANCH   5  10
BRANCH   6  19
ATOM     19  C   UNL     1       4.244   5.942  17.313  0.00  0.00    +0.000 A 
ATOM     20  C   UNL     1       3.931   4.684  16.776  0.00  0.00    +0.000 A 
ATOM     21  C   UNL     1       4.869   3.967  16.029  0.00  0.00    +0.000 A 
ATOM     22  C   UNL     1       6.110   4.531  15.769  0.00  0.00    +0.000 A 
ATOM     23  F   UNL     1       7.011   3.841  15.059  0.00  0.00    +0.000 F 
ATOM     24  C   UNL     1       6.426   5.802  16.234  0.00  0.00    +0.000 A 
ATOM     25  C   UNL     1       5.495   6.506  17.005  0.00  0.00    +0.000 A 
ENDBRANCH   6  19
BRANCH   1  27
ATOM     26  N   UNL     1      -1.220  11.187  19.755  0.00  0.00    +0.000 N 
ATOM     27  C   UNL     1      -0.009  11.040  20.366  0.00  0.00    +0.000 C 
ATOM     28  O   UNL     1       0.461  11.937  21.055  0.00  0.00    +0.000 OA
ATOM     29  H   UNL     1      -1.721  12.050  19.926  0.00  0.00    +0.000 HD
ATOM     30  H   UNL     1      -1.724  10.432  19.313  0.00  0.00    +0.000 HD
ENDBRANCH   1  27
TORSDOF 3
ENDMDL
