MODEL 1
REMARK VINA RESULT:      -6.9      0.000      0.000
REMARK  Name = 
REMARK  4 active torsions:
REMARK  status: ('A' for Active; 'I' for Inactive)
REMARK    1  A    between atoms: C_4  and  C_5
REMARK    2  A    between atoms: C_8  and  N_9
REMARK    3  A    between atoms: N_16  and  C_17
REMARK    4  A    between atoms: N_26  and  C_27
REMARK                            x       y       z     vdW  Elec       q    Type
REMARK                         _______ _______ _______ _____ _____    ______ ____
ROOT
ATOM      1  O   UNL     1       6.436  17.244  18.614  0.00  0.00    +0.000 OA
ATOM      2  C   UNL     1       6.978  16.190  18.910  0.00  0.00    +0.000 C 
ATOM      3  C   UNL     1       6.707  14.917  18.230  0.00  0.00    +0.000 C 
ATOM      4  C   UNL     1       5.461  14.521  17.881  0.00  0.00    +0.000 C 
ATOM      5  C   UNL     1       7.782  13.906  18.058  0.00  0.00    +0.000 C 
ATOM      6  O   UNL     1       7.677  13.057  17.179  0.00  0.00    +0.000 OA
ATOM      7  N   UNL     1       8.816  13.868  19.049  0.00  0.00    +0.000 N 
ATOM      8  S   UNL     1       9.345  15.366  19.619  0.00  0.00    +0.000 S 
ATOM      9  O   UNL     1       9.854  16.085  18.468  0.00  0.00    +0.000 OA
ATOM     10  O   UNL     1      10.111  15.260  20.831  0.00  0.00    +0.000 OA
ATOM     11  N   UNL     1       7.855  16.038  19.999  0.00  0.00    +0.000 N 
ENDROOT
BRANCH   4  12
ATOM     12  C   UNL     1       4.187  15.207  18.122  0.00  0.00    +0.000 A 
ATOM     13  C   UNL     1       3.720  16.191  17.247  0.00  0.00    +0.000 A 
ATOM     14  C   UNL     1       2.479  16.803  17.464  0.00  0.00    +0.000 A 
ATOM     15  C   UNL     1       1.708  16.438  18.576  0.00  0.00    +0.000 A 
ATOM     16  C   UNL     1       2.162  15.453  19.456  0.00  0.00    +0.000 A 
ATOM     17  C   UNL     1       3.390  14.827  19.210  0.00  0.00    +0.000 A 
BRANCH  15  18
ATOM     18  N   UNL     1       0.408  17.080  18.813  0.00  0.00    +0.000 N 
ATOM     19  O   UNL     1       0.185  17.531  19.944  0.00  0.00    +0.000 OA
ATOM     20  O   UNL     1      -0.387  17.138  17.862  0.00  0.00    +0.000 OA
ENDBRANCH  15  18
ENDBRANCH   4  12
BRANCH   7  21
ATOM     21  C   UNL     1       9.214  12.570  19.732  0.00  0.00    +0.000 C 
ATOM     22  C   UNL     1       9.327  11.379  18.750  0.00  0.00    +0.000 C 
ATOM     23  C   UNL     1      10.512  11.519  17.791  0.00  0.00    +0.000 C 
ATOM     24  C   UNL     1      11.837  11.740  18.518  0.00  0.00    +0.000 C 
ATOM     25  C   UNL     1      11.752  12.780  19.631  0.00  0.00    +0.000 C 
ATOM     26  C   UNL     1      10.532  12.554  20.520  0.00  0.00    +0.000 C 
ENDBRANCH   7  21
BRANCH  11  27
ATOM     27  C   UNL     1       7.661  16.525  21.397  0.00  0.00    +0.000 C 
ATOM     28  C   UNL     1       6.567  17.588  21.563  0.00  0.00    +0.000 C 
ATOM     29  C   UNL     1       5.134  17.064  21.484  0.00  0.00    +0.000 C 
ATOM     30  C   UNL     1       4.907  15.815  22.325  0.00  0.00    +0.000 C 
ATOM     31  C   UNL     1       5.986  14.755  22.133  0.00  0.00    +0.000 C 
ATOM     32  C   UNL     1       7.386  15.329  22.322  0.00  0.00    +0.000 C 
ENDBRANCH  11  27
TORSDOF 4
ENDMDL
MODEL 2
REMARK VINA RESULT:      -6.8      0.235      1.010
REMARK  Name = 
REMARK  4 active torsions:
REMARK  status: ('A' for Active; 'I' for Inactive)
REMARK    1  A    between atoms: C_4  and  C_5
REMARK    2  A    between atoms: C_8  and  N_9
REMARK    3  A    between atoms: N_16  and  C_17
REMARK    4  A    between atoms: N_26  and  C_27
REMARK                            x       y       z     vdW  Elec       q    Type
REMARK                         _______ _______ _______ _____ _____    ______ ____
ROOT
ATOM      1  O   UNL     1       6.438  17.279  18.593  0.00  0.00    +0.000 OA
ATOM      2  C   UNL     1       6.976  16.226  18.901  0.00  0.00    +0.000 C 
ATOM      3  C   UNL     1       6.717  14.952  18.219  0.00  0.00    +0.000 C 
ATOM      4  C   UNL     1       5.477  14.554  17.851  0.00  0.00    +0.000 C 
ATOM      5  C   UNL     1       7.795  13.942  18.067  0.00  0.00    +0.000 C 
ATOM      6  O   UNL     1       7.705  13.090  17.189  0.00  0.00    +0.000 OA
ATOM      7  N   UNL     1       8.813  13.906  19.075  0.00  0.00    +0.000 N 
ATOM      8  S   UNL     1       9.332  15.406  19.650  0.00  0.00    +0.000 S 
ATOM      9  O   UNL     1       9.858  16.123  18.506  0.00  0.00    +0.000 OA
ATOM     10  O   UNL     1      10.077  15.304  20.875  0.00  0.00    +0.000 OA
ATOM     11  N   UNL     1       7.835  16.078  20.004  0.00  0.00    +0.000 N 
ENDROOT
BRANCH   4  12
ATOM     12  C   UNL     1       4.198  15.239  18.069  0.00  0.00    +0.000 A 
ATOM     13  C   UNL     1       3.429  14.986  19.206  0.00  0.00    +0.000 A 
ATOM     14  C   UNL     1       2.233  15.684  19.425  0.00  0.00    +0.000 A 
ATOM     15  C   UNL     1       1.798  16.628  18.486  0.00  0.00    +0.000 A 
ATOM     16  C   UNL     1       2.561  16.893  17.345  0.00  0.00    +0.000 A 
ATOM     17  C   UNL     1       3.769  16.212  17.155  0.00  0.00    +0.000 A 
BRANCH  15  18
ATOM     18  N   UNL     1       0.543  17.360  18.705  0.00  0.00    +0.000 N 
ATOM     19  O   UNL     1      -0.486  16.909  18.183  0.00  0.00    +0.000 OA
ATOM     20  O   UNL     1       0.587  18.382  19.405  0.00  0.00    +0.000 OA
ENDBRANCH  15  18
ENDBRANCH   4  12
BRANCH   7  21
ATOM     21  C   UNL     1       9.200  12.610  19.768  0.00  0.00    +0.000 C 
ATOM     22  C   UNL     1       9.293  11.409  18.797  0.00  0.00    +0.000 C 
ATOM     23  C   UNL     1      10.472  11.526  17.827  0.00  0.00    +0.000 C 
ATOM     24  C   UNL     1      11.805  11.738  18.543  0.00  0.00    +0.000 C 
ATOM     25  C   UNL     1      11.740  12.790  19.647  0.00  0.00    +0.000 C 
ATOM     26  C   UNL     1      10.525  12.586  20.546  0.00  0.00    +0.000 C 
ENDBRANCH   7  21
BRANCH  11  27
ATOM     27  C   UNL     1       7.618  16.568  21.397  0.00  0.00    +0.000 C 
ATOM     28  C   UNL     1       6.551  17.662  21.537  0.00  0.00    +0.000 C 
ATOM     29  C   UNL     1       5.106  17.180  21.418  0.00  0.00    +0.000 C 
ATOM     30  C   UNL     1       4.820  15.937  22.250  0.00  0.00    +0.000 C 
ATOM     31  C   UNL     1       5.873  14.846  22.084  0.00  0.00    +0.000 C 
ATOM     32  C   UNL     1       7.283  15.379  22.312  0.00  0.00    +0.000 C 
ENDBRANCH  11  27
TORSDOF 4
ENDMDL
MODEL 3
REMARK VINA RESULT:      -6.8      4.191      6.130
REMARK  Name = 
REMARK  4 active torsions:
REMARK  status: ('A' for Active; 'I' for Inactive)
REMARK    1  A    between atoms: C_4  and  C_5
REMARK    2  A    between atoms: C_8  and  N_9
REMARK    3  A    between atoms: N_16  and  C_17
REMARK    4  A    between atoms: N_26  and  C_27
REMARK                            x       y       z     vdW  Elec       q    Type
REMARK                         _______ _______ _______ _____ _____    ______ ____
ROOT
ATOM      1  O   UNL     1       6.272  13.820  22.417  0.00  0.00    +0.000 OA
ATOM      2  C   UNL     1       7.415  13.781  21.986  0.00  0.00    +0.000 C 
ATOM      3  C   UNL     1       8.258  12.580  22.030  0.00  0.00    +0.000 C 
ATOM      4  C   UNL     1       8.321  11.765  23.108  0.00  0.00    +0.000 C 
ATOM      5  C   UNL     1       9.239  12.304  20.949  0.00  0.00    +0.000 C 
ATOM      6  O   UNL     1       9.640  11.157  20.777  0.00  0.00    +0.000 OA
ATOM      7  N   UNL     1       9.803  13.430  20.266  0.00  0.00    +0.000 N 
ATOM      8  S   UNL     1       8.743  14.702  19.943  0.00  0.00    +0.000 S 
ATOM      9  O   UNL     1       7.689  14.156  19.112  0.00  0.00    +0.000 OA
ATOM     10  O   UNL     1       9.424  15.916  19.583  0.00  0.00    +0.000 OA
ATOM     11  N   UNL     1       8.102  14.900  21.481  0.00  0.00    +0.000 N 
ENDROOT
BRANCH   4  12
ATOM     12  C   UNL     1       7.638  11.908  24.399  0.00  0.00    +0.000 A 
ATOM     13  C   UNL     1       8.240  12.583  25.463  0.00  0.00    +0.000 A 
ATOM     14  C   UNL     1       7.556  12.753  26.674  0.00  0.00    +0.000 A 
ATOM     15  C   UNL     1       6.266  12.227  26.824  0.00  0.00    +0.000 A 
ATOM     16  C   UNL     1       5.651  11.552  25.766  0.00  0.00    +0.000 A 
ATOM     17  C   UNL     1       6.334  11.417  24.551  0.00  0.00    +0.000 A 
BRANCH  15  18
ATOM     18  N   UNL     1       5.544  12.396  28.093  0.00  0.00    +0.000 N 
ATOM     19  O   UNL     1       5.523  13.527  28.597  0.00  0.00    +0.000 OA
ATOM     20  O   UNL     1       4.993  11.397  28.579  0.00  0.00    +0.000 OA
ENDBRANCH  15  18
ENDBRANCH   4  12
BRANCH   7  21
ATOM     21  C   UNL     1      11.305  13.580  20.089  0.00  0.00    +0.000 C 
ATOM     22  C   UNL     1      12.011  12.247  19.745  0.00  0.00    +0.000 C 
ATOM     23  C   UNL     1      11.653  11.736  18.347  0.00  0.00    +0.000 C 
ATOM     24  C   UNL     1      11.912  12.774  17.256  0.00  0.00    +0.000 C 
ATOM     25  C   UNL     1      11.399  14.167  17.610  0.00  0.00    +0.000 C 
ATOM     26  C   UNL     1      11.803  14.571  19.025  0.00  0.00    +0.000 C 
ENDBRANCH   7  21
BRANCH  11  27
ATOM     27  C   UNL     1       8.201  16.257  22.095  0.00  0.00    +0.000 C 
ATOM     28  C   UNL     1       7.133  16.567  23.152  0.00  0.00    +0.000 C 
ATOM     29  C   UNL     1       7.335  15.878  24.501  0.00  0.00    +0.000 C 
ATOM     30  C   UNL     1       8.761  15.988  25.022  0.00  0.00    +0.000 C 
ATOM     31  C   UNL     1       9.814  15.653  23.970  0.00  0.00    +0.000 C 
ATOM     32  C   UNL     1       9.607  16.450  22.687  0.00  0.00    +0.000 C 
ENDBRANCH  11  27
TORSDOF 4
ENDMDL
MODEL 4
REMARK VINA RESULT:      -6.6      4.054      5.991
REMARK  Name = 
REMARK  4 active torsions:
REMARK  status: ('A' for Active; 'I' for Inactive)
REMARK    1  A    between atoms: C_4  and  C_5
REMARK    2  A    between atoms: C_8  and  N_9
REMARK    3  A    between atoms: N_16  and  C_17
REMARK    4  A    between atoms: N_26  and  C_27
REMARK                            x       y       z     vdW  Elec       q    Type
REMARK                         _______ _______ _______ _____ _____    ______ ____
ROOT
ATOM      1  O   UNL     1       6.380  14.040  22.012  0.00  0.00    +0.000 OA
ATOM      2  C   UNL     1       7.528  14.021  21.595  0.00  0.00    +0.000 C 
ATOM      3  C   UNL     1       8.365  12.815  21.577  0.00  0.00    +0.000 C 
ATOM      4  C   UNL     1       8.408  11.934  22.603  0.00  0.00    +0.000 C 
ATOM      5  C   UNL     1       9.360  12.600  20.495  0.00  0.00    +0.000 C 
ATOM      6  O   UNL     1       9.757  11.464  20.257  0.00  0.00    +0.000 OA
ATOM      7  N   UNL     1       9.939  13.763  19.891  0.00  0.00    +0.000 N 
ATOM      8  S   UNL     1       8.890  15.059  19.633  0.00  0.00    +0.000 S 
ATOM      9  O   UNL     1       7.845  14.572  18.755  0.00  0.00    +0.000 OA
ATOM     10  O   UNL     1       9.582  16.289  19.359  0.00  0.00    +0.000 OA
ATOM     11  N   UNL     1       8.228  15.165  21.172  0.00  0.00    +0.000 N 
ENDROOT
BRANCH   4  12
ATOM     12  C   UNL     1       7.707  12.000  23.890  0.00  0.00    +0.000 A 
ATOM     13  C   UNL     1       6.416  11.490  24.036  0.00  0.00    +0.000 A 
ATOM     14  C   UNL     1       5.778  11.517  25.283  0.00  0.00    +0.000 A 
ATOM     15  C   UNL     1       6.433  12.077  26.387  0.00  0.00    +0.000 A 
ATOM     16  C   UNL     1       7.727  12.588  26.256  0.00  0.00    +0.000 A 
ATOM     17  C   UNL     1       8.365  12.526  25.011  0.00  0.00    +0.000 A 
BRANCH  15  18
ATOM     18  N   UNL     1       5.768  12.114  27.697  0.00  0.00    +0.000 N 
ATOM     19  O   UNL     1       6.478  12.276  28.700  0.00  0.00    +0.000 OA
ATOM     20  O   UNL     1       4.535  11.989  27.720  0.00  0.00    +0.000 OA
ENDBRANCH  15  18
ENDBRANCH   4  12
BRANCH   7  21
ATOM     21  C   UNL     1      11.444  13.916  19.745  0.00  0.00    +0.000 C 
ATOM     22  C   UNL     1      12.155  12.589  19.383  0.00  0.00    +0.000 C 
ATOM     23  C   UNL     1      11.822  12.111  17.967  0.00  0.00    +0.000 C 
ATOM     24  C   UNL     1      12.101  13.174  16.905  0.00  0.00    +0.000 C 
ATOM     25  C   UNL     1      11.583  14.559  17.282  0.00  0.00    +0.000 C 
ATOM     26  C   UNL     1      11.962  14.930  18.713  0.00  0.00    +0.000 C 
ENDBRANCH   7  21
BRANCH  11  27
ATOM     27  C   UNL     1       8.325  16.481  21.870  0.00  0.00    +0.000 C 
ATOM     28  C   UNL     1       7.276  16.709  22.966  0.00  0.00    +0.000 C 
ATOM     29  C   UNL     1       7.511  15.936  24.263  0.00  0.00    +0.000 C 
ATOM     30  C   UNL     1       8.947  16.030  24.762  0.00  0.00    +0.000 C 
ATOM     31  C   UNL     1       9.981  15.777  23.670  0.00  0.00    +0.000 C 
ATOM     32  C   UNL     1       9.740  16.651  22.445  0.00  0.00    +0.000 C 
ENDBRANCH  11  27
TORSDOF 4
ENDMDL
MODEL 5
REMARK VINA RESULT:      -6.2      5.685      8.642
REMARK  Name = 
REMARK  4 active torsions:
REMARK  status: ('A' for Active; 'I' for Inactive)
REMARK    1  A    between atoms: C_4  and  C_5
REMARK    2  A    between atoms: C_8  and  N_9
REMARK    3  A    between atoms: N_16  and  C_17
REMARK    4  A    between atoms: N_26  and  C_27
REMARK                            x       y       z     vdW  Elec       q    Type
REMARK                         _______ _______ _______ _____ _____    ______ ____
ROOT
ATOM      1  O   UNL     1       0.109  12.294  21.873  0.00  0.00    +0.000 OA
ATOM      2  C   UNL     1       0.590  13.345  21.476  0.00  0.00    +0.000 C 
ATOM      3  C   UNL     1       0.342  14.643  22.115  0.00  0.00    +0.000 C 
ATOM      4  C   UNL     1      -0.879  15.025  22.556  0.00  0.00    +0.000 C 
ATOM      5  C   UNL     1       1.397  15.689  22.137  0.00  0.00    +0.000 C 
ATOM      6  O   UNL     1       1.345  16.580  22.979  0.00  0.00    +0.000 OA
ATOM      7  N   UNL     1       2.336  15.703  21.055  0.00  0.00    +0.000 N 
ATOM      8  S   UNL     1       2.857  14.192  20.514  0.00  0.00    +0.000 S 
ATOM      9  O   UNL     1       3.489  13.547  21.648  0.00  0.00    +0.000 OA
ATOM     10  O   UNL     1       3.507  14.254  19.233  0.00  0.00    +0.000 OA
ATOM     11  N   UNL     1       1.361  13.462  20.305  0.00  0.00    +0.000 N 
ENDROOT
BRANCH   4  12
ATOM     12  C   UNL     1      -2.148  14.295  22.467  0.00  0.00    +0.000 A 
ATOM     13  C   UNL     1      -2.533  13.392  23.461  0.00  0.00    +0.000 A 
ATOM     14  C   UNL     1      -3.770  12.738  23.386  0.00  0.00    +0.000 A 
ATOM     15  C   UNL     1      -4.618  12.978  22.298  0.00  0.00    +0.000 A 
ATOM     16  C   UNL     1      -4.247  13.881  21.299  0.00  0.00    +0.000 A 
ATOM     17  C   UNL     1      -3.022  14.551  21.402  0.00  0.00    +0.000 A 
BRANCH  15  18
ATOM     18  N   UNL     1      -5.915  12.291  22.210  0.00  0.00    +0.000 N 
ATOM     19  O   UNL     1      -6.638  12.295  23.215  0.00  0.00    +0.000 OA
ATOM     20  O   UNL     1      -6.210  11.755  21.131  0.00  0.00    +0.000 OA
ENDBRANCH  15  18
ENDBRANCH   4  12
BRANCH   7  21
ATOM     21  C   UNL     1       2.631  16.973  20.275  0.00  0.00    +0.000 C 
ATOM     22  C   UNL     1       2.454  16.801  18.748  0.00  0.00    +0.000 C 
ATOM     23  C   UNL     1       0.990  16.605  18.343  0.00  0.00    +0.000 C 
ATOM     24  C   UNL     1       0.081  17.716  18.864  0.00  0.00    +0.000 C 
ATOM     25  C   UNL     1       0.329  18.067  20.329  0.00  0.00    +0.000 C 
ATOM     26  C   UNL     1       1.817  18.229  20.623  0.00  0.00    +0.000 C 
ENDBRANCH   7  21
BRANCH  11  27
ATOM     27  C   UNL     1       1.057  12.898  18.957  0.00  0.00    +0.000 C 
ATOM     28  C   UNL     1       1.400  11.412  18.787  0.00  0.00    +0.000 C 
ATOM     29  C   UNL     1       0.443  10.440  19.475  0.00  0.00    +0.000 C 
ATOM     30  C   UNL     1      -1.023  10.762  19.218  0.00  0.00    +0.000 C 
ATOM     31  C   UNL     1      -1.359  12.237  19.415  0.00  0.00    +0.000 C 
ATOM     32  C   UNL     1      -0.424  13.143  18.622  0.00  0.00    +0.000 C 
ENDBRANCH  11  27
TORSDOF 4
ENDMDL
MODEL 6
REMARK VINA RESULT:      -6.1      6.916     10.832
REMARK  Name = 
REMARK  4 active torsions:
REMARK  status: ('A' for Active; 'I' for Inactive)
REMARK    1  A    between atoms: C_4  and  C_5
REMARK    2  A    between atoms: C_8  and  N_9
REMARK    3  A    between atoms: N_16  and  C_17
REMARK    4  A    between atoms: N_26  and  C_27
REMARK                            x       y       z     vdW  Elec       q    Type
REMARK                         _______ _______ _______ _____ _____    ______ ____
ROOT
ATOM      1  O   UNL     1       0.478  13.335  22.410  0.00  0.00    +0.000 OA
ATOM      2  C   UNL     1      -0.715  13.588  22.482  0.00  0.00    +0.000 C 
ATOM      3  C   UNL     1      -1.740  12.583  22.795  0.00  0.00    +0.000 C 
ATOM      4  C   UNL     1      -1.733  11.337  22.269  0.00  0.00    +0.000 C 
ATOM      5  C   UNL     1      -2.953  12.955  23.567  0.00  0.00    +0.000 C 
ATOM      6  O   UNL     1      -3.586  12.083  24.153  0.00  0.00    +0.000 OA
ATOM      7  N   UNL     1      -3.426  14.302  23.445  0.00  0.00    +0.000 N 
ATOM      8  S   UNL     1      -2.236  15.497  23.389  0.00  0.00    +0.000 S 
ATOM      9  O   UNL     1      -1.493  15.394  24.629  0.00  0.00    +0.000 OA
ATOM     10  O   UNL     1      -2.740  16.761  22.924  0.00  0.00    +0.000 OA
ATOM     11  N   UNL     1      -1.271  14.844  22.182  0.00  0.00    +0.000 N 
ENDROOT
BRANCH   4  12
ATOM     12  C   UNL     1      -0.787  10.760  21.306  0.00  0.00    +0.000 A 
ATOM     13  C   UNL     1       0.280   9.965  21.729  0.00  0.00    +0.000 A 
ATOM     14  C   UNL     1       1.146   9.382  20.795  0.00  0.00    +0.000 A 
ATOM     15  C   UNL     1       0.951   9.614  19.427  0.00  0.00    +0.000 A 
ATOM     16  C   UNL     1      -0.115  10.405  18.990  0.00  0.00    +0.000 A 
ATOM     17  C   UNL     1      -0.991  10.955  19.933  0.00  0.00    +0.000 A 
BRANCH  15  18
ATOM     18  N   UNL     1       1.859   9.011  18.441  0.00  0.00    +0.000 N 
ATOM     19  O   UNL     1       2.353   7.908  18.711  0.00  0.00    +0.000 OA
ATOM     20  O   UNL     1       2.070   9.640  17.393  0.00  0.00    +0.000 OA
ENDBRANCH  15  18
ENDBRANCH   4  12
BRANCH   7  21
ATOM     21  C   UNL     1      -4.878  14.608  23.117  0.00  0.00    +0.000 C 
ATOM     22  C   UNL     1      -5.038  15.581  21.925  0.00  0.00    +0.000 C 
ATOM     23  C   UNL     1      -4.617  14.952  20.593  0.00  0.00    +0.000 C 
ATOM     24  C   UNL     1      -5.338  13.636  20.309  0.00  0.00    +0.000 C 
ATOM     25  C   UNL     1      -5.378  12.694  21.509  0.00  0.00    +0.000 C 
ATOM     26  C   UNL     1      -5.798  13.424  22.781  0.00  0.00    +0.000 C 
ENDBRANCH   7  21
BRANCH  11  27
ATOM     27  C   UNL     1      -0.991  15.700  20.991  0.00  0.00    +0.000 C 
ATOM     28  C   UNL     1       0.224  16.627  21.134  0.00  0.00    +0.000 C 
ATOM     29  C   UNL     1       1.584  15.937  21.033  0.00  0.00    +0.000 C 
ATOM     30  C   UNL     1       1.682  14.979  19.854  0.00  0.00    +0.000 C 
ATOM     31  C   UNL     1       0.481  14.045  19.736  0.00  0.00    +0.000 C 
ATOM     32  C   UNL     1      -0.837  14.811  19.746  0.00  0.00    +0.000 C 
ENDBRANCH  11  27
TORSDOF 4
ENDMDL
MODEL 7
REMARK VINA RESULT:      -6.1      1.723      2.558
REMARK  Name = 
REMARK  4 active torsions:
REMARK  status: ('A' for Active; 'I' for Inactive)
REMARK    1  A    between atoms: C_4  and  C_5
REMARK    2  A    between atoms: C_8  and  N_9
REMARK    3  A    between atoms: N_16  and  C_17
REMARK    4  A    between atoms: N_26  and  C_27
REMARK                            x       y       z     vdW  Elec       q    Type
REMARK                         _______ _______ _______ _____ _____    ______ ____
ROOT
ATOM      1  O   UNL     1       7.974  17.129  18.066  0.00  0.00    +0.000 OA
ATOM      2  C   UNL     1       8.673  16.187  18.406  0.00  0.00    +0.000 C 
ATOM      3  C   UNL     1       8.302  14.782  18.192  0.00  0.00    +0.000 C 
ATOM      4  C   UNL     1       7.051  14.311  18.399  0.00  0.00    +0.000 C 
ATOM      5  C   UNL     1       9.343  13.759  17.914  0.00  0.00    +0.000 C 
ATOM      6  O   UNL     1       9.026  12.711  17.359  0.00  0.00    +0.000 OA
ATOM      7  N   UNL     1      10.646  13.976  18.468  0.00  0.00    +0.000 N 
ATOM      8  S   UNL     1      11.203  15.569  18.438  0.00  0.00    +0.000 S 
ATOM      9  O   UNL     1      11.236  15.965  17.045  0.00  0.00    +0.000 OA
ATOM     10  O   UNL     1      12.333  15.779  19.302  0.00  0.00    +0.000 OA
ATOM     11  N   UNL     1       9.871  16.320  19.130  0.00  0.00    +0.000 N 
ENDROOT
BRANCH   4  12
ATOM     12  C   UNL     1       5.874  15.039  18.887  0.00  0.00    +0.000 A 
ATOM     13  C   UNL     1       5.600  15.136  20.253  0.00  0.00    +0.000 A 
ATOM     14  C   UNL     1       4.499  15.875  20.706  0.00  0.00    +0.000 A 
ATOM     15  C   UNL     1       3.656  16.505  19.781  0.00  0.00    +0.000 A 
ATOM     16  C   UNL     1       3.921  16.419  18.412  0.00  0.00    +0.000 A 
ATOM     17  C   UNL     1       5.042  15.703  17.974  0.00  0.00    +0.000 A 
BRANCH  15  18
ATOM     18  N   UNL     1       2.496  17.276  20.248  0.00  0.00    +0.000 N 
ATOM     19  O   UNL     1       1.832  16.809  21.183  0.00  0.00    +0.000 OA
ATOM     20  O   UNL     1       2.257  18.354  19.683  0.00  0.00    +0.000 OA
ENDBRANCH  15  18
ENDBRANCH   4  12
BRANCH   7  21
ATOM     21  C   UNL     1      11.359  12.898  19.267  0.00  0.00    +0.000 C 
ATOM     22  C   UNL     1      10.885  12.823  20.739  0.00  0.00    +0.000 C 
ATOM     23  C   UNL     1       9.448  12.308  20.868  0.00  0.00    +0.000 C 
ATOM     24  C   UNL     1       9.238  10.966  20.169  0.00  0.00    +0.000 C 
ATOM     25  C   UNL     1       9.845  10.908  18.770  0.00  0.00    +0.000 C 
ATOM     26  C   UNL     1      11.271  11.453  18.754  0.00  0.00    +0.000 C 
ENDBRANCH   7  21
BRANCH  11  27
ATOM     27  C   UNL     1      10.110  17.152  20.346  0.00  0.00    +0.000 C 
ATOM     28  C   UNL     1       9.094  18.282  20.564  0.00  0.00    +0.000 C 
ATOM     29  C   UNL     1       7.722  17.835  21.067  0.00  0.00    +0.000 C 
ATOM     30  C   UNL     1       7.802  16.852  22.227  0.00  0.00    +0.000 C 
ATOM     31  C   UNL     1       8.795  15.720  21.989  0.00  0.00    +0.000 C 
ATOM     32  C   UNL     1      10.168  16.244  21.585  0.00  0.00    +0.000 C 
ENDBRANCH  11  27
TORSDOF 4
ENDMDL
MODEL 8
REMARK VINA RESULT:      -6.1      7.294     11.413
REMARK  Name = 
REMARK  4 active torsions:
REMARK  status: ('A' for Active; 'I' for Inactive)
REMARK    1  A    between atoms: C_4  and  C_5
REMARK    2  A    between atoms: C_8  and  N_9
REMARK    3  A    between atoms: N_16  and  C_17
REMARK    4  A    between atoms: N_26  and  C_27
REMARK                            x       y       z     vdW  Elec       q    Type
REMARK                         _______ _______ _______ _____ _____    ______ ____
ROOT
ATOM      1  O   UNL     1      -0.423  14.081  23.201  0.00  0.00    +0.000 OA
ATOM      2  C   UNL     1      -1.642  14.140  23.248  0.00  0.00    +0.000 C 
ATOM      3  C   UNL     1      -2.513  12.958  23.248  0.00  0.00    +0.000 C 
ATOM      4  C   UNL     1      -2.301  11.888  22.448  0.00  0.00    +0.000 C 
ATOM      5  C   UNL     1      -3.794  12.960  24.001  0.00  0.00    +0.000 C 
ATOM      6  O   UNL     1      -4.306  11.893  24.324  0.00  0.00    +0.000 OA
ATOM      7  N   UNL     1      -4.460  14.218  24.165  0.00  0.00    +0.000 N 
ATOM      8  S   UNL     1      -3.463  15.545  24.470  0.00  0.00    +0.000 S 
ATOM      9  O   UNL     1      -2.754  15.251  25.699  0.00  0.00    +0.000 OA
ATOM     10  O   UNL     1      -4.137  16.801  24.279  0.00  0.00    +0.000 OA
ATOM     11  N   UNL     1      -2.372  15.342  23.212  0.00  0.00    +0.000 N 
ENDROOT
BRANCH   4  12
ATOM     12  C   UNL     1      -1.248  11.697  21.443  0.00  0.00    +0.000 A 
ATOM     13  C   UNL     1      -0.026  11.110  21.781  0.00  0.00    +0.000 A 
ATOM     14  C   UNL     1       0.951  10.890  20.801  0.00  0.00    +0.000 A 
ATOM     15  C   UNL     1       0.707  11.280  19.477  0.00  0.00    +0.000 A 
ATOM     16  C   UNL     1      -0.512  11.864  19.126  0.00  0.00    +0.000 A 
ATOM     17  C   UNL     1      -1.491  12.049  20.109  0.00  0.00    +0.000 A 
BRANCH  15  18
ATOM     18  N   UNL     1       1.730  11.058  18.445  0.00  0.00    +0.000 N 
ATOM     19  O   UNL     1       2.469  12.007  18.152  0.00  0.00    +0.000 OA
ATOM     20  O   UNL     1       1.795   9.930  17.932  0.00  0.00    +0.000 OA
ENDBRANCH  15  18
ENDBRANCH   4  12
BRANCH   7  21
ATOM     21  C   UNL     1      -5.930  14.389  23.820  0.00  0.00    +0.000 C 
ATOM     22  C   UNL     1      -6.192  15.567  22.851  0.00  0.00    +0.000 C 
ATOM     23  C   UNL     1      -5.643  15.305  21.445  0.00  0.00    +0.000 C 
ATOM     24  C   UNL     1      -6.156  13.997  20.847  0.00  0.00    +0.000 C 
ATOM     25  C   UNL     1      -6.097  12.821  21.817  0.00  0.00    +0.000 C 
ATOM     26  C   UNL     1      -6.658  13.193  23.186  0.00  0.00    +0.000 C 
ENDBRANCH   7  21
BRANCH  11  27
ATOM     27  C   UNL     1      -2.185  16.489  22.276  0.00  0.00    +0.000 C 
ATOM     28  C   UNL     1      -1.027  17.431  22.632  0.00  0.00    +0.000 C 
ATOM     29  C   UNL     1       0.370  16.886  22.337  0.00  0.00    +0.000 C 
ATOM     30  C   UNL     1       0.489  16.268  20.950  0.00  0.00    +0.000 C 
ATOM     31  C   UNL     1      -0.653  15.314  20.616  0.00  0.00    +0.000 C 
ATOM     32  C   UNL     1      -2.016  15.958  20.843  0.00  0.00    +0.000 C 
ENDBRANCH  11  27
TORSDOF 4
ENDMDL
MODEL 9
REMARK VINA RESULT:      -6.0      5.727      8.688
REMARK  Name = 
REMARK  4 active torsions:
REMARK  status: ('A' for Active; 'I' for Inactive)
REMARK    1  A    between atoms: C_4  and  C_5
REMARK    2  A    between atoms: C_8  and  N_9
REMARK    3  A    between atoms: N_16  and  C_17
REMARK    4  A    between atoms: N_26  and  C_27
REMARK                            x       y       z     vdW  Elec       q    Type
REMARK                         _______ _______ _______ _____ _____    ______ ____
ROOT
ATOM      1  O   UNL     1      -0.093  12.277  21.860  0.00  0.00    +0.000 OA
ATOM      2  C   UNL     1       0.427  13.301  21.443  0.00  0.00    +0.000 C 
ATOM      3  C   UNL     1       0.243  14.617  22.068  0.00  0.00    +0.000 C 
ATOM      4  C   UNL     1      -0.954  15.056  22.520  0.00  0.00    +0.000 C 
ATOM      5  C   UNL     1       1.342  15.617  22.063  0.00  0.00    +0.000 C 
ATOM      6  O   UNL     1       1.339  16.520  22.894  0.00  0.00    +0.000 OA
ATOM      7  N   UNL     1       2.265  15.577  20.969  0.00  0.00    +0.000 N 
ATOM      8  S   UNL     1       2.715  14.038  20.441  0.00  0.00    +0.000 S 
ATOM      9  O   UNL     1       3.334  13.381  21.575  0.00  0.00    +0.000 OA
ATOM     10  O   UNL     1       3.349  14.057  19.151  0.00  0.00    +0.000 OA
ATOM     11  N   UNL     1       1.186  13.371  20.261  0.00  0.00    +0.000 N 
ENDROOT
BRANCH   4  12
ATOM     12  C   UNL     1      -2.255  14.379  22.457  0.00  0.00    +0.000 A 
ATOM     13  C   UNL     1      -3.109  14.556  21.366  0.00  0.00    +0.000 A 
ATOM     14  C   UNL     1      -4.326  13.866  21.298  0.00  0.00    +0.000 A 
ATOM     15  C   UNL     1      -4.697  13.007  22.340  0.00  0.00    +0.000 A 
ATOM     16  C   UNL     1      -3.851  12.818  23.436  0.00  0.00    +0.000 A 
ATOM     17  C   UNL     1      -2.623  13.490  23.476  0.00  0.00    +0.000 A 
BRANCH  15  18
ATOM     18  N   UNL     1      -5.975  12.284  22.278  0.00  0.00    +0.000 N 
ATOM     19  O   UNL     1      -6.293  11.765  21.200  0.00  0.00    +0.000 OA
ATOM     20  O   UNL     1      -6.657  12.231  23.313  0.00  0.00    +0.000 OA
ENDBRANCH  15  18
ENDBRANCH   4  12
BRANCH   7  21
ATOM     21  C   UNL     1       2.604  16.824  20.169  0.00  0.00    +0.000 C 
ATOM     22  C   UNL     1       2.420  16.633  18.644  0.00  0.00    +0.000 C 
ATOM     23  C   UNL     1       0.949  16.481  18.244  0.00  0.00    +0.000 C 
ATOM     24  C   UNL     1       0.080  17.632  18.747  0.00  0.00    +0.000 C 
ATOM     25  C   UNL     1       0.341  17.997  20.205  0.00  0.00    +0.000 C 
ATOM     26  C   UNL     1       1.834  18.113  20.496  0.00  0.00    +0.000 C 
ENDBRANCH   7  21
BRANCH  11  27
ATOM     27  C   UNL     1       0.840  12.803  18.925  0.00  0.00    +0.000 C 
ATOM     28  C   UNL     1       1.217  11.328  18.733  0.00  0.00    +0.000 C 
ATOM     29  C   UNL     1       0.317  10.327  19.457  0.00  0.00    +0.000 C 
ATOM     30  C   UNL     1      -1.167  10.609  19.265  0.00  0.00    +0.000 C 
ATOM     31  C   UNL     1      -1.535  12.073  19.482  0.00  0.00    +0.000 C 
ATOM     32  C   UNL     1      -0.660  13.008  18.655  0.00  0.00    +0.000 C 
ENDBRANCH  11  27
TORSDOF 4
ENDMDL
