MODEL 1
REMARK VINA RESULT:      -8.7      0.000      0.000
REMARK  Name = 
REMARK  10 active torsions:
REMARK  status: ('A' for Active; 'I' for Inactive)
REMARK    1  A    between atoms: C_1  and  O_2
REMARK    2  A    between atoms: O_2  and  C_3
REMARK    3  A    between atoms: C_5  and  O_6
REMARK    4  A    between atoms: O_6  and  C_7
REMARK    5  A    between atoms: C_9  and  O_10
REMARK    6  A    between atoms: O_10  and  C_11
REMARK    7  A    between atoms: C_14  and  C_15
REMARK    8  A    between atoms: C_23  and  C_24
REMARK    9  A    between atoms: C_26  and  C_27
REMARK   10  A    between atoms: C_27  and  O_29
REMARK                            x       y       z     vdW  Elec       q    Type
REMARK                         _______ _______ _______ _____ _____    ______ ____
ROOT
ATOM      1  C   UNL     1       2.475   7.619  18.448  0.00  0.00    +0.000 A 
ATOM      2  C   UNL     1       2.211   8.775  17.693  0.00  0.00    +0.000 A 
ATOM      3  C   UNL     1       1.505   9.848  18.237  0.00  0.00    +0.000 A 
ATOM      4  C   UNL     1       1.065   9.796  19.555  0.00  0.00    +0.000 A 
ATOM      5  C   UNL     1       1.299   8.667  20.333  0.00  0.00    +0.000 A 
ATOM      6  C   UNL     1       2.001   7.593  19.773  0.00  0.00    +0.000 A 
ATOM      7  C   UNL     1       0.831   8.597  21.755  0.00  0.00    +0.000 C 
ATOM      8  C   UNL     1      -0.274   9.615  21.994  0.00  0.00    +0.000 C 
ATOM      9  C   UNL     1       0.142  10.964  21.404  0.00  0.00    +0.000 C 
ATOM     10  O   UNL     1       0.370  10.882  19.990  0.00  0.00    +0.000 OA
ENDROOT
BRANCH   1  15
ATOM     11  C   UNL     1       5.284   5.460  17.024  0.00  0.00    +0.000 A 
ATOM     12  C   UNL     1       4.600   4.274  16.742  0.00  0.00    +0.000 A 
ATOM     13  C   UNL     1       3.248   4.166  17.050  0.00  0.00    +0.000 A 
ATOM     14  C   UNL     1       2.573   5.249  17.621  0.00  0.00    +0.000 A 
ATOM     15  C   UNL     1       3.214   6.474  17.868  0.00  0.00    +0.000 A 
ATOM     16  C   UNL     1       4.581   6.551  17.551  0.00  0.00    +0.000 A 
ATOM     17  F   UNL     1       5.220   7.719  17.729  0.00  0.00    +0.000 F 
BRANCH  11  19
ATOM     18  C   UNL     1       7.435   4.631  17.560  0.00  0.00    +0.000 C 
ATOM     19  O   UNL     1       6.624   5.459  16.725  0.00  0.00    +0.000 OA
ENDBRANCH  11  19
BRANCH  13  20
ATOM     20  O   UNL     1       2.482   3.037  16.910  0.00  0.00    +0.000 OA
BRANCH  20  21
ATOM     21  C   UNL     1       2.595   1.975  17.882  0.00  0.00    +0.000 C 
ATOM     22  C   UNL     1       3.287   2.323  19.217  0.00  0.00    +0.000 C 
ATOM     23  C   UNL     1       1.897   2.658  19.801  0.00  0.00    +0.000 C 
ATOM     24  C   UNL     1       1.299   1.751  18.704  0.00  0.00    +0.000 C 
BRANCH  23  25
ATOM     25  O   UNL     1       1.704   2.250  21.171  0.00  0.00    +0.000 OA
ATOM     26  C   UNL     1       2.045   3.202  22.167  0.00  0.00    +0.000 C 
ENDBRANCH  23  25
ENDBRANCH  20  21
ENDBRANCH  13  20
ENDBRANCH   1  15
BRANCH   9  27
ATOM     27  C   UNL     1      -0.912  12.017  21.658  0.00  0.00    +0.000 C 
ATOM     28  C   UNL     1      -0.549  13.365  22.235  0.00  0.00    +0.000 C 
ATOM     29  C   UNL     1      -1.327  12.384  23.076  0.00  0.00    +0.000 C 
BRANCH  29  30
ATOM     30  C   UNL     1      -2.740  12.680  23.421  0.00  0.00    +0.000 C 
ATOM     31  O   UNL     1      -3.508  11.841  23.850  0.00  0.00    +0.000 OA
BRANCH  30  32
ATOM     32  O   UNL     1      -3.086  13.967  23.169  0.00  0.00    +0.000 OA
ATOM     33  H   UNL     1      -4.042  14.091  23.040  0.00  0.00    +0.000 HD
ENDBRANCH  30  32
ENDBRANCH  29  30
ENDBRANCH   9  27
TORSDOF 8
ENDMDL
MODEL 2
REMARK VINA RESULT:      -8.7      2.331      4.488
REMARK  Name = 
REMARK  10 active torsions:
REMARK  status: ('A' for Active; 'I' for Inactive)
REMARK    1  A    between atoms: C_1  and  O_2
REMARK    2  A    between atoms: O_2  and  C_3
REMARK    3  A    between atoms: C_5  and  O_6
REMARK    4  A    between atoms: O_6  and  C_7
REMARK    5  A    between atoms: C_9  and  O_10
REMARK    6  A    between atoms: O_10  and  C_11
REMARK    7  A    between atoms: C_14  and  C_15
REMARK    8  A    between atoms: C_23  and  C_24
REMARK    9  A    between atoms: C_26  and  C_27
REMARK   10  A    between atoms: C_27  and  O_29
REMARK                            x       y       z     vdW  Elec       q    Type
REMARK                         _______ _______ _______ _____ _____    ______ ____
ROOT
ATOM      1  C   UNL     1       2.325   7.290  19.065  0.00  0.00    +0.000 A 
ATOM      2  C   UNL     1       2.324   8.066  17.893  0.00  0.00    +0.000 A 
ATOM      3  C   UNL     1       1.758   9.342  17.871  0.00  0.00    +0.000 A 
ATOM      4  C   UNL     1       1.199   9.877  19.026  0.00  0.00    +0.000 A 
ATOM      5  C   UNL     1       1.172   9.138  20.204  0.00  0.00    +0.000 A 
ATOM      6  C   UNL     1       1.736   7.856  20.212  0.00  0.00    +0.000 A 
ATOM      7  C   UNL     1       0.573   9.701  21.457  0.00  0.00    +0.000 C 
ATOM      8  C   UNL     1      -0.365  10.849  21.119  0.00  0.00    +0.000 C 
ATOM      9  C   UNL     1       0.320  11.788  20.123  0.00  0.00    +0.000 C 
ATOM     10  O   UNL     1       0.656  11.119  18.901  0.00  0.00    +0.000 OA
ENDROOT
BRANCH   1  15
ATOM     11  C   UNL     1       2.831   3.569  19.745  0.00  0.00    +0.000 A 
ATOM     12  C   UNL     1       4.069   3.345  19.133  0.00  0.00    +0.000 A 
ATOM     13  C   UNL     1       4.710   4.387  18.472  0.00  0.00    +0.000 A 
ATOM     14  C   UNL     1       4.128   5.657  18.439  0.00  0.00    +0.000 A 
ATOM     15  C   UNL     1       2.913   5.932  19.088  0.00  0.00    +0.000 A 
ATOM     16  C   UNL     1       2.285   4.858  19.744  0.00  0.00    +0.000 A 
ATOM     17  F   UNL     1       1.145   5.089  20.415  0.00  0.00    +0.000 F 
BRANCH  11  19
ATOM     18  C   UNL     1       1.991   2.597  21.734  0.00  0.00    +0.000 C 
ATOM     19  O   UNL     1       2.254   2.471  20.336  0.00  0.00    +0.000 OA
ENDBRANCH  11  19
BRANCH  13  20
ATOM     20  O   UNL     1       5.877   4.284  17.759  0.00  0.00    +0.000 OA
BRANCH  20  21
ATOM     21  C   UNL     1       6.135   5.209  16.680  0.00  0.00    +0.000 C 
ATOM     22  C   UNL     1       7.340   4.897  15.767  0.00  0.00    +0.000 C 
ATOM     23  C   UNL     1       6.378   4.133  14.831  0.00  0.00    +0.000 C 
ATOM     24  C   UNL     1       5.235   4.974  15.438  0.00  0.00    +0.000 C 
BRANCH  23  25
ATOM     25  O   UNL     1       6.645   4.301  13.423  0.00  0.00    +0.000 OA
ATOM     26  C   UNL     1       6.049   3.354  12.550  0.00  0.00    +0.000 C 
ENDBRANCH  23  25
ENDBRANCH  20  21
ENDBRANCH  13  20
ENDBRANCH   1  15
BRANCH   9  27
ATOM     27  C   UNL     1      -0.565  12.969  19.792  0.00  0.00    +0.000 C 
ATOM     28  C   UNL     1      -0.467  13.671  18.458  0.00  0.00    +0.000 C 
ATOM     29  C   UNL     1       0.009  14.377  19.703  0.00  0.00    +0.000 C 
BRANCH  29  30
ATOM     30  C   UNL     1      -0.740  15.556  20.205  0.00  0.00    +0.000 C 
ATOM     31  O   UNL     1      -0.782  15.865  21.380  0.00  0.00    +0.000 OA
BRANCH  30  32
ATOM     32  O   UNL     1      -1.400  16.218  19.222  0.00  0.00    +0.000 OA
ATOM     33  H   UNL     1      -1.815  17.044  19.525  0.00  0.00    +0.000 HD
ENDBRANCH  30  32
ENDBRANCH  29  30
ENDBRANCH   9  27
TORSDOF 8
ENDMDL
MODEL 3
REMARK VINA RESULT:      -8.6      1.959      4.245
REMARK  Name = 
REMARK  10 active torsions:
REMARK  status: ('A' for Active; 'I' for Inactive)
REMARK    1  A    between atoms: C_1  and  O_2
REMARK    2  A    between atoms: O_2  and  C_3
REMARK    3  A    between atoms: C_5  and  O_6
REMARK    4  A    between atoms: O_6  and  C_7
REMARK    5  A    between atoms: C_9  and  O_10
REMARK    6  A    between atoms: O_10  and  C_11
REMARK    7  A    between atoms: C_14  and  C_15
REMARK    8  A    between atoms: C_23  and  C_24
REMARK    9  A    between atoms: C_26  and  C_27
REMARK   10  A    between atoms: C_27  and  O_29
REMARK                            x       y       z     vdW  Elec       q    Type
REMARK                         _______ _______ _______ _____ _____    ______ ____
ROOT
ATOM      1  C   UNL     1       2.389   7.193  18.734  0.00  0.00    +0.000 A 
ATOM      2  C   UNL     1       2.163   8.232  17.814  0.00  0.00    +0.000 A 
ATOM      3  C   UNL     1       1.580   9.436  18.212  0.00  0.00    +0.000 A 
ATOM      4  C   UNL     1       1.229   9.633  19.543  0.00  0.00    +0.000 A 
ATOM      5  C   UNL     1       1.428   8.627  20.483  0.00  0.00    +0.000 A 
ATOM      6  C   UNL     1       2.006   7.420  20.070  0.00  0.00    +0.000 A 
ATOM      7  C   UNL     1       1.054   8.826  21.921  0.00  0.00    +0.000 C 
ATOM      8  C   UNL     1       0.050   9.961  22.049  0.00  0.00    +0.000 C 
ATOM      9  C   UNL     1       0.528  11.157  21.222  0.00  0.00    +0.000 C 
ATOM     10  O   UNL     1       0.651  10.832  19.831  0.00  0.00    +0.000 OA
ENDROOT
BRANCH   1  15
ATOM     11  C   UNL     1       2.831   3.502  17.867  0.00  0.00    +0.000 A 
ATOM     12  C   UNL     1       4.185   3.463  17.518  0.00  0.00    +0.000 A 
ATOM     13  C   UNL     1       4.933   4.635  17.526  0.00  0.00    +0.000 A 
ATOM     14  C   UNL     1       4.337   5.842  17.903  0.00  0.00    +0.000 A 
ATOM     15  C   UNL     1       2.995   5.909  18.312  0.00  0.00    +0.000 A 
ATOM     16  C   UNL     1       2.262   4.710  18.288  0.00  0.00    +0.000 A 
ATOM     17  F   UNL     1       0.989   4.723  18.714  0.00  0.00    +0.000 F 
BRANCH  11  19
ATOM     18  C   UNL     1       1.844   1.698  19.041  0.00  0.00    +0.000 C 
ATOM     19  O   UNL     1       2.163   2.304  17.787  0.00  0.00    +0.000 OA
ENDBRANCH  11  19
BRANCH  13  20
ATOM     20  O   UNL     1       6.239   4.754  17.123  0.00  0.00    +0.000 OA
BRANCH  20  21
ATOM     21  C   UNL     1       6.546   5.476  15.911  0.00  0.00    +0.000 C 
ATOM     22  C   UNL     1       7.495   4.784  14.909  0.00  0.00    +0.000 C 
ATOM     23  C   UNL     1       6.253   4.200  14.202  0.00  0.00    +0.000 C 
ATOM     24  C   UNL     1       5.443   5.356  14.826  0.00  0.00    +0.000 C 
BRANCH  23  25
ATOM     25  O   UNL     1       6.341   4.159  12.762  0.00  0.00    +0.000 OA
ATOM     26  C   UNL     1       5.991   2.930  12.142  0.00  0.00    +0.000 C 
ENDBRANCH  23  25
ENDBRANCH  20  21
ENDBRANCH  13  20
ENDBRANCH   1  15
BRANCH   9  27
ATOM     27  C   UNL     1      -0.423  12.326  21.356  0.00  0.00    +0.000 C 
ATOM     28  C   UNL     1      -0.372  13.489  20.395  0.00  0.00    +0.000 C 
ATOM     29  C   UNL     1       0.072  13.688  21.823  0.00  0.00    +0.000 C 
BRANCH  29  30
ATOM     30  C   UNL     1      -0.737  14.542  22.726  0.00  0.00    +0.000 C 
ATOM     31  O   UNL     1      -1.256  15.582  22.368  0.00  0.00    +0.000 OA
BRANCH  30  32
ATOM     32  O   UNL     1      -0.798  14.061  23.992  0.00  0.00    +0.000 OA
ATOM     33  H   UNL     1      -1.463  13.361  24.108  0.00  0.00    +0.000 HD
ENDBRANCH  30  32
ENDBRANCH  29  30
ENDBRANCH   9  27
TORSDOF 8
ENDMDL
MODEL 4
REMARK VINA RESULT:      -8.5      2.286      4.549
REMARK  Name = 
REMARK  10 active torsions:
REMARK  status: ('A' for Active; 'I' for Inactive)
REMARK    1  A    between atoms: C_1  and  O_2
REMARK    2  A    between atoms: O_2  and  C_3
REMARK    3  A    between atoms: C_5  and  O_6
REMARK    4  A    between atoms: O_6  and  C_7
REMARK    5  A    between atoms: C_9  and  O_10
REMARK    6  A    between atoms: O_10  and  C_11
REMARK    7  A    between atoms: C_14  and  C_15
REMARK    8  A    between atoms: C_23  and  C_24
REMARK    9  A    between atoms: C_26  and  C_27
REMARK   10  A    between atoms: C_27  and  O_29
REMARK                            x       y       z     vdW  Elec       q    Type
REMARK                         _______ _______ _______ _____ _____    ______ ____
ROOT
ATOM      1  C   UNL     1       2.111   7.225  19.507  0.00  0.00    +0.000 A 
ATOM      2  C   UNL     1       2.133   7.904  18.277  0.00  0.00    +0.000 A 
ATOM      3  C   UNL     1       1.615   9.194  18.153  0.00  0.00    +0.000 A 
ATOM      4  C   UNL     1       1.081   9.840  19.263  0.00  0.00    +0.000 A 
ATOM      5  C   UNL     1       1.033   9.199  20.497  0.00  0.00    +0.000 A 
ATOM      6  C   UNL     1       1.549   7.902  20.607  0.00  0.00    +0.000 A 
ATOM      7  C   UNL     1       0.460   9.883  21.702  0.00  0.00    +0.000 C 
ATOM      8  C   UNL     1      -0.437  11.034  21.274  0.00  0.00    +0.000 C 
ATOM      9  C   UNL     1       0.277  11.864  20.204  0.00  0.00    +0.000 C 
ATOM     10  O   UNL     1       0.583  11.087  19.039  0.00  0.00    +0.000 OA
ENDROOT
BRANCH   1  15
ATOM     11  C   UNL     1       2.361   3.477  20.187  0.00  0.00    +0.000 A 
ATOM     12  C   UNL     1       3.709   3.237  19.899  0.00  0.00    +0.000 A 
ATOM     13  C   UNL     1       4.515   4.277  19.449  0.00  0.00    +0.000 A 
ATOM     14  C   UNL     1       3.983   5.562  19.307  0.00  0.00    +0.000 A 
ATOM     15  C   UNL     1       2.650   5.852  19.638  0.00  0.00    +0.000 A 
ATOM     16  C   UNL     1       1.858   4.780  20.086  0.00  0.00    +0.000 A 
ATOM     17  F   UNL     1       0.590   5.024  20.456  0.00  0.00    +0.000 F 
BRANCH  11  19
ATOM     18  C   UNL     1       1.396   2.281  21.988  0.00  0.00    +0.000 C 
ATOM     19  O   UNL     1       1.634   2.381  20.583  0.00  0.00    +0.000 OA
ENDBRANCH  11  19
BRANCH  13  20
ATOM     20  O   UNL     1       5.821   4.161  19.048  0.00  0.00    +0.000 OA
BRANCH  20  21
ATOM     21  C   UNL     1       6.200   4.595  17.724  0.00  0.00    +0.000 C 
ATOM     22  C   UNL     1       5.775   6.021  17.309  0.00  0.00    +0.000 C 
ATOM     23  C   UNL     1       7.139   6.530  17.824  0.00  0.00    +0.000 C 
ATOM     24  C   UNL     1       7.666   5.092  17.633  0.00  0.00    +0.000 C 
BRANCH  23  25
ATOM     25  O   UNL     1       7.740   7.566  17.019  0.00  0.00    +0.000 OA
ATOM     26  C   UNL     1       7.995   8.802  17.668  0.00  0.00    +0.000 C 
ENDBRANCH  23  25
ENDBRANCH  20  21
ENDBRANCH  13  20
ENDBRANCH   1  15
BRANCH   9  27
ATOM     27  C   UNL     1      -0.565  13.047  19.781  0.00  0.00    +0.000 C 
ATOM     28  C   UNL     1      -0.232  13.840  18.540  0.00  0.00    +0.000 C 
ATOM     29  C   UNL     1      -0.034  14.469  19.897  0.00  0.00    +0.000 C 
BRANCH  29  30
ATOM     30  C   UNL     1      -0.906  15.594  20.315  0.00  0.00    +0.000 C 
ATOM     31  O   UNL     1      -1.025  15.947  21.472  0.00  0.00    +0.000 OA
BRANCH  30  32
ATOM     32  O   UNL     1      -1.579  16.152  19.278  0.00  0.00    +0.000 OA
ATOM     33  H   UNL     1      -2.529  16.270  19.454  0.00  0.00    +0.000 HD
ENDBRANCH  30  32
ENDBRANCH  29  30
ENDBRANCH   9  27
TORSDOF 8
ENDMDL
MODEL 5
REMARK VINA RESULT:      -8.5      1.816      4.108
REMARK  Name = 
REMARK  10 active torsions:
REMARK  status: ('A' for Active; 'I' for Inactive)
REMARK    1  A    between atoms: C_1  and  O_2
REMARK    2  A    between atoms: O_2  and  C_3
REMARK    3  A    between atoms: C_5  and  O_6
REMARK    4  A    between atoms: O_6  and  C_7
REMARK    5  A    between atoms: C_9  and  O_10
REMARK    6  A    between atoms: O_10  and  C_11
REMARK    7  A    between atoms: C_14  and  C_15
REMARK    8  A    between atoms: C_23  and  C_24
REMARK    9  A    between atoms: C_26  and  C_27
REMARK   10  A    between atoms: C_27  and  O_29
REMARK                            x       y       z     vdW  Elec       q    Type
REMARK                         _______ _______ _______ _____ _____    ______ ____
ROOT
ATOM      1  C   UNL     1       1.922   7.409  19.961  0.00  0.00    +0.000 A 
ATOM      2  C   UNL     1       1.743   8.377  18.957  0.00  0.00    +0.000 A 
ATOM      3  C   UNL     1       1.091   9.582  19.223  0.00  0.00    +0.000 A 
ATOM      4  C   UNL     1       0.623   9.853  20.504  0.00  0.00    +0.000 A 
ATOM      5  C   UNL     1       0.774   8.918  21.523  0.00  0.00    +0.000 A 
ATOM      6  C   UNL     1       1.421   7.709  21.242  0.00  0.00    +0.000 A 
ATOM      7  C   UNL     1       0.274   9.197  22.909  0.00  0.00    +0.000 C 
ATOM      8  C   UNL     1      -0.772  10.301  22.876  0.00  0.00    +0.000 C 
ATOM      9  C   UNL     1      -0.264  11.457  22.012  0.00  0.00    +0.000 C 
ATOM     10  O   UNL     1      -0.014  11.046  20.661  0.00  0.00    +0.000 OA
ENDROOT
BRANCH   1  15
ATOM     11  C   UNL     1       2.606   3.671  19.598  0.00  0.00    +0.000 A 
ATOM     12  C   UNL     1       3.931   3.678  19.148  0.00  0.00    +0.000 A 
ATOM     13  C   UNL     1       4.578   4.889  18.927  0.00  0.00    +0.000 A 
ATOM     14  C   UNL     1       3.912   6.093  19.175  0.00  0.00    +0.000 A 
ATOM     15  C   UNL     1       2.602   6.124  19.678  0.00  0.00    +0.000 A 
ATOM     16  C   UNL     1       1.971   4.885  19.887  0.00  0.00    +0.000 A 
ATOM     17  F   UNL     1       0.734   4.870  20.410  0.00  0.00    +0.000 F 
BRANCH  11  19
ATOM     18  C   UNL     1       0.970   2.136  18.841  0.00  0.00    +0.000 C 
ATOM     19  O   UNL     1       2.036   2.430  19.745  0.00  0.00    +0.000 OA
ENDBRANCH  11  19
BRANCH  13  20
ATOM     20  O   UNL     1       5.838   5.040  18.406  0.00  0.00    +0.000 OA
BRANCH  20  21
ATOM     21  C   UNL     1       6.037   5.908  17.269  0.00  0.00    +0.000 C 
ATOM     22  C   UNL     1       7.293   5.652  16.409  0.00  0.00    +0.000 C 
ATOM     23  C   UNL     1       6.437   4.735  15.509  0.00  0.00    +0.000 C 
ATOM     24  C   UNL     1       5.202   5.501  16.027  0.00  0.00    +0.000 C 
BRANCH  23  25
ATOM     25  O   UNL     1       6.728   4.830  14.099  0.00  0.00    +0.000 OA
ATOM     26  C   UNL     1       6.261   3.765  13.284  0.00  0.00    +0.000 C 
ENDBRANCH  23  25
ENDBRANCH  20  21
ENDBRANCH  13  20
ENDBRANCH   1  15
BRANCH   9  27
ATOM     27  C   UNL     1      -1.258  12.596  21.987  0.00  0.00    +0.000 C 
ATOM     28  C   UNL     1      -1.099  13.792  22.896  0.00  0.00    +0.000 C 
ATOM     29  C   UNL     1      -2.224  12.818  23.143  0.00  0.00    +0.000 C 
BRANCH  29  30
ATOM     30  C   UNL     1      -3.625  13.248  22.915  0.00  0.00    +0.000 C 
ATOM     31  O   UNL     1      -4.539  12.465  22.736  0.00  0.00    +0.000 OA
BRANCH  30  32
ATOM     32  O   UNL     1      -3.765  14.596  22.886  0.00  0.00    +0.000 OA
ATOM     33  H   UNL     1      -3.063  15.047  22.387  0.00  0.00    +0.000 HD
ENDBRANCH  30  32
ENDBRANCH  29  30
ENDBRANCH   9  27
TORSDOF 8
ENDMDL
MODEL 6
REMARK VINA RESULT:      -8.5      1.973      3.999
REMARK  Name = 
REMARK  10 active torsions:
REMARK  status: ('A' for Active; 'I' for Inactive)
REMARK    1  A    between atoms: C_1  and  O_2
REMARK    2  A    between atoms: O_2  and  C_3
REMARK    3  A    between atoms: C_5  and  O_6
REMARK    4  A    between atoms: O_6  and  C_7
REMARK    5  A    between atoms: C_9  and  O_10
REMARK    6  A    between atoms: O_10  and  C_11
REMARK    7  A    between atoms: C_14  and  C_15
REMARK    8  A    between atoms: C_23  and  C_24
REMARK    9  A    between atoms: C_26  and  C_27
REMARK   10  A    between atoms: C_27  and  O_29
REMARK                            x       y       z     vdW  Elec       q    Type
REMARK                         _______ _______ _______ _____ _____    ______ ____
ROOT
ATOM      1  C   UNL     1       1.995   7.796  19.517  0.00  0.00    +0.000 A 
ATOM      2  C   UNL     1       1.559   8.745  18.575  0.00  0.00    +0.000 A 
ATOM      3  C   UNL     1       0.777   9.836  18.957  0.00  0.00    +0.000 A 
ATOM      4  C   UNL     1       0.431  10.012  20.292  0.00  0.00    +0.000 A 
ATOM      5  C   UNL     1       0.835   9.091  21.253  0.00  0.00    +0.000 A 
ATOM      6  C   UNL     1       1.613   7.996  20.857  0.00  0.00    +0.000 A 
ATOM      7  C   UNL     1       0.470   9.268  22.697  0.00  0.00    +0.000 C 
ATOM      8  C   UNL     1      -0.721  10.206  22.824  0.00  0.00    +0.000 C 
ATOM      9  C   UNL     1      -0.492  11.439  21.948  0.00  0.00    +0.000 C 
ATOM     10  O   UNL     1      -0.349  11.094  20.564  0.00  0.00    +0.000 OA
ENDROOT
BRANCH   1  15
ATOM     11  C   UNL     1       3.481   4.284  19.370  0.00  0.00    +0.000 A 
ATOM     12  C   UNL     1       4.407   4.422  18.331  0.00  0.00    +0.000 A 
ATOM     13  C   UNL     1       4.516   5.635  17.660  0.00  0.00    +0.000 A 
ATOM     14  C   UNL     1       3.716   6.717  18.039  0.00  0.00    +0.000 A 
ATOM     15  C   UNL     1       2.814   6.631  19.112  0.00  0.00    +0.000 A 
ATOM     16  C   UNL     1       2.723   5.391  19.768  0.00  0.00    +0.000 A 
ATOM     17  F   UNL     1       1.906   5.280  20.828  0.00  0.00    +0.000 F 
BRANCH  11  19
ATOM     18  C   UNL     1       2.360   2.201  19.467  0.00  0.00    +0.000 C 
ATOM     19  O   UNL     1       3.415   3.037  19.944  0.00  0.00    +0.000 OA
ENDBRANCH  11  19
BRANCH  13  20
ATOM     20  O   UNL     1       5.314   5.880  16.572  0.00  0.00    +0.000 OA
BRANCH  20  21
ATOM     21  C   UNL     1       6.275   4.885  16.157  0.00  0.00    +0.000 C 
ATOM     22  C   UNL     1       5.713   3.590  15.533  0.00  0.00    +0.000 C 
ATOM     23  C   UNL     1       5.854   4.249  14.144  0.00  0.00    +0.000 C 
ATOM     24  C   UNL     1       6.911   5.181  14.774  0.00  0.00    +0.000 C 
BRANCH  23  25
ATOM     25  O   UNL     1       6.297   3.362  13.096  0.00  0.00    +0.000 OA
ATOM     26  C   UNL     1       5.421   3.204  11.990  0.00  0.00    +0.000 C 
ENDBRANCH  23  25
ENDBRANCH  20  21
ENDBRANCH  13  20
ENDBRANCH   1  15
BRANCH   9  27
ATOM     27  C   UNL     1      -1.636  12.420  22.079  0.00  0.00    +0.000 C 
ATOM     28  C   UNL     1      -1.395  13.852  22.493  0.00  0.00    +0.000 C 
ATOM     29  C   UNL     1      -2.092  12.913  23.446  0.00  0.00    +0.000 C 
BRANCH  29  30
ATOM     30  C   UNL     1      -3.527  13.123  23.758  0.00  0.00    +0.000 C 
ATOM     31  O   UNL     1      -4.314  12.209  23.913  0.00  0.00    +0.000 OA
BRANCH  30  32
ATOM     32  O   UNL     1      -3.870  14.434  23.809  0.00  0.00    +0.000 OA
ATOM     33  H   UNL     1      -4.638  14.655  23.254  0.00  0.00    +0.000 HD
ENDBRANCH  30  32
ENDBRANCH  29  30
ENDBRANCH   9  27
TORSDOF 8
ENDMDL
MODEL 7
REMARK VINA RESULT:      -8.4      1.699      3.832
REMARK  Name = 
REMARK  10 active torsions:
REMARK  status: ('A' for Active; 'I' for Inactive)
REMARK    1  A    between atoms: C_1  and  O_2
REMARK    2  A    between atoms: O_2  and  C_3
REMARK    3  A    between atoms: C_5  and  O_6
REMARK    4  A    between atoms: O_6  and  C_7
REMARK    5  A    between atoms: C_9  and  O_10
REMARK    6  A    between atoms: O_10  and  C_11
REMARK    7  A    between atoms: C_14  and  C_15
REMARK    8  A    between atoms: C_23  and  C_24
REMARK    9  A    between atoms: C_26  and  C_27
REMARK   10  A    between atoms: C_27  and  O_29
REMARK                            x       y       z     vdW  Elec       q    Type
REMARK                         _______ _______ _______ _____ _____    ______ ____
ROOT
ATOM      1  C   UNL     1       2.277   7.437  19.306  0.00  0.00    +0.000 A 
ATOM      2  C   UNL     1       1.971   8.402  18.331  0.00  0.00    +0.000 A 
ATOM      3  C   UNL     1       1.226   9.539  18.647  0.00  0.00    +0.000 A 
ATOM      4  C   UNL     1       0.789   9.745  19.951  0.00  0.00    +0.000 A 
ATOM      5  C   UNL     1       1.064   8.809  20.944  0.00  0.00    +0.000 A 
ATOM      6  C   UNL     1       1.805   7.669  20.612  0.00  0.00    +0.000 A 
ATOM      7  C   UNL     1       0.599   9.018  22.354  0.00  0.00    +0.000 C 
ATOM      8  C   UNL     1      -0.541  10.024  22.386  0.00  0.00    +0.000 C 
ATOM      9  C   UNL     1      -0.174  11.235  21.526  0.00  0.00    +0.000 C 
ATOM     10  O   UNL     1       0.055  10.872  20.158  0.00  0.00    +0.000 OA
ENDROOT
BRANCH   1  15
ATOM     11  C   UNL     1       3.268   4.051  17.847  0.00  0.00    +0.000 A 
ATOM     12  C   UNL     1       4.562   3.903  18.355  0.00  0.00    +0.000 A 
ATOM     13  C   UNL     1       5.119   4.914  19.131  0.00  0.00    +0.000 A 
ATOM     14  C   UNL     1       4.378   6.064  19.417  0.00  0.00    +0.000 A 
ATOM     15  C   UNL     1       3.057   6.224  18.969  0.00  0.00    +0.000 A 
ATOM     16  C   UNL     1       2.522   5.188  18.184  0.00  0.00    +0.000 A 
ATOM     17  F   UNL     1       1.247   5.281  17.773  0.00  0.00    +0.000 F 
BRANCH  11  19
ATOM     18  C   UNL     1       2.359   1.867  17.762  0.00  0.00    +0.000 C 
ATOM     19  O   UNL     1       2.818   3.022  17.057  0.00  0.00    +0.000 OA
ENDBRANCH  11  19
BRANCH  13  20
ATOM     20  O   UNL     1       6.402   4.936  19.616  0.00  0.00    +0.000 OA
BRANCH  20  21
ATOM     21  C   UNL     1       7.461   5.482  18.800  0.00  0.00    +0.000 C 
ATOM     22  C   UNL     1       7.991   4.590  17.657  0.00  0.00    +0.000 C 
ATOM     23  C   UNL     1       6.970   5.263  16.715  0.00  0.00    +0.000 C 
ATOM     24  C   UNL     1       6.954   6.452  17.699  0.00  0.00    +0.000 C 
BRANCH  23  25
ATOM     25  O   UNL     1       7.456   5.519  15.380  0.00  0.00    +0.000 OA
ATOM     26  C   UNL     1       6.834   4.792  14.332  0.00  0.00    +0.000 C 
ENDBRANCH  23  25
ENDBRANCH  20  21
ENDBRANCH  13  20
ENDBRANCH   1  15
BRANCH   9  27
ATOM     27  C   UNL     1      -1.266  12.281  21.566  0.00  0.00    +0.000 C 
ATOM     28  C   UNL     1      -0.962  13.717  21.919  0.00  0.00    +0.000 C 
ATOM     29  C   UNL     1      -1.744  12.866  22.888  0.00  0.00    +0.000 C 
BRANCH  29  30
ATOM     30  C   UNL     1      -3.175  13.168  23.134  0.00  0.00    +0.000 C 
ATOM     31  O   UNL     1      -4.017  12.306  23.295  0.00  0.00    +0.000 OA
BRANCH  30  32
ATOM     32  O   UNL     1      -3.444  14.497  23.117  0.00  0.00    +0.000 OA
ATOM     33  H   UNL     1      -3.436  14.903  24.001  0.00  0.00    +0.000 HD
ENDBRANCH  30  32
ENDBRANCH  29  30
ENDBRANCH   9  27
TORSDOF 8
ENDMDL
MODEL 8
REMARK VINA RESULT:      -8.4      2.377      4.707
REMARK  Name = 
REMARK  10 active torsions:
REMARK  status: ('A' for Active; 'I' for Inactive)
REMARK    1  A    between atoms: C_1  and  O_2
REMARK    2  A    between atoms: O_2  and  C_3
REMARK    3  A    between atoms: C_5  and  O_6
REMARK    4  A    between atoms: O_6  and  C_7
REMARK    5  A    between atoms: C_9  and  O_10
REMARK    6  A    between atoms: O_10  and  C_11
REMARK    7  A    between atoms: C_14  and  C_15
REMARK    8  A    between atoms: C_23  and  C_24
REMARK    9  A    between atoms: C_26  and  C_27
REMARK   10  A    between atoms: C_27  and  O_29
REMARK                            x       y       z     vdW  Elec       q    Type
REMARK                         _______ _______ _______ _____ _____    ______ ____
ROOT
ATOM      1  C   UNL     1       2.052   7.309  19.184  0.00  0.00    +0.000 A 
ATOM      2  C   UNL     1       2.044   8.178  18.079  0.00  0.00    +0.000 A 
ATOM      3  C   UNL     1       1.619   9.501  18.203  0.00  0.00    +0.000 A 
ATOM      4  C   UNL     1       1.212   9.990  19.440  0.00  0.00    +0.000 A 
ATOM      5  C   UNL     1       1.198   9.160  20.556  0.00  0.00    +0.000 A 
ATOM      6  C   UNL     1       1.618   7.832  20.418  0.00  0.00    +0.000 A 
ATOM      7  C   UNL     1       0.761   9.672  21.896  0.00  0.00    +0.000 C 
ATOM      8  C   UNL     1      -0.071  10.934  21.728  0.00  0.00    +0.000 C 
ATOM      9  C   UNL     1       0.632  11.880  20.751  0.00  0.00    +0.000 C 
ATOM     10  O   UNL     1       0.798  11.286  19.457  0.00  0.00    +0.000 OA
ENDROOT
BRANCH   1  15
ATOM     11  C   UNL     1       2.280   3.525  19.630  0.00  0.00    +0.000 A 
ATOM     12  C   UNL     1       3.361   3.216  18.798  0.00  0.00    +0.000 A 
ATOM     13  C   UNL     1       3.981   4.225  18.069  0.00  0.00    +0.000 A 
ATOM     14  C   UNL     1       3.537   5.546  18.187  0.00  0.00    +0.000 A 
ATOM     15  C   UNL     1       2.491   5.901  19.053  0.00  0.00    +0.000 A 
ATOM     16  C   UNL     1       1.879   4.859  19.772  0.00  0.00    +0.000 A 
ATOM     17  F   UNL     1       0.905   5.162  20.645  0.00  0.00    +0.000 F 
BRANCH  11  19
ATOM     18  C   UNL     1       1.845   2.455  21.696  0.00  0.00    +0.000 C 
ATOM     19  O   UNL     1       1.704   2.457  20.275  0.00  0.00    +0.000 OA
ENDBRANCH  11  19
BRANCH  13  20
ATOM     20  O   UNL     1       4.988   4.049  17.155  0.00  0.00    +0.000 OA
BRANCH  20  21
ATOM     21  C   UNL     1       5.900   5.135  16.883  0.00  0.00    +0.000 C 
ATOM     22  C   UNL     1       7.329   4.753  16.444  0.00  0.00    +0.000 C 
ATOM     23  C   UNL     1       6.855   4.835  14.977  0.00  0.00    +0.000 C 
ATOM     24  C   UNL     1       5.719   5.755  15.472  0.00  0.00    +0.000 C 
BRANCH  23  25
ATOM     25  O   UNL     1       7.815   5.405  14.063  0.00  0.00    +0.000 OA
ATOM     26  C   UNL     1       7.683   5.038  12.698  0.00  0.00    +0.000 C 
ENDBRANCH  23  25
ENDBRANCH  20  21
ENDBRANCH  13  20
ENDBRANCH   1  15
BRANCH   9  27
ATOM     27  C   UNL     1      -0.143  13.168  20.589  0.00  0.00    +0.000 C 
ATOM     28  C   UNL     1      -1.468  13.199  19.863  0.00  0.00    +0.000 C 
ATOM     29  C   UNL     1      -0.261  13.846  19.230  0.00  0.00    +0.000 C 
BRANCH  29  30
ATOM     30  C   UNL     1      -0.215  15.322  19.090  0.00  0.00    +0.000 C 
ATOM     31  O   UNL     1       0.810  15.935  18.861  0.00  0.00    +0.000 OA
BRANCH  30  32
ATOM     32  O   UNL     1      -1.421  15.909  19.285  0.00  0.00    +0.000 OA
ATOM     33  H   UNL     1      -2.116  15.283  19.557  0.00  0.00    +0.000 HD
ENDBRANCH  30  32
ENDBRANCH  29  30
ENDBRANCH   9  27
TORSDOF 8
ENDMDL
MODEL 9
REMARK VINA RESULT:      -8.4      2.296      4.318
REMARK  Name = 
REMARK  10 active torsions:
REMARK  status: ('A' for Active; 'I' for Inactive)
REMARK    1  A    between atoms: C_1  and  O_2
REMARK    2  A    between atoms: O_2  and  C_3
REMARK    3  A    between atoms: C_5  and  O_6
REMARK    4  A    between atoms: O_6  and  C_7
REMARK    5  A    between atoms: C_9  and  O_10
REMARK    6  A    between atoms: O_10  and  C_11
REMARK    7  A    between atoms: C_14  and  C_15
REMARK    8  A    between atoms: C_23  and  C_24
REMARK    9  A    between atoms: C_26  and  C_27
REMARK   10  A    between atoms: C_27  and  O_29
REMARK                            x       y       z     vdW  Elec       q    Type
REMARK                         _______ _______ _______ _____ _____    ______ ____
ROOT
ATOM      1  C   UNL     1       2.247   7.363  18.980  0.00  0.00    +0.000 A 
ATOM      2  C   UNL     1       2.290   8.188  17.843  0.00  0.00    +0.000 A 
ATOM      3  C   UNL     1       1.790   9.491  17.875  0.00  0.00    +0.000 A 
ATOM      4  C   UNL     1       1.253  10.002  19.052  0.00  0.00    +0.000 A 
ATOM      5  C   UNL     1       1.184   9.215  20.196  0.00  0.00    +0.000 A 
ATOM      6  C   UNL     1       1.682   7.907  20.150  0.00  0.00    +0.000 A 
ATOM      7  C   UNL     1       0.608   9.753  21.472  0.00  0.00    +0.000 C 
ATOM      8  C   UNL     1      -0.269  10.961  21.181  0.00  0.00    +0.000 C 
ATOM      9  C   UNL     1       0.467  11.907  20.229  0.00  0.00    +0.000 C 
ATOM     10  O   UNL     1       0.775  11.275  18.979  0.00  0.00    +0.000 OA
ENDROOT
BRANCH   1  15
ATOM     11  C   UNL     1       3.102   3.784  19.995  0.00  0.00    +0.000 A 
ATOM     12  C   UNL     1       3.784   3.334  18.860  0.00  0.00    +0.000 A 
ATOM     13  C   UNL     1       3.927   4.175  17.762  0.00  0.00    +0.000 A 
ATOM     14  C   UNL     1       3.408   5.472  17.803  0.00  0.00    +0.000 A 
ATOM     15  C   UNL     1       2.765   5.977  18.945  0.00  0.00    +0.000 A 
ATOM     16  C   UNL     1       2.631   5.102  20.038  0.00  0.00    +0.000 A 
ATOM     17  F   UNL     1       2.063   5.560  21.165  0.00  0.00    +0.000 F 
BRANCH  11  19
ATOM     18  C   UNL     1       1.630   2.550  21.379  0.00  0.00    +0.000 C 
ATOM     19  O   UNL     1       2.973   2.870  21.012  0.00  0.00    +0.000 OA
ENDBRANCH  11  19
BRANCH  13  20
ATOM     20  O   UNL     1       4.491   3.833  16.560  0.00  0.00    +0.000 OA
BRANCH  20  21
ATOM     21  C   UNL     1       5.924   3.914  16.398  0.00  0.00    +0.000 C 
ATOM     22  C   UNL     1       6.457   5.000  15.440  0.00  0.00    +0.000 C 
ATOM     23  C   UNL     1       6.579   5.949  16.652  0.00  0.00    +0.000 C 
ATOM     24  C   UNL     1       6.631   4.688  17.541  0.00  0.00    +0.000 C 
BRANCH  23  25
ATOM     25  O   UNL     1       7.747   6.797  16.640  0.00  0.00    +0.000 OA
ATOM     26  C   UNL     1       7.702   7.943  17.476  0.00  0.00    +0.000 C 
ENDBRANCH  23  25
ENDBRANCH  20  21
ENDBRANCH  13  20
ENDBRANCH   1  15
BRANCH   9  27
ATOM     27  C   UNL     1      -0.355  13.144  19.948  0.00  0.00    +0.000 C 
ATOM     28  C   UNL     1      -0.750  13.518  18.539  0.00  0.00    +0.000 C 
ATOM     29  C   UNL     1       0.264  14.360  19.272  0.00  0.00    +0.000 C 
BRANCH  29  30
ATOM     30  C   UNL     1      -0.091  15.742  19.678  0.00  0.00    +0.000 C 
ATOM     31  O   UNL     1       0.531  16.369  20.513  0.00  0.00    +0.000 OA
BRANCH  30  32
ATOM     32  O   UNL     1      -1.200  16.207  19.051  0.00  0.00    +0.000 OA
ATOM     33  H   UNL     1      -1.542  17.033  19.434  0.00  0.00    +0.000 HD
ENDBRANCH  30  32
ENDBRANCH  29  30
ENDBRANCH   9  27
TORSDOF 8
ENDMDL
