MODEL 1
REMARK VINA RESULT:      -7.4      0.000      0.000
REMARK  Name = 
REMARK  5 active torsions:
REMARK  status: ('A' for Active; 'I' for Inactive)
REMARK    1  A    between atoms: C_1  and  C_2
REMARK    2  A    between atoms: N_5  and  S_6
REMARK    3  A    between atoms: S_6  and  C_9
REMARK    4  A    between atoms: N_15  and  C_16
REMARK    5  A    between atoms: N_19  and  C_20
REMARK                            x       y       z     vdW  Elec       q    Type
REMARK                         _______ _______ _______ _____ _____    ______ ____
ROOT
ATOM      1  C   UNL     1       2.059   7.276  19.793  0.00  0.00    +0.000 A 
ATOM      2  C   UNL     1       2.188   7.981  18.578  0.00  0.00    +0.000 A 
ATOM      3  C   UNL     1       1.699   9.289  18.467  0.00  0.00    +0.000 A 
ATOM      4  C   UNL     1       1.092   9.837  19.580  0.00  0.00    +0.000 A 
ATOM      5  C   UNL     1       0.948   9.125  20.774  0.00  0.00    +0.000 A 
ATOM      6  C   UNL     1       1.412   7.836  20.906  0.00  0.00    +0.000 A 
ATOM      7  N   UNL     1       0.293   9.950  21.693  0.00  0.00    +0.000 N 
ATOM      8  C   UNL     1      -0.081   9.623  23.038  0.00  0.00    +0.000 C 
ATOM      9  C   UNL     1       0.019  11.194  21.080  0.00  0.00    +0.000 A 
ATOM     10  O   UNL     1      -0.540  12.152  21.592  0.00  0.00    +0.000 OA
ATOM     11  N   UNL     1       0.524  11.104  19.766  0.00  0.00    +0.000 N 
ATOM     12  C   UNL     1       0.465  12.142  18.781  0.00  0.00    +0.000 C 
ENDROOT
BRANCH   1  13
ATOM     13  S   UNL     1       2.644   5.602  19.913  0.00  0.00    +0.000 S 
ATOM     14  O   UNL     1       2.507   5.184  21.292  0.00  0.00    +0.000 OA
ATOM     15  O   UNL     1       3.936   5.560  19.262  0.00  0.00    +0.000 OA
BRANCH  13  20
ATOM     16  C   UNL     1       3.795   1.144  18.351  0.00  0.00    +0.000 C 
ATOM     17  C   UNL     1       2.568   2.053  18.262  0.00  0.00    +0.000 C 
ATOM     18  C   UNL     1       2.920   3.319  17.467  0.00  0.00    +0.000 C 
ATOM     19  C   UNL     1       1.839   4.383  17.573  0.00  0.00    +0.000 C 
ATOM     20  N   UNL     1       1.523   4.700  18.986  0.00  0.00    +0.000 NA
ATOM     21  C   UNL     1       0.993   3.488  19.673  0.00  0.00    +0.000 C 
ATOM     22  C   UNL     1       2.024   2.357  19.667  0.00  0.00    +0.000 C 
ENDBRANCH  13  20
ENDBRANCH   1  13
TORSDOF 2
ENDMDL
MODEL 2
REMARK VINA RESULT:      -7.0      1.551      2.031
REMARK  Name = 
REMARK  5 active torsions:
REMARK  status: ('A' for Active; 'I' for Inactive)
REMARK    1  A    between atoms: C_1  and  C_2
REMARK    2  A    between atoms: N_5  and  S_6
REMARK    3  A    between atoms: S_6  and  C_9
REMARK    4  A    between atoms: N_15  and  C_16
REMARK    5  A    between atoms: N_19  and  C_20
REMARK                            x       y       z     vdW  Elec       q    Type
REMARK                         _______ _______ _______ _____ _____    ______ ____
ROOT
ATOM      1  C   UNL     1       2.215   7.817  18.626  0.00  0.00    +0.000 A 
ATOM      2  C   UNL     1       2.104   8.817  17.638  0.00  0.00    +0.000 A 
ATOM      3  C   UNL     1       1.590  10.078  17.967  0.00  0.00    +0.000 A 
ATOM      4  C   UNL     1       1.200  10.283  19.276  0.00  0.00    +0.000 A 
ATOM      5  C   UNL     1       1.291   9.280  20.244  0.00  0.00    +0.000 A 
ATOM      6  C   UNL     1       1.785   8.031  19.945  0.00  0.00    +0.000 A 
ATOM      7  N   UNL     1       0.815   9.800  21.452  0.00  0.00    +0.000 N 
ATOM      8  C   UNL     1       0.706   9.115  22.707  0.00  0.00    +0.000 C 
ATOM      9  C   UNL     1       0.417  11.141  21.250  0.00  0.00    +0.000 A 
ATOM     10  O   UNL     1      -0.045  11.899  22.089  0.00  0.00    +0.000 OA
ATOM     11  N   UNL     1       0.664  11.423  19.889  0.00  0.00    +0.000 N 
ATOM     12  C   UNL     1       0.409  12.675  19.242  0.00  0.00    +0.000 C 
ENDROOT
BRANCH   1  13
ATOM     13  S   UNL     1       2.829   6.206  18.191  0.00  0.00    +0.000 S 
ATOM     14  O   UNL     1       3.930   6.388  17.269  0.00  0.00    +0.000 OA
ATOM     15  O   UNL     1       1.683   5.409  17.811  0.00  0.00    +0.000 OA
BRANCH  13  20
ATOM     16  C   UNL     1       3.655   1.441  18.690  0.00  0.00    +0.000 C 
ATOM     17  C   UNL     1       3.860   2.685  19.556  0.00  0.00    +0.000 C 
ATOM     18  C   UNL     1       2.500   3.322  19.876  0.00  0.00    +0.000 C 
ATOM     19  C   UNL     1       2.643   4.703  20.496  0.00  0.00    +0.000 C 
ATOM     20  N   UNL     1       3.474   5.595  19.653  0.00  0.00    +0.000 NA
ATOM     21  C   UNL     1       4.853   5.040  19.531  0.00  0.00    +0.000 C 
ATOM     22  C   UNL     1       4.834   3.660  18.872  0.00  0.00    +0.000 C 
ENDBRANCH  13  20
ENDBRANCH   1  13
TORSDOF 2
ENDMDL
MODEL 3
REMARK VINA RESULT:      -7.0      2.858      4.102
REMARK  Name = 
REMARK  5 active torsions:
REMARK  status: ('A' for Active; 'I' for Inactive)
REMARK    1  A    between atoms: C_1  and  C_2
REMARK    2  A    between atoms: N_5  and  S_6
REMARK    3  A    between atoms: S_6  and  C_9
REMARK    4  A    between atoms: N_15  and  C_16
REMARK    5  A    between atoms: N_19  and  C_20
REMARK                            x       y       z     vdW  Elec       q    Type
REMARK                         _______ _______ _______ _____ _____    ______ ____
ROOT
ATOM      1  C   UNL     1       3.091   5.835  19.088  0.00  0.00    +0.000 A 
ATOM      2  C   UNL     1       2.496   5.420  20.298  0.00  0.00    +0.000 A 
ATOM      3  C   UNL     1       1.632   6.280  20.989  0.00  0.00    +0.000 A 
ATOM      4  C   UNL     1       1.406   7.528  20.442  0.00  0.00    +0.000 A 
ATOM      5  C   UNL     1       2.017   7.941  19.256  0.00  0.00    +0.000 A 
ATOM      6  C   UNL     1       2.875   7.119  18.562  0.00  0.00    +0.000 A 
ATOM      7  N   UNL     1       1.589   9.243  18.979  0.00  0.00    +0.000 N 
ATOM      8  C   UNL     1       1.979  10.066  17.871  0.00  0.00    +0.000 C 
ATOM      9  C   UNL     1       0.702   9.661  19.997  0.00  0.00    +0.000 A 
ATOM     10  O   UNL     1       0.137  10.741  20.073  0.00  0.00    +0.000 OA
ATOM     11  N   UNL     1       0.601   8.580  20.898  0.00  0.00    +0.000 N 
ATOM     12  C   UNL     1      -0.198   8.563  22.087  0.00  0.00    +0.000 C 
ENDROOT
BRANCH   1  13
ATOM     13  S   UNL     1       4.218   4.754  18.239  0.00  0.00    +0.000 S 
ATOM     14  O   UNL     1       3.560   4.288  17.036  0.00  0.00    +0.000 OA
ATOM     15  O   UNL     1       4.708   3.807  19.217  0.00  0.00    +0.000 OA
BRANCH  13  20
ATOM     16  C   UNL     1       6.506   3.997  14.017  0.00  0.00    +0.000 C 
ATOM     17  C   UNL     1       6.603   5.024  15.146  0.00  0.00    +0.000 C 
ATOM     18  C   UNL     1       7.023   4.323  16.447  0.00  0.00    +0.000 C 
ATOM     19  C   UNL     1       6.873   5.226  17.660  0.00  0.00    +0.000 C 
ATOM     20  N   UNL     1       5.502   5.780  17.762  0.00  0.00    +0.000 NA
ATOM     21  C   UNL     1       5.204   6.622  16.568  0.00  0.00    +0.000 C 
ATOM     22  C   UNL     1       5.281   5.799  15.281  0.00  0.00    +0.000 C 
ENDBRANCH  13  20
ENDBRANCH   1  13
TORSDOF 2
ENDMDL
MODEL 4
REMARK VINA RESULT:      -6.9      2.213      7.267
REMARK  Name = 
REMARK  5 active torsions:
REMARK  status: ('A' for Active; 'I' for Inactive)
REMARK    1  A    between atoms: C_1  and  C_2
REMARK    2  A    between atoms: N_5  and  S_6
REMARK    3  A    between atoms: S_6  and  C_9
REMARK    4  A    between atoms: N_15  and  C_16
REMARK    5  A    between atoms: N_19  and  C_20
REMARK                            x       y       z     vdW  Elec       q    Type
REMARK                         _______ _______ _______ _____ _____    ______ ____
ROOT
ATOM      1  C   UNL     1       1.641   7.759  20.188  0.00  0.00    +0.000 A 
ATOM      2  C   UNL     1       2.239   8.013  18.936  0.00  0.00    +0.000 A 
ATOM      3  C   UNL     1       2.880   6.980  18.239  0.00  0.00    +0.000 A 
ATOM      4  C   UNL     1       2.901   5.732  18.830  0.00  0.00    +0.000 A 
ATOM      5  C   UNL     1       2.327   5.493  20.081  0.00  0.00    +0.000 A 
ATOM      6  C   UNL     1       1.699   6.491  20.790  0.00  0.00    +0.000 A 
ATOM      7  N   UNL     1       2.522   4.144  20.396  0.00  0.00    +0.000 N 
ATOM      8  C   UNL     1       2.115   3.466  21.592  0.00  0.00    +0.000 C 
ATOM      9  C   UNL     1       3.227   3.523  19.339  0.00  0.00    +0.000 A 
ATOM     10  O   UNL     1       3.566   2.352  19.278  0.00  0.00    +0.000 OA
ATOM     11  N   UNL     1       3.453   4.528  18.375  0.00  0.00    +0.000 N 
ATOM     12  C   UNL     1       4.137   4.344  17.129  0.00  0.00    +0.000 C 
ENDROOT
BRANCH   1  13
ATOM     13  S   UNL     1       0.868   9.083  21.086  0.00  0.00    +0.000 S 
ATOM     14  O   UNL     1       1.711   9.398  22.221  0.00  0.00    +0.000 OA
ATOM     15  O   UNL     1      -0.514   8.705  21.286  0.00  0.00    +0.000 OA
BRANCH  13  20
ATOM     16  C   UNL     1      -2.501  12.580  21.322  0.00  0.00    +0.000 C 
ATOM     17  C   UNL     1      -1.248  12.322  20.485  0.00  0.00    +0.000 C 
ATOM     18  C   UNL     1      -1.440  11.050  19.646  0.00  0.00    +0.000 C 
ATOM     19  C   UNL     1      -0.143  10.584  19.004  0.00  0.00    +0.000 C 
ATOM     20  N   UNL     1       0.932  10.412  20.010  0.00  0.00    +0.000 NA
ATOM     21  C   UNL     1       1.230  11.718  20.665  0.00  0.00    +0.000 C 
ATOM     22  C   UNL     1      -0.003  12.265  21.387  0.00  0.00    +0.000 C 
ENDBRANCH  13  20
ENDBRANCH   1  13
TORSDOF 2
ENDMDL
MODEL 5
REMARK VINA RESULT:      -6.9      1.140      1.641
REMARK  Name = 
REMARK  5 active torsions:
REMARK  status: ('A' for Active; 'I' for Inactive)
REMARK    1  A    between atoms: C_1  and  C_2
REMARK    2  A    between atoms: N_5  and  S_6
REMARK    3  A    between atoms: S_6  and  C_9
REMARK    4  A    between atoms: N_15  and  C_16
REMARK    5  A    between atoms: N_19  and  C_20
REMARK                            x       y       z     vdW  Elec       q    Type
REMARK                         _______ _______ _______ _____ _____    ______ ____
ROOT
ATOM      1  C   UNL     1       2.654   7.298  18.746  0.00  0.00    +0.000 A 
ATOM      2  C   UNL     1       2.281   8.001  17.581  0.00  0.00    +0.000 A 
ATOM      3  C   UNL     1       1.425   9.107  17.670  0.00  0.00    +0.000 A 
ATOM      4  C   UNL     1       0.970   9.459  18.925  0.00  0.00    +0.000 A 
ATOM      5  C   UNL     1       1.325   8.744  20.071  0.00  0.00    +0.000 A 
ATOM      6  C   UNL     1       2.157   7.650  20.011  0.00  0.00    +0.000 A 
ATOM      7  N   UNL     1       0.699   9.346  21.168  0.00  0.00    +0.000 N 
ATOM      8  C   UNL     1       0.767   8.932  22.539  0.00  0.00    +0.000 C 
ATOM      9  C   UNL     1      -0.059  10.450  20.715  0.00  0.00    +0.000 A 
ATOM     10  O   UNL     1      -0.731  11.204  21.401  0.00  0.00    +0.000 OA
ATOM     11  N   UNL     1       0.123  10.504  19.316  0.00  0.00    +0.000 N 
ATOM     12  C   UNL     1      -0.465  11.472  18.440  0.00  0.00    +0.000 C 
ENDROOT
BRANCH   1  13
ATOM     13  S   UNL     1       3.706   5.871  18.620  0.00  0.00    +0.000 S 
ATOM     14  O   UNL     1       4.077   5.477  19.964  0.00  0.00    +0.000 OA
ATOM     15  O   UNL     1       4.726   6.186  17.644  0.00  0.00    +0.000 OA
BRANCH  13  20
ATOM     16  C   UNL     1       1.930   2.415  21.542  0.00  0.00    +0.000 C 
ATOM     17  C   UNL     1       1.793   2.774  20.062  0.00  0.00    +0.000 C 
ATOM     18  C   UNL     1       3.158   2.646  19.370  0.00  0.00    +0.000 C 
ATOM     19  C   UNL     1       3.155   3.247  17.974  0.00  0.00    +0.000 C 
ATOM     20  N   UNL     1       2.685   4.652  17.987  0.00  0.00    +0.000 NA
ATOM     21  C   UNL     1       1.278   4.714  18.479  0.00  0.00    +0.000 C 
ATOM     22  C   UNL     1       1.170   4.172  19.905  0.00  0.00    +0.000 C 
ENDBRANCH  13  20
ENDBRANCH   1  13
TORSDOF 2
ENDMDL
MODEL 6
REMARK VINA RESULT:      -6.9      2.203      2.829
REMARK  Name = 
REMARK  5 active torsions:
REMARK  status: ('A' for Active; 'I' for Inactive)
REMARK    1  A    between atoms: C_1  and  C_2
REMARK    2  A    between atoms: N_5  and  S_6
REMARK    3  A    between atoms: S_6  and  C_9
REMARK    4  A    between atoms: N_15  and  C_16
REMARK    5  A    between atoms: N_19  and  C_20
REMARK                            x       y       z     vdW  Elec       q    Type
REMARK                         _______ _______ _______ _____ _____    ______ ____
ROOT
ATOM      1  C   UNL     1       2.312   7.347  18.975  0.00  0.00    +0.000 A 
ATOM      2  C   UNL     1       2.116   8.135  17.821  0.00  0.00    +0.000 A 
ATOM      3  C   UNL     1       1.495   9.387  17.920  0.00  0.00    +0.000 A 
ATOM      4  C   UNL     1       1.088   9.797  19.174  0.00  0.00    +0.000 A 
ATOM      5  C   UNL     1       1.264   9.001  20.309  0.00  0.00    +0.000 A 
ATOM      6  C   UNL     1       1.863   7.765  20.238  0.00  0.00    +0.000 A 
ATOM      7  N   UNL     1       0.743   9.693  21.407  0.00  0.00    +0.000 N 
ATOM      8  C   UNL     1       0.692   9.245  22.768  0.00  0.00    +0.000 C 
ATOM      9  C   UNL     1       0.231  10.935  20.967  0.00  0.00    +0.000 A 
ATOM     10  O   UNL     1      -0.294  11.793  21.659  0.00  0.00    +0.000 OA
ATOM     11  N   UNL     1       0.455  10.981  19.575  0.00  0.00    +0.000 N 
ATOM     12  C   UNL     1       0.094  12.065  18.712  0.00  0.00    +0.000 C 
ENDROOT
BRANCH   1  13
ATOM     13  S   UNL     1       3.062   5.742  18.834  0.00  0.00    +0.000 S 
ATOM     14  O   UNL     1       2.613   5.153  17.590  0.00  0.00    +0.000 OA
ATOM     15  O   UNL     1       2.833   5.060  20.090  0.00  0.00    +0.000 OA
BRANCH  13  20
ATOM     16  C   UNL     1       5.499   4.183  14.927  0.00  0.00    +0.000 C 
ATOM     17  C   UNL     1       5.838   5.001  16.175  0.00  0.00    +0.000 C 
ATOM     18  C   UNL     1       5.650   4.132  17.428  0.00  0.00    +0.000 C 
ATOM     19  C   UNL     1       5.702   4.951  18.707  0.00  0.00    +0.000 C 
ATOM     20  N   UNL     1       4.734   6.073  18.676  0.00  0.00    +0.000 NA
ATOM     21  C   UNL     1       5.071   7.006  17.563  0.00  0.00    +0.000 C 
ATOM     22  C   UNL     1       5.006   6.294  16.210  0.00  0.00    +0.000 C 
ENDBRANCH  13  20
ENDBRANCH   1  13
TORSDOF 2
ENDMDL
MODEL 7
REMARK VINA RESULT:      -6.8      2.142      2.604
REMARK  Name = 
REMARK  5 active torsions:
REMARK  status: ('A' for Active; 'I' for Inactive)
REMARK    1  A    between atoms: C_1  and  C_2
REMARK    2  A    between atoms: N_5  and  S_6
REMARK    3  A    between atoms: S_6  and  C_9
REMARK    4  A    between atoms: N_15  and  C_16
REMARK    5  A    between atoms: N_19  and  C_20
REMARK                            x       y       z     vdW  Elec       q    Type
REMARK                         _______ _______ _______ _____ _____    ______ ____
ROOT
ATOM      1  C   UNL     1       2.323   7.380  18.974  0.00  0.00    +0.000 A 
ATOM      2  C   UNL     1       2.116   8.171  17.824  0.00  0.00    +0.000 A 
ATOM      3  C   UNL     1       1.470   9.410  17.930  0.00  0.00    +0.000 A 
ATOM      4  C   UNL     1       1.049   9.803  19.185  0.00  0.00    +0.000 A 
ATOM      5  C   UNL     1       1.237   9.004  20.315  0.00  0.00    +0.000 A 
ATOM      6  C   UNL     1       1.861   7.780  20.238  0.00  0.00    +0.000 A 
ATOM      7  N   UNL     1       0.699   9.678  21.416  0.00  0.00    +0.000 N 
ATOM      8  C   UNL     1       0.652   9.220  22.774  0.00  0.00    +0.000 C 
ATOM      9  C   UNL     1       0.164  10.913  20.982  0.00  0.00    +0.000 A 
ATOM     10  O   UNL     1      -0.381  11.756  21.678  0.00  0.00    +0.000 OA
ATOM     11  N   UNL     1       0.392  10.972  19.591  0.00  0.00    +0.000 N 
ATOM     12  C   UNL     1       0.012  12.055  18.733  0.00  0.00    +0.000 C 
ENDROOT
BRANCH   1  13
ATOM     13  S   UNL     1       3.105   5.791  18.826  0.00  0.00    +0.000 S 
ATOM     14  O   UNL     1       2.070   4.781  18.904  0.00  0.00    +0.000 OA
ATOM     15  O   UNL     1       4.210   5.778  19.760  0.00  0.00    +0.000 OA
BRANCH  13  20
ATOM     16  C   UNL     1       7.765   4.659  18.024  0.00  0.00    +0.000 C 
ATOM     17  C   UNL     1       6.559   5.014  17.153  0.00  0.00    +0.000 C 
ATOM     18  C   UNL     1       6.102   6.447  17.464  0.00  0.00    +0.000 C 
ATOM     19  C   UNL     1       4.753   6.768  16.841  0.00  0.00    +0.000 C 
ATOM     20  N   UNL     1       3.723   5.776  17.230  0.00  0.00    +0.000 NA
ATOM     21  C   UNL     1       4.107   4.423  16.734  0.00  0.00    +0.000 C 
ATOM     22  C   UNL     1       5.440   3.974  17.336  0.00  0.00    +0.000 C 
ENDBRANCH  13  20
ENDBRANCH   1  13
TORSDOF 2
ENDMDL
MODEL 8
REMARK VINA RESULT:      -6.7      4.778      8.147
REMARK  Name = 
REMARK  5 active torsions:
REMARK  status: ('A' for Active; 'I' for Inactive)
REMARK    1  A    between atoms: C_1  and  C_2
REMARK    2  A    between atoms: N_5  and  S_6
REMARK    3  A    between atoms: S_6  and  C_9
REMARK    4  A    between atoms: N_15  and  C_16
REMARK    5  A    between atoms: N_19  and  C_20
REMARK                            x       y       z     vdW  Elec       q    Type
REMARK                         _______ _______ _______ _____ _____    ______ ____
ROOT
ATOM      1  C   UNL     1       5.497   4.044  16.628  0.00  0.00    +0.000 A 
ATOM      2  C   UNL     1       6.617   4.865  16.879  0.00  0.00    +0.000 A 
ATOM      3  C   UNL     1       7.430   5.288  15.819  0.00  0.00    +0.000 A 
ATOM      4  C   UNL     1       7.093   4.864  14.550  0.00  0.00    +0.000 A 
ATOM      5  C   UNL     1       5.996   4.032  14.312  0.00  0.00    +0.000 A 
ATOM      6  C   UNL     1       5.186   3.596  15.334  0.00  0.00    +0.000 A 
ATOM      7  N   UNL     1       5.932   3.783  12.937  0.00  0.00    +0.000 N 
ATOM      8  C   UNL     1       4.978   2.964  12.248  0.00  0.00    +0.000 C 
ATOM      9  C   UNL     1       6.995   4.460  12.297  0.00  0.00    +0.000 A 
ATOM     10  O   UNL     1       7.242   4.466  11.101  0.00  0.00    +0.000 OA
ATOM     11  N   UNL     1       7.706   5.127  13.318  0.00  0.00    +0.000 N 
ATOM     12  C   UNL     1       8.868   5.942  13.123  0.00  0.00    +0.000 C 
ENDROOT
BRANCH   1  13
ATOM     13  S   UNL     1       4.494   3.476  17.981  0.00  0.00    +0.000 S 
ATOM     14  O   UNL     1       5.268   3.625  19.196  0.00  0.00    +0.000 OA
ATOM     15  O   UNL     1       3.971   2.182  17.602  0.00  0.00    +0.000 OA
BRANCH  13  20
ATOM     16  C   UNL     1       1.026   3.017  21.357  0.00  0.00    +0.000 C 
ATOM     17  C   UNL     1       1.338   4.009  20.236  0.00  0.00    +0.000 C 
ATOM     18  C   UNL     1       1.265   3.295  18.879  0.00  0.00    +0.000 C 
ATOM     19  C   UNL     1       1.828   4.144  17.751  0.00  0.00    +0.000 C 
ATOM     20  N   UNL     1       3.206   4.601  18.048  0.00  0.00    +0.000 NA
ATOM     21  C   UNL     1       3.205   5.461  19.266  0.00  0.00    +0.000 C 
ATOM     22  C   UNL     1       2.696   4.689  20.484  0.00  0.00    +0.000 C 
ENDBRANCH  13  20
ENDBRANCH   1  13
TORSDOF 2
ENDMDL
MODEL 9
REMARK VINA RESULT:      -6.6      4.252      6.870
REMARK  Name = 
REMARK  5 active torsions:
REMARK  status: ('A' for Active; 'I' for Inactive)
REMARK    1  A    between atoms: C_1  and  C_2
REMARK    2  A    between atoms: N_5  and  S_6
REMARK    3  A    between atoms: S_6  and  C_9
REMARK    4  A    between atoms: N_15  and  C_16
REMARK    5  A    between atoms: N_19  and  C_20
REMARK                            x       y       z     vdW  Elec       q    Type
REMARK                         _______ _______ _______ _____ _____    ______ ____
ROOT
ATOM      1  C   UNL     1       4.368   3.509  18.689  0.00  0.00    +0.000 A 
ATOM      2  C   UNL     1       4.886   4.521  19.525  0.00  0.00    +0.000 A 
ATOM      3  C   UNL     1       5.808   5.447  19.021  0.00  0.00    +0.000 A 
ATOM      4  C   UNL     1       6.181   5.317  17.698  0.00  0.00    +0.000 A 
ATOM      5  C   UNL     1       5.682   4.298  16.882  0.00  0.00    +0.000 A 
ATOM      6  C   UNL     1       4.782   3.371  17.354  0.00  0.00    +0.000 A 
ATOM      7  N   UNL     1       6.256   4.439  15.614  0.00  0.00    +0.000 N 
ATOM      8  C   UNL     1       6.045   3.601  14.470  0.00  0.00    +0.000 C 
ATOM      9  C   UNL     1       7.125   5.554  15.625  0.00  0.00    +0.000 A 
ATOM     10  O   UNL     1       7.790   5.969  14.688  0.00  0.00    +0.000 OA
ATOM     11  N   UNL     1       7.065   6.086  16.930  0.00  0.00    +0.000 N 
ATOM     12  C   UNL     1       7.791   7.231  17.394  0.00  0.00    +0.000 C 
ENDROOT
BRANCH   1  13
ATOM     13  S   UNL     1       3.232   2.311  19.347  0.00  0.00    +0.000 S 
ATOM     14  O   UNL     1       3.365   2.322  20.789  0.00  0.00    +0.000 OA
ATOM     15  O   UNL     1       3.435   1.086  18.604  0.00  0.00    +0.000 OA
BRANCH  13  20
ATOM     16  C   UNL     1       2.325   7.050  19.946  0.00  0.00    +0.000 C 
ATOM     17  C   UNL     1       1.542   5.842  19.428  0.00  0.00    +0.000 C 
ATOM     18  C   UNL     1       1.362   4.820  20.561  0.00  0.00    +0.000 C 
ATOM     19  C   UNL     1       0.838   3.486  20.053  0.00  0.00    +0.000 C 
ATOM     20  N   UNL     1       1.688   2.945  18.966  0.00  0.00    +0.000 NA
ATOM     21  C   UNL     1       1.678   3.875  17.801  0.00  0.00    +0.000 C 
ATOM     22  C   UNL     1       2.231   5.248  18.188  0.00  0.00    +0.000 C 
ENDBRANCH  13  20
ENDBRANCH   1  13
TORSDOF 2
ENDMDL
