MODEL 1
REMARK VINA RESULT:      -8.1      0.000      0.000
REMARK  Name = 
REMARK  9 active torsions:
REMARK  status: ('A' for Active; 'I' for Inactive)
REMARK    1  A    between atoms: C_1  and  N_2
REMARK    2  A    between atoms: N_2  and  C_3
REMARK    3  A    between atoms: C_4  and  C_6
REMARK    4  A    between atoms: C_6  and  N_7
REMARK    5  A    between atoms: C_11  and  C_12
REMARK    6  A    between atoms: N_20  and  C_21
REMARK    7  A    between atoms: C_21  and  C_22
REMARK    8  A    between atoms: C_22  and  O_23
REMARK    9  A    between atoms: O_23  and  C_24
REMARK                            x       y       z     vdW  Elec       q    Type
REMARK                         _______ _______ _______ _____ _____    ______ ____
ROOT
ATOM      1  C   UNL     1       3.245   6.637  18.610  0.00  0.00    +0.000 A 
ATOM      2  N   UNL     1       3.236   7.691  17.815  0.00  0.00    +0.000 NA
ATOM      3  C   UNL     1       2.343   8.570  18.346  0.00  0.00    +0.000 A 
ATOM      4  C   UNL     1       1.969   9.835  17.860  0.00  0.00    +0.000 A 
ATOM      5  C   UNL     1       1.021  10.586  18.557  0.00  0.00    +0.000 A 
ATOM      6  C   UNL     1       0.453  10.086  19.720  0.00  0.00    +0.000 A 
ATOM      7  C   UNL     1       0.818   8.831  20.218  0.00  0.00    +0.000 A 
ATOM      8  C   UNL     1       1.776   8.069  19.517  0.00  0.00    +0.000 A 
ATOM      9  N   UNL     1       2.383   6.827  19.686  0.00  0.00    +0.000 N 
ENDROOT
BRANCH   1  14
ATOM     10  N   UNL     1       5.331   4.172  16.502  0.00  0.00    +0.000 NA
ATOM     11  C   UNL     1       6.618   4.491  17.143  0.00  0.00    +0.000 C 
ATOM     12  C   UNL     1       6.462   4.523  18.663  0.00  0.00    +0.000 C 
ATOM     13  C   UNL     1       5.458   5.586  19.095  0.00  0.00    +0.000 C 
ATOM     14  C   UNL     1       4.114   5.416  18.376  0.00  0.00    +0.000 C 
ATOM     15  C   UNL     1       4.320   5.198  16.852  0.00  0.00    +0.000 C 
BRANCH  10  16
ATOM     16  C   UNL     1       5.481   4.146  15.020  0.00  0.00    +0.000 C 
BRANCH  16  20
ATOM     17  C   UNL     1       8.278   5.496  12.744  0.00  0.00    +0.000 C 
ATOM     18  N   UNL     1       7.138   4.724  13.207  0.00  0.00    +0.000 N 
ATOM     19  C   UNL     1       6.607   3.682  12.346  0.00  0.00    +0.000 C 
ATOM     20  C   UNL     1       6.683   4.953  14.502  0.00  0.00    +0.000 C 
ATOM     21  O   UNL     1       7.203   5.814  15.221  0.00  0.00    +0.000 OA
ENDBRANCH  16  20
ENDBRANCH  10  16
ENDBRANCH   1  14
BRANCH   9  22
ATOM     22  C   UNL     1       2.196   5.851  20.755  0.00  0.00    +0.000 C 
BRANCH  22  23
ATOM     23  C   UNL     1       1.016   4.910  20.580  0.00  0.00    +0.000 C 
BRANCH  23  24
ATOM     24  O   UNL     1       1.289   3.568  20.992  0.00  0.00    +0.000 OA
BRANCH  24  25
ATOM     25  C   UNL     1       2.098   2.906  20.090  0.00  0.00    +0.000 A 
ATOM     26  C   UNL     1       3.376   2.410  20.383  0.00  0.00    +0.000 A 
ATOM     27  C   UNL     1       4.143   1.792  19.394  0.00  0.00    +0.000 A 
ATOM     28  C   UNL     1       3.629   1.644  18.110  0.00  0.00    +0.000 A 
ATOM     29  C   UNL     1       2.345   2.102  17.820  0.00  0.00    +0.000 A 
ATOM     30  C   UNL     1       1.577   2.727  18.809  0.00  0.00    +0.000 A 
ENDBRANCH  24  25
ENDBRANCH  23  24
ENDBRANCH  22  23
ENDBRANCH   9  22
TORSDOF 7
ENDMDL
MODEL 2
REMARK VINA RESULT:      -7.9      0.746      1.333
REMARK  Name = 
REMARK  9 active torsions:
REMARK  status: ('A' for Active; 'I' for Inactive)
REMARK    1  A    between atoms: C_1  and  N_2
REMARK    2  A    between atoms: N_2  and  C_3
REMARK    3  A    between atoms: C_4  and  C_6
REMARK    4  A    between atoms: C_6  and  N_7
REMARK    5  A    between atoms: C_11  and  C_12
REMARK    6  A    between atoms: N_20  and  C_21
REMARK    7  A    between atoms: C_21  and  C_22
REMARK    8  A    between atoms: C_22  and  O_23
REMARK    9  A    between atoms: O_23  and  C_24
REMARK                            x       y       z     vdW  Elec       q    Type
REMARK                         _______ _______ _______ _____ _____    ______ ____
ROOT
ATOM      1  C   UNL     1       3.299   6.674  18.569  0.00  0.00    +0.000 A 
ATOM      2  N   UNL     1       3.207   7.765  17.831  0.00  0.00    +0.000 NA
ATOM      3  C   UNL     1       2.265   8.553  18.418  0.00  0.00    +0.000 A 
ATOM      4  C   UNL     1       1.801   9.814  18.005  0.00  0.00    +0.000 A 
ATOM      5  C   UNL     1       0.814  10.461  18.752  0.00  0.00    +0.000 A 
ATOM      6  C   UNL     1       0.298   9.863  19.893  0.00  0.00    +0.000 A 
ATOM      7  C   UNL     1       0.754   8.611  20.319  0.00  0.00    +0.000 A 
ATOM      8  C   UNL     1       1.750   7.954  19.568  0.00  0.00    +0.000 A 
ATOM      9  N   UNL     1       2.441   6.748  19.663  0.00  0.00    +0.000 N 
ENDROOT
BRANCH   1  14
ATOM     10  N   UNL     1       5.983   4.796  16.534  0.00  0.00    +0.000 NA
ATOM     11  C   UNL     1       7.026   4.873  17.571  0.00  0.00    +0.000 C 
ATOM     12  C   UNL     1       6.450   4.493  18.934  0.00  0.00    +0.000 C 
ATOM     13  C   UNL     1       5.326   5.438  19.343  0.00  0.00    +0.000 C 
ATOM     14  C   UNL     1       4.243   5.529  18.261  0.00  0.00    +0.000 C 
ATOM     15  C   UNL     1       4.876   5.729  16.856  0.00  0.00    +0.000 C 
BRANCH  10  16
ATOM     16  C   UNL     1       6.542   5.171  15.205  0.00  0.00    +0.000 C 
BRANCH  16  20
ATOM     17  C   UNL     1       6.551   3.301  11.839  0.00  0.00    +0.000 C 
ATOM     18  N   UNL     1       6.903   4.245  12.886  0.00  0.00    +0.000 N 
ATOM     19  C   UNL     1       7.887   5.271  12.594  0.00  0.00    +0.000 C 
ATOM     20  C   UNL     1       6.194   4.180  14.081  0.00  0.00    +0.000 C 
ATOM     21  O   UNL     1       5.323   3.322  14.266  0.00  0.00    +0.000 OA
ENDBRANCH  16  20
ENDBRANCH  10  16
ENDBRANCH   1  14
BRANCH   9  22
ATOM     22  C   UNL     1       2.335   5.707  20.680  0.00  0.00    +0.000 C 
BRANCH  22  23
ATOM     23  C   UNL     1       1.017   4.952  20.706  0.00  0.00    +0.000 C 
BRANCH  23  24
ATOM     24  O   UNL     1       1.171   3.539  20.857  0.00  0.00    +0.000 OA
BRANCH  24  25
ATOM     25  C   UNL     1       1.941   2.993  19.850  0.00  0.00    +0.000 A 
ATOM     26  C   UNL     1       1.557   2.926  18.504  0.00  0.00    +0.000 A 
ATOM     27  C   UNL     1       2.381   2.314  17.558  0.00  0.00    +0.000 A 
ATOM     28  C   UNL     1       3.609   1.787  17.947  0.00  0.00    +0.000 A 
ATOM     29  C   UNL     1       4.015   1.883  19.278  0.00  0.00    +0.000 A 
ATOM     30  C   UNL     1       3.185   2.490  20.227  0.00  0.00    +0.000 A 
ENDBRANCH  24  25
ENDBRANCH  23  24
ENDBRANCH  22  23
ENDBRANCH   9  22
TORSDOF 7
ENDMDL
MODEL 3
REMARK VINA RESULT:      -7.4      2.707      7.519
REMARK  Name = 
REMARK  9 active torsions:
REMARK  status: ('A' for Active; 'I' for Inactive)
REMARK    1  A    between atoms: C_1  and  N_2
REMARK    2  A    between atoms: N_2  and  C_3
REMARK    3  A    between atoms: C_4  and  C_6
REMARK    4  A    between atoms: C_6  and  N_7
REMARK    5  A    between atoms: C_11  and  C_12
REMARK    6  A    between atoms: N_20  and  C_21
REMARK    7  A    between atoms: C_21  and  C_22
REMARK    8  A    between atoms: C_22  and  O_23
REMARK    9  A    between atoms: O_23  and  C_24
REMARK                            x       y       z     vdW  Elec       q    Type
REMARK                         _______ _______ _______ _____ _____    ______ ____
ROOT
ATOM      1  C   UNL     1       2.451   7.490  18.673  0.00  0.00    +0.000 A 
ATOM      2  N   UNL     1       3.275   7.708  17.664  0.00  0.00    +0.000 NA
ATOM      3  C   UNL     1       4.297   6.819  17.798  0.00  0.00    +0.000 A 
ATOM      4  C   UNL     1       5.428   6.659  16.979  0.00  0.00    +0.000 A 
ATOM      5  C   UNL     1       6.373   5.682  17.296  0.00  0.00    +0.000 A 
ATOM      6  C   UNL     1       6.195   4.874  18.412  0.00  0.00    +0.000 A 
ATOM      7  C   UNL     1       5.071   5.019  19.233  0.00  0.00    +0.000 A 
ATOM      8  C   UNL     1       4.115   6.005  18.916  0.00  0.00    +0.000 A 
ATOM      9  N   UNL     1       2.908   6.438  19.461  0.00  0.00    +0.000 N 
ENDROOT
BRANCH   1  14
ATOM     10  N   UNL     1       0.206  10.121  20.380  0.00  0.00    +0.000 NA
ATOM     11  C   UNL     1       0.078  10.987  19.196  0.00  0.00    +0.000 C 
ATOM     12  C   UNL     1      -0.237  10.152  17.957  0.00  0.00    +0.000 C 
ATOM     13  C   UNL     1       0.872   9.145  17.671  0.00  0.00    +0.000 C 
ATOM     14  C   UNL     1       1.173   8.274  18.897  0.00  0.00    +0.000 C 
ATOM     15  C   UNL     1       1.302   9.142  20.179  0.00  0.00    +0.000 C 
BRANCH  10  16
ATOM     16  C   UNL     1       0.518  10.934  21.589  0.00  0.00    +0.000 C 
BRANCH  16  20
ATOM     17  C   UNL     1      -2.664  12.021  23.464  0.00  0.00    +0.000 C 
ATOM     18  N   UNL     1      -1.595  11.985  22.482  0.00  0.00    +0.000 N 
ATOM     19  C   UNL     1      -1.525  13.043  21.491  0.00  0.00    +0.000 C 
ATOM     20  C   UNL     1      -0.628  10.992  22.613  0.00  0.00    +0.000 C 
ATOM     21  O   UNL     1      -0.698  10.143  23.508  0.00  0.00    +0.000 OA
ENDBRANCH  16  20
ENDBRANCH  10  16
ENDBRANCH   1  14
BRANCH   9  22
ATOM     22  C   UNL     1       2.199   5.939  20.635  0.00  0.00    +0.000 C 
BRANCH  22  23
ATOM     23  C   UNL     1       0.918   5.176  20.348  0.00  0.00    +0.000 C 
BRANCH  23  24
ATOM     24  O   UNL     1       1.030   3.767  20.567  0.00  0.00    +0.000 OA
BRANCH  24  25
ATOM     25  C   UNL     1       1.844   3.163  19.630  0.00  0.00    +0.000 A 
ATOM     26  C   UNL     1       1.712   3.320  18.244  0.00  0.00    +0.000 A 
ATOM     27  C   UNL     1       2.553   2.633  17.366  0.00  0.00    +0.000 A 
ATOM     28  C   UNL     1       3.550   1.803  17.870  0.00  0.00    +0.000 A 
ATOM     29  C   UNL     1       3.712   1.670  19.248  0.00  0.00    +0.000 A 
ATOM     30  C   UNL     1       2.865   2.354  20.128  0.00  0.00    +0.000 A 
ENDBRANCH  24  25
ENDBRANCH  23  24
ENDBRANCH  22  23
ENDBRANCH   9  22
TORSDOF 7
ENDMDL
MODEL 4
REMARK VINA RESULT:      -7.3      2.543      7.378
REMARK  Name = 
REMARK  9 active torsions:
REMARK  status: ('A' for Active; 'I' for Inactive)
REMARK    1  A    between atoms: C_1  and  N_2
REMARK    2  A    between atoms: N_2  and  C_3
REMARK    3  A    between atoms: C_4  and  C_6
REMARK    4  A    between atoms: C_6  and  N_7
REMARK    5  A    between atoms: C_11  and  C_12
REMARK    6  A    between atoms: N_20  and  C_21
REMARK    7  A    between atoms: C_21  and  C_22
REMARK    8  A    between atoms: C_22  and  O_23
REMARK    9  A    between atoms: O_23  and  C_24
REMARK                            x       y       z     vdW  Elec       q    Type
REMARK                         _______ _______ _______ _____ _____    ______ ____
ROOT
ATOM      1  C   UNL     1       3.093   7.054  18.021  0.00  0.00    +0.000 A 
ATOM      2  N   UNL     1       4.250   7.674  17.873  0.00  0.00    +0.000 NA
ATOM      3  C   UNL     1       5.160   6.721  17.532  0.00  0.00    +0.000 A 
ATOM      4  C   UNL     1       6.534   6.877  17.277  0.00  0.00    +0.000 A 
ATOM      5  C   UNL     1       7.302   5.760  16.945  0.00  0.00    +0.000 A 
ATOM      6  C   UNL     1       6.713   4.505  16.867  0.00  0.00    +0.000 A 
ATOM      7  C   UNL     1       5.346   4.336  17.113  0.00  0.00    +0.000 A 
ATOM      8  C   UNL     1       4.566   5.462  17.449  0.00  0.00    +0.000 A 
ATOM      9  N   UNL     1       3.226   5.696  17.749  0.00  0.00    +0.000 N 
ENDROOT
BRANCH   1  14
ATOM     10  N   UNL     1       0.795   9.179  20.275  0.00  0.00    +0.000 NA
ATOM     11  C   UNL     1       0.692  10.313  19.342  0.00  0.00    +0.000 C 
ATOM     12  C   UNL     1       0.411   9.814  17.926  0.00  0.00    +0.000 C 
ATOM     13  C   UNL     1       1.531   8.909  17.424  0.00  0.00    +0.000 C 
ATOM     14  C   UNL     1       1.806   7.759  18.402  0.00  0.00    +0.000 C 
ATOM     15  C   UNL     1       1.901   8.279  19.862  0.00  0.00    +0.000 C 
BRANCH  10  16
ATOM     16  C   UNL     1       1.074   9.664  21.656  0.00  0.00    +0.000 C 
BRANCH  16  20
ATOM     17  C   UNL     1      -1.890  11.522  23.263  0.00  0.00    +0.000 C 
ATOM     18  N   UNL     1      -0.697  11.262  22.476  0.00  0.00    +0.000 N 
ATOM     19  C   UNL     1      -0.034  12.380  21.829  0.00  0.00    +0.000 C 
ATOM     20  C   UNL     1      -0.191   9.966  22.476  0.00  0.00    +0.000 C 
ATOM     21  O   UNL     1      -0.759   9.055  23.089  0.00  0.00    +0.000 OA
ENDBRANCH  16  20
ENDBRANCH  10  16
ENDBRANCH   1  14
BRANCH   9  22
ATOM     22  C   UNL     1       2.117   4.748  17.798  0.00  0.00    +0.000 C 
BRANCH  22  23
ATOM     23  C   UNL     1       2.300   3.488  16.970  0.00  0.00    +0.000 C 
BRANCH  23  24
ATOM     24  O   UNL     1       1.929   2.292  17.660  0.00  0.00    +0.000 OA
BRANCH  24  25
ATOM     25  C   UNL     1       2.043   2.430  19.029  0.00  0.00    +0.000 A 
ATOM     26  C   UNL     1       0.973   2.700  19.892  0.00  0.00    +0.000 A 
ATOM     27  C   UNL     1       1.187   2.870  21.261  0.00  0.00    +0.000 A 
ATOM     28  C   UNL     1       2.472   2.746  21.781  0.00  0.00    +0.000 A 
ATOM     29  C   UNL     1       3.537   2.442  20.934  0.00  0.00    +0.000 A 
ATOM     30  C   UNL     1       3.323   2.278  19.561  0.00  0.00    +0.000 A 
ENDBRANCH  24  25
ENDBRANCH  23  24
ENDBRANCH  22  23
ENDBRANCH   9  22
TORSDOF 7
ENDMDL
MODEL 5
REMARK VINA RESULT:      -7.3      2.916      7.516
REMARK  Name = 
REMARK  9 active torsions:
REMARK  status: ('A' for Active; 'I' for Inactive)
REMARK    1  A    between atoms: C_1  and  N_2
REMARK    2  A    between atoms: N_2  and  C_3
REMARK    3  A    between atoms: C_4  and  C_6
REMARK    4  A    between atoms: C_6  and  N_7
REMARK    5  A    between atoms: C_11  and  C_12
REMARK    6  A    between atoms: N_20  and  C_21
REMARK    7  A    between atoms: C_21  and  C_22
REMARK    8  A    between atoms: C_22  and  O_23
REMARK    9  A    between atoms: O_23  and  C_24
REMARK                            x       y       z     vdW  Elec       q    Type
REMARK                         _______ _______ _______ _____ _____    ______ ____
ROOT
ATOM      1  C   UNL     1       1.763   7.004  20.132  0.00  0.00    +0.000 A 
ATOM      2  N   UNL     1       1.511   5.915  20.835  0.00  0.00    +0.000 NA
ATOM      3  C   UNL     1       1.754   4.857  20.014  0.00  0.00    +0.000 A 
ATOM      4  C   UNL     1       1.622   3.486  20.295  0.00  0.00    +0.000 A 
ATOM      5  C   UNL     1       1.918   2.550  19.302  0.00  0.00    +0.000 A 
ATOM      6  C   UNL     1       2.340   2.972  18.049  0.00  0.00    +0.000 A 
ATOM      7  C   UNL     1       2.481   4.333  17.757  0.00  0.00    +0.000 A 
ATOM      8  C   UNL     1       2.182   5.281  18.757  0.00  0.00    +0.000 A 
ATOM      9  N   UNL     1       2.202   6.671  18.854  0.00  0.00    +0.000 N 
ENDROOT
BRANCH   1  14
ATOM     10  N   UNL     1       0.631  10.690  20.069  0.00  0.00    +0.000 NA
ATOM     11  C   UNL     1      -0.316  10.566  21.190  0.00  0.00    +0.000 C 
ATOM     12  C   UNL     1       0.326   9.804  22.348  0.00  0.00    +0.000 C 
ATOM     13  C   UNL     1       0.728   8.395  21.929  0.00  0.00    +0.000 C 
ATOM     14  C   UNL     1       1.618   8.410  20.680  0.00  0.00    +0.000 C 
ATOM     15  C   UNL     1       1.029   9.345  19.588  0.00  0.00    +0.000 C 
BRANCH  10  16
ATOM     16  C   UNL     1       0.005  11.429  18.937  0.00  0.00    +0.000 C 
BRANCH  16  20
ATOM     17  C   UNL     1       1.310  15.047  18.792  0.00  0.00    +0.000 C 
ATOM     18  N   UNL     1       1.252  13.603  18.652  0.00  0.00    +0.000 N 
ATOM     19  C   UNL     1       2.438  12.900  18.197  0.00  0.00    +0.000 C 
ATOM     20  C   UNL     1       0.091  12.959  19.069  0.00  0.00    +0.000 C 
ATOM     21  O   UNL     1      -0.876  13.595  19.503  0.00  0.00    +0.000 OA
ENDBRANCH  16  20
ENDBRANCH  10  16
ENDBRANCH   1  14
BRANCH   9  22
ATOM     22  C   UNL     1       2.587   7.656  17.848  0.00  0.00    +0.000 C 
BRANCH  22  23
ATOM     23  C   UNL     1       4.071   7.712  17.526  0.00  0.00    +0.000 C 
BRANCH  23  24
ATOM     24  O   UNL     1       4.436   6.942  16.378  0.00  0.00    +0.000 OA
BRANCH  24  25
ATOM     25  C   UNL     1       5.512   6.116  16.632  0.00  0.00    +0.000 A 
ATOM     26  C   UNL     1       5.995   5.143  15.746  0.00  0.00    +0.000 A 
ATOM     27  C   UNL     1       7.063   4.319  16.106  0.00  0.00    +0.000 A 
ATOM     28  C   UNL     1       7.674   4.480  17.345  0.00  0.00    +0.000 A 
ATOM     29  C   UNL     1       7.224   5.470  18.218  0.00  0.00    +0.000 A 
ATOM     30  C   UNL     1       6.149   6.291  17.860  0.00  0.00    +0.000 A 
ENDBRANCH  24  25
ENDBRANCH  23  24
ENDBRANCH  22  23
ENDBRANCH   9  22
TORSDOF 7
ENDMDL
MODEL 6
REMARK VINA RESULT:      -7.2      2.953      7.495
REMARK  Name = 
REMARK  9 active torsions:
REMARK  status: ('A' for Active; 'I' for Inactive)
REMARK    1  A    between atoms: C_1  and  N_2
REMARK    2  A    between atoms: N_2  and  C_3
REMARK    3  A    between atoms: C_4  and  C_6
REMARK    4  A    between atoms: C_6  and  N_7
REMARK    5  A    between atoms: C_11  and  C_12
REMARK    6  A    between atoms: N_20  and  C_21
REMARK    7  A    between atoms: C_21  and  C_22
REMARK    8  A    between atoms: C_22  and  O_23
REMARK    9  A    between atoms: O_23  and  C_24
REMARK                            x       y       z     vdW  Elec       q    Type
REMARK                         _______ _______ _______ _____ _____    ______ ____
ROOT
ATOM      1  C   UNL     1       1.805   6.781  20.019  0.00  0.00    +0.000 A 
ATOM      2  N   UNL     1       1.670   5.717  20.789  0.00  0.00    +0.000 NA
ATOM      3  C   UNL     1       1.791   4.632  19.977  0.00  0.00    +0.000 A 
ATOM      4  C   UNL     1       1.711   3.271  20.320  0.00  0.00    +0.000 A 
ATOM      5  C   UNL     1       1.859   2.302  19.326  0.00  0.00    +0.000 A 
ATOM      6  C   UNL     1       2.082   2.681  18.010  0.00  0.00    +0.000 A 
ATOM      7  C   UNL     1       2.168   4.031  17.654  0.00  0.00    +0.000 A 
ATOM      8  C   UNL     1       2.020   5.013  18.655  0.00  0.00    +0.000 A 
ATOM      9  N   UNL     1       2.046   6.405  18.701  0.00  0.00    +0.000 N 
ENDROOT
BRANCH   1  14
ATOM     10  N   UNL     1       0.780  10.498  19.924  0.00  0.00    +0.000 NA
ATOM     11  C   UNL     1      -0.096  10.433  21.106  0.00  0.00    +0.000 C 
ATOM     12  C   UNL     1       0.597   9.683  22.242  0.00  0.00    +0.000 C 
ATOM     13  C   UNL     1       0.929   8.251  21.838  0.00  0.00    +0.000 C 
ATOM     14  C   UNL     1       1.737   8.205  20.535  0.00  0.00    +0.000 C 
ATOM     15  C   UNL     1       1.107   9.128  19.457  0.00  0.00    +0.000 C 
BRANCH  10  16
ATOM     16  C   UNL     1       0.104  11.225  18.813  0.00  0.00    +0.000 C 
BRANCH  16  20
ATOM     17  C   UNL     1       1.162  14.927  18.817  0.00  0.00    +0.000 C 
ATOM     18  N   UNL     1       1.207  13.487  18.633  0.00  0.00    +0.000 N 
ATOM     19  C   UNL     1       2.451  12.881  18.194  0.00  0.00    +0.000 C 
ATOM     20  C   UNL     1       0.081  12.753  18.993  0.00  0.00    +0.000 C 
ATOM     21  O   UNL     1      -0.939  13.308  19.416  0.00  0.00    +0.000 OA
ENDBRANCH  16  20
ENDBRANCH  10  16
ENDBRANCH   1  14
BRANCH   9  22
ATOM     22  C   UNL     1       2.268   7.356  17.616  0.00  0.00    +0.000 C 
BRANCH  22  23
ATOM     23  C   UNL     1       3.718   7.735  17.367  0.00  0.00    +0.000 C 
BRANCH  23  24
ATOM     24  O   UNL     1       4.512   6.657  16.865  0.00  0.00    +0.000 OA
BRANCH  24  25
ATOM     25  C   UNL     1       5.660   6.471  17.609  0.00  0.00    +0.000 A 
ATOM     26  C   UNL     1       6.845   7.200  17.439  0.00  0.00    +0.000 A 
ATOM     27  C   UNL     1       7.974   6.913  18.208  0.00  0.00    +0.000 A 
ATOM     28  C   UNL     1       7.919   5.910  19.171  0.00  0.00    +0.000 A 
ATOM     29  C   UNL     1       6.732   5.205  19.372  0.00  0.00    +0.000 A 
ATOM     30  C   UNL     1       5.603   5.489  18.597  0.00  0.00    +0.000 A 
ENDBRANCH  24  25
ENDBRANCH  23  24
ENDBRANCH  22  23
ENDBRANCH   9  22
TORSDOF 7
ENDMDL
MODEL 7
REMARK VINA RESULT:      -7.2      2.822      7.376
REMARK  Name = 
REMARK  9 active torsions:
REMARK  status: ('A' for Active; 'I' for Inactive)
REMARK    1  A    between atoms: C_1  and  N_2
REMARK    2  A    between atoms: N_2  and  C_3
REMARK    3  A    between atoms: C_4  and  C_6
REMARK    4  A    between atoms: C_6  and  N_7
REMARK    5  A    between atoms: C_11  and  C_12
REMARK    6  A    between atoms: N_20  and  C_21
REMARK    7  A    between atoms: C_21  and  C_22
REMARK    8  A    between atoms: C_22  and  O_23
REMARK    9  A    between atoms: O_23  and  C_24
REMARK                            x       y       z     vdW  Elec       q    Type
REMARK                         _______ _______ _______ _____ _____    ______ ____
ROOT
ATOM      1  C   UNL     1       1.786   6.683  20.020  0.00  0.00    +0.000 A 
ATOM      2  N   UNL     1       1.438   5.665  20.786  0.00  0.00    +0.000 NA
ATOM      3  C   UNL     1       1.562   4.544  20.023  0.00  0.00    +0.000 A 
ATOM      4  C   UNL     1       1.298   3.211  20.382  0.00  0.00    +0.000 A 
ATOM      5  C   UNL     1       1.486   2.197  19.441  0.00  0.00    +0.000 A 
ATOM      6  C   UNL     1       1.930   2.505  18.162  0.00  0.00    +0.000 A 
ATOM      7  C   UNL     1       2.201   3.827  17.793  0.00  0.00    +0.000 A 
ATOM      8  C   UNL     1       2.013   4.854  18.741  0.00  0.00    +0.000 A 
ATOM      9  N   UNL     1       2.171   6.238  18.759  0.00  0.00    +0.000 N 
ENDROOT
BRANCH   1  14
ATOM     10  N   UNL     1       0.902  10.432  19.832  0.00  0.00    +0.000 NA
ATOM     11  C   UNL     1       0.063  10.440  21.043  0.00  0.00    +0.000 C 
ATOM     12  C   UNL     1       0.763   9.700  22.181  0.00  0.00    +0.000 C 
ATOM     13  C   UNL     1       1.027   8.244  21.816  0.00  0.00    +0.000 C 
ATOM     14  C   UNL     1       1.790   8.124  20.490  0.00  0.00    +0.000 C 
ATOM     15  C   UNL     1       1.160   9.036  19.401  0.00  0.00    +0.000 C 
BRANCH  10  16
ATOM     16  C   UNL     1       0.217  11.149  18.720  0.00  0.00    +0.000 C 
BRANCH  16  20
ATOM     17  C   UNL     1       1.040  14.907  18.864  0.00  0.00    +0.000 C 
ATOM     18  N   UNL     1       1.182  13.479  18.642  0.00  0.00    +0.000 N 
ATOM     19  C   UNL     1       2.476  12.964  18.231  0.00  0.00    +0.000 C 
ATOM     20  C   UNL     1       0.093  12.665  18.941  0.00  0.00    +0.000 C 
ATOM     21  O   UNL     1      -0.974  13.143  19.342  0.00  0.00    +0.000 OA
ENDBRANCH  16  20
ENDBRANCH  10  16
ENDBRANCH   1  14
BRANCH   9  22
ATOM     22  C   UNL     1       2.639   7.123  17.697  0.00  0.00    +0.000 C 
BRANCH  22  23
ATOM     23  C   UNL     1       4.131   7.411  17.698  0.00  0.00    +0.000 C 
BRANCH  23  24
ATOM     24  O   UNL     1       4.934   6.267  17.999  0.00  0.00    +0.000 OA
BRANCH  24  25
ATOM     25  C   UNL     1       5.297   5.577  16.860  0.00  0.00    +0.000 A 
ATOM     26  C   UNL     1       5.354   6.137  15.576  0.00  0.00    +0.000 A 
ATOM     27  C   UNL     1       5.689   5.352  14.472  0.00  0.00    +0.000 A 
ATOM     28  C   UNL     1       5.993   4.005  14.646  0.00  0.00    +0.000 A 
ATOM     29  C   UNL     1       5.975   3.450  15.925  0.00  0.00    +0.000 A 
ATOM     30  C   UNL     1       5.633   4.235  17.031  0.00  0.00    +0.000 A 
ENDBRANCH  24  25
ENDBRANCH  23  24
ENDBRANCH  22  23
ENDBRANCH   9  22
TORSDOF 7
ENDMDL
MODEL 8
REMARK VINA RESULT:      -7.2      2.877      7.537
REMARK  Name = 
REMARK  9 active torsions:
REMARK  status: ('A' for Active; 'I' for Inactive)
REMARK    1  A    between atoms: C_1  and  N_2
REMARK    2  A    between atoms: N_2  and  C_3
REMARK    3  A    between atoms: C_4  and  C_6
REMARK    4  A    between atoms: C_6  and  N_7
REMARK    5  A    between atoms: C_11  and  C_12
REMARK    6  A    between atoms: N_20  and  C_21
REMARK    7  A    between atoms: C_21  and  C_22
REMARK    8  A    between atoms: C_22  and  O_23
REMARK    9  A    between atoms: O_23  and  C_24
REMARK                            x       y       z     vdW  Elec       q    Type
REMARK                         _______ _______ _______ _____ _____    ______ ____
ROOT
ATOM      1  C   UNL     1       1.695   6.971  20.210  0.00  0.00    +0.000 A 
ATOM      2  N   UNL     1       1.440   5.875  20.900  0.00  0.00    +0.000 NA
ATOM      3  C   UNL     1       1.663   4.826  20.062  0.00  0.00    +0.000 A 
ATOM      4  C   UNL     1       1.520   3.452  20.324  0.00  0.00    +0.000 A 
ATOM      5  C   UNL     1       1.797   2.528  19.315  0.00  0.00    +0.000 A 
ATOM      6  C   UNL     1       2.209   2.964  18.063  0.00  0.00    +0.000 A 
ATOM      7  C   UNL     1       2.360   4.327  17.789  0.00  0.00    +0.000 A 
ATOM      8  C   UNL     1       2.082   5.264  18.806  0.00  0.00    +0.000 A 
ATOM      9  N   UNL     1       2.116   6.652  18.922  0.00  0.00    +0.000 N 
ENDROOT
BRANCH   1  14
ATOM     10  N   UNL     1       0.733  10.705  20.151  0.00  0.00    +0.000 NA
ATOM     11  C   UNL     1      -0.302  10.601  21.194  0.00  0.00    +0.000 C 
ATOM     12  C   UNL     1       0.215   9.787  22.378  0.00  0.00    +0.000 C 
ATOM     13  C   UNL     1       0.586   8.369  21.957  0.00  0.00    +0.000 C 
ATOM     14  C   UNL     1       1.569   8.370  20.779  0.00  0.00    +0.000 C 
ATOM     15  C   UNL     1       1.107   9.353  19.669  0.00  0.00    +0.000 C 
BRANCH  10  16
ATOM     16  C   UNL     1       0.227  11.495  18.993  0.00  0.00    +0.000 C 
BRANCH  16  20
ATOM     17  C   UNL     1       1.314  15.185  18.832  0.00  0.00    +0.000 C 
ATOM     18  N   UNL     1       0.530  13.997  19.118  0.00  0.00    +0.000 N 
ATOM     19  C   UNL     1      -0.786  14.158  19.710  0.00  0.00    +0.000 C 
ATOM     20  C   UNL     1       1.040  12.769  18.708  0.00  0.00    +0.000 C 
ATOM     21  O   UNL     1       2.143  12.685  18.156  0.00  0.00    +0.000 OA
ENDBRANCH  16  20
ENDBRANCH  10  16
ENDBRANCH   1  14
BRANCH   9  22
ATOM     22  C   UNL     1       2.500   7.648  17.927  0.00  0.00    +0.000 C 
BRANCH  22  23
ATOM     23  C   UNL     1       3.988   7.731  17.629  0.00  0.00    +0.000 C 
BRANCH  23  24
ATOM     24  O   UNL     1       4.389   6.952  16.499  0.00  0.00    +0.000 OA
BRANCH  24  25
ATOM     25  C   UNL     1       5.468   6.142  16.789  0.00  0.00    +0.000 A 
ATOM     26  C   UNL     1       6.266   6.260  17.935  0.00  0.00    +0.000 A 
ATOM     27  C   UNL     1       7.368   5.425  18.125  0.00  0.00    +0.000 A 
ATOM     28  C   UNL     1       7.666   4.447  17.182  0.00  0.00    +0.000 A 
ATOM     29  C   UNL     1       6.856   4.298  16.057  0.00  0.00    +0.000 A 
ATOM     30  C   UNL     1       5.755   5.139  15.863  0.00  0.00    +0.000 A 
ENDBRANCH  24  25
ENDBRANCH  23  24
ENDBRANCH  22  23
ENDBRANCH   9  22
TORSDOF 7
ENDMDL
MODEL 9
REMARK VINA RESULT:      -7.1      2.600      7.678
REMARK  Name = 
REMARK  9 active torsions:
REMARK  status: ('A' for Active; 'I' for Inactive)
REMARK    1  A    between atoms: C_1  and  N_2
REMARK    2  A    between atoms: N_2  and  C_3
REMARK    3  A    between atoms: C_4  and  C_6
REMARK    4  A    between atoms: C_6  and  N_7
REMARK    5  A    between atoms: C_11  and  C_12
REMARK    6  A    between atoms: N_20  and  C_21
REMARK    7  A    between atoms: C_21  and  C_22
REMARK    8  A    between atoms: C_22  and  O_23
REMARK    9  A    between atoms: O_23  and  C_24
REMARK                            x       y       z     vdW  Elec       q    Type
REMARK                         _______ _______ _______ _____ _____    ______ ____
ROOT
ATOM      1  C   UNL     1       2.474   6.101  19.414  0.00  0.00    +0.000 A 
ATOM      2  N   UNL     1       1.681   5.127  19.819  0.00  0.00    +0.000 NA
ATOM      3  C   UNL     1       2.157   3.980  19.263  0.00  0.00    +0.000 A 
ATOM      4  C   UNL     1       1.651   2.674  19.385  0.00  0.00    +0.000 A 
ATOM      5  C   UNL     1       2.290   1.625  18.722  0.00  0.00    +0.000 A 
ATOM      6  C   UNL     1       3.417   1.871  17.949  0.00  0.00    +0.000 A 
ATOM      7  C   UNL     1       3.935   3.164  17.823  0.00  0.00    +0.000 A 
ATOM      8  C   UNL     1       3.292   4.227  18.491  0.00  0.00    +0.000 A 
ATOM      9  N   UNL     1       3.496   5.600  18.613  0.00  0.00    +0.000 N 
ENDROOT
BRANCH   1  14
ATOM     10  N   UNL     1       1.046   9.669  19.094  0.00  0.00    +0.000 NA
ATOM     11  C   UNL     1       0.278   9.627  20.350  0.00  0.00    +0.000 C 
ATOM     12  C   UNL     1       1.136   9.061  21.480  0.00  0.00    +0.000 C 
ATOM     13  C   UNL     1       1.590   7.638  21.172  0.00  0.00    +0.000 C 
ATOM     14  C   UNL     1       2.292   7.553  19.811  0.00  0.00    +0.000 C 
ATOM     15  C   UNL     1       1.482   8.302  18.718  0.00  0.00    +0.000 C 
BRANCH  10  16
ATOM     16  C   UNL     1       0.209  10.216  17.989  0.00  0.00    +0.000 C 
BRANCH  16  20
ATOM     17  C   UNL     1      -3.134  11.946  18.803  0.00  0.00    +0.000 C 
ATOM     18  N   UNL     1      -2.178  10.943  18.365  0.00  0.00    +0.000 N 
ATOM     19  C   UNL     1      -2.678   9.721  17.762  0.00  0.00    +0.000 C 
ATOM     20  C   UNL     1      -0.825  11.258  18.451  0.00  0.00    +0.000 C 
ATOM     21  O   UNL     1      -0.445  12.336  18.921  0.00  0.00    +0.000 OA
ENDBRANCH  16  20
ENDBRANCH  10  16
ENDBRANCH   1  14
BRANCH   9  22
ATOM     22  C   UNL     1       4.551   6.426  18.035  0.00  0.00    +0.000 C 
BRANCH  22  23
ATOM     23  C   UNL     1       4.855   6.166  16.570  0.00  0.00    +0.000 C 
BRANCH  23  24
ATOM     24  O   UNL     1       6.149   5.600  16.346  0.00  0.00    +0.000 OA
BRANCH  24  25
ATOM     25  C   UNL     1       6.260   5.050  15.084  0.00  0.00    +0.000 A 
ATOM     26  C   UNL     1       5.337   4.159  14.521  0.00  0.00    +0.000 A 
ATOM     27  C   UNL     1       5.553   3.616  13.254  0.00  0.00    +0.000 A 
ATOM     28  C   UNL     1       6.683   3.980  12.528  0.00  0.00    +0.000 A 
ATOM     29  C   UNL     1       7.588   4.895  13.066  0.00  0.00    +0.000 A 
ATOM     30  C   UNL     1       7.374   5.434  14.339  0.00  0.00    +0.000 A 
ENDBRANCH  24  25
ENDBRANCH  23  24
ENDBRANCH  22  23
ENDBRANCH   9  22
TORSDOF 7
ENDMDL
