MODEL 1
REMARK VINA RESULT:      -7.2      0.000      0.000
REMARK  Name = 
REMARK  2 active torsions:
REMARK  status: ('A' for Active; 'I' for Inactive)
REMARK    1  A    between atoms: C_1  and  C_12
REMARK    2  A    between atoms: C_2  and  C_3
REMARK                            x       y       z     vdW  Elec       q    Type
REMARK                         _______ _______ _______ _____ _____    ______ ____
ROOT
ATOM      1  C   UNL     1       5.768   4.738  15.735  0.00  0.00    +0.000 A 
ATOM      2  N   UNL     1       6.739   5.522  16.211  0.00  0.00    +0.000 NA
ATOM      3  N   UNL     1       7.576   5.645  15.164  0.00  0.00    +0.000 N 
ATOM      4  C   UNL     1       7.175   4.970  14.039  0.00  0.00    +0.000 A 
ATOM      5  C   UNL     1       7.750   4.846  12.770  0.00  0.00    +0.000 A 
ATOM      6  C   UNL     1       7.063   4.063  11.835  0.00  0.00    +0.000 A 
ATOM      7  C   UNL     1       5.858   3.437  12.159  0.00  0.00    +0.000 A 
ATOM      8  C   UNL     1       5.301   3.575  13.435  0.00  0.00    +0.000 A 
ATOM      9  C   UNL     1       5.976   4.357  14.390  0.00  0.00    +0.000 A 
ATOM     10  H   UNL     1       8.411   6.208  15.280  0.00  0.00    +0.000 HD
ENDROOT
BRANCH   1  12
ATOM     11  C   UNL     1       3.784   4.098  17.331  0.00  0.00    +0.000 C 
ATOM     12  C   UNL     1       4.683   4.388  16.590  0.00  0.00    +0.000 C 
BRANCH  11  13
ATOM     13  C   UNL     1       2.712   3.755  18.213  0.00  0.00    +0.000 A 
ATOM     14  C   UNL     1       1.903   2.586  18.110  0.00  0.00    +0.000 A 
ATOM     15  C   UNL     1       0.950   2.527  19.104  0.00  0.00    +0.000 A 
ATOM     16  S   UNL     1       1.033   3.877  20.154  0.00  0.00    +0.000 S 
ATOM     17  C   UNL     1       2.346   4.545  19.280  0.00  0.00    +0.000 A 
ENDBRANCH  11  13
ENDBRANCH   1  12
TORSDOF 2
ENDMDL
MODEL 2
REMARK VINA RESULT:      -7.1      0.615      1.019
REMARK  Name = 
REMARK  2 active torsions:
REMARK  status: ('A' for Active; 'I' for Inactive)
REMARK    1  A    between atoms: C_1  and  C_12
REMARK    2  A    between atoms: C_2  and  C_3
REMARK                            x       y       z     vdW  Elec       q    Type
REMARK                         _______ _______ _______ _____ _____    ______ ____
ROOT
ATOM      1  C   UNL     1       5.773   4.740  15.726  0.00  0.00    +0.000 A 
ATOM      2  N   UNL     1       6.713   5.544  16.231  0.00  0.00    +0.000 NA
ATOM      3  N   UNL     1       7.573   5.691  15.206  0.00  0.00    +0.000 N 
ATOM      4  C   UNL     1       7.217   5.013  14.068  0.00  0.00    +0.000 A 
ATOM      5  C   UNL     1       7.827   4.908  12.813  0.00  0.00    +0.000 A 
ATOM      6  C   UNL     1       7.182   4.115  11.858  0.00  0.00    +0.000 A 
ATOM      7  C   UNL     1       5.985   3.459  12.148  0.00  0.00    +0.000 A 
ATOM      8  C   UNL     1       5.392   3.577  13.410  0.00  0.00    +0.000 A 
ATOM      9  C   UNL     1       6.024   4.370  14.386  0.00  0.00    +0.000 A 
ATOM     10  H   UNL     1       8.392   6.273  15.346  0.00  0.00    +0.000 HD
ENDROOT
BRANCH   1  12
ATOM     11  C   UNL     1       3.766   4.042  17.268  0.00  0.00    +0.000 C 
ATOM     12  C   UNL     1       4.675   4.361  16.551  0.00  0.00    +0.000 C 
BRANCH  11  13
ATOM     13  C   UNL     1       2.682   3.666  18.120  0.00  0.00    +0.000 A 
ATOM     14  C   UNL     1       2.085   4.499  19.111  0.00  0.00    +0.000 A 
ATOM     15  C   UNL     1       1.059   3.861  19.775  0.00  0.00    +0.000 A 
ATOM     16  S   UNL     1       0.819   2.265  19.203  0.00  0.00    +0.000 S 
ATOM     17  C   UNL     1       2.089   2.423  18.065  0.00  0.00    +0.000 A 
ENDBRANCH  11  13
ENDBRANCH   1  12
TORSDOF 2
ENDMDL
MODEL 3
REMARK VINA RESULT:      -6.9      3.003      6.815
REMARK  Name = 
REMARK  2 active torsions:
REMARK  status: ('A' for Active; 'I' for Inactive)
REMARK    1  A    between atoms: C_1  and  C_12
REMARK    2  A    between atoms: C_2  and  C_3
REMARK                            x       y       z     vdW  Elec       q    Type
REMARK                         _______ _______ _______ _____ _____    ______ ____
ROOT
ATOM      1  C   UNL     1       3.955   4.765  18.043  0.00  0.00    +0.000 A 
ATOM      2  N   UNL     1       4.408   5.665  18.921  0.00  0.00    +0.000 NA
ATOM      3  N   UNL     1       3.567   5.527  19.963  0.00  0.00    +0.000 N 
ATOM      4  C   UNL     1       2.597   4.575  19.784  0.00  0.00    +0.000 A 
ATOM      5  C   UNL     1       1.555   4.136  20.608  0.00  0.00    +0.000 A 
ATOM      6  C   UNL     1       0.730   3.124  20.104  0.00  0.00    +0.000 A 
ATOM      7  C   UNL     1       0.940   2.581  18.836  0.00  0.00    +0.000 A 
ATOM      8  C   UNL     1       1.989   3.035  18.028  0.00  0.00    +0.000 A 
ATOM      9  C   UNL     1       2.831   4.051  18.515  0.00  0.00    +0.000 A 
ATOM     10  H   UNL     1       3.709   6.118  20.775  0.00  0.00    +0.000 HD
ENDROOT
BRANCH   1  12
ATOM     11  C   UNL     1       5.204   4.520  15.747  0.00  0.00    +0.000 C 
ATOM     12  C   UNL     1       4.620   4.628  16.791  0.00  0.00    +0.000 C 
BRANCH  11  13
ATOM     13  C   UNL     1       5.898   4.388  14.504  0.00  0.00    +0.000 A 
ATOM     14  C   UNL     1       5.486   3.568  13.414  0.00  0.00    +0.000 A 
ATOM     15  C   UNL     1       6.357   3.648  12.348  0.00  0.00    +0.000 A 
ATOM     16  S   UNL     1       7.665   4.706  12.666  0.00  0.00    +0.000 S 
ATOM     17  C   UNL     1       7.069   5.061  14.232  0.00  0.00    +0.000 A 
ENDBRANCH  11  13
ENDBRANCH   1  12
TORSDOF 2
ENDMDL
MODEL 4
REMARK VINA RESULT:      -6.8      5.178      7.090
REMARK  Name = 
REMARK  2 active torsions:
REMARK  status: ('A' for Active; 'I' for Inactive)
REMARK    1  A    between atoms: C_1  and  C_12
REMARK    2  A    between atoms: C_2  and  C_3
REMARK                            x       y       z     vdW  Elec       q    Type
REMARK                         _______ _______ _______ _____ _____    ______ ____
ROOT
ATOM      1  C   UNL     1       6.924   6.479  16.982  0.00  0.00    +0.000 A 
ATOM      2  N   UNL     1       7.599   5.733  16.102  0.00  0.00    +0.000 NA
ATOM      3  N   UNL     1       6.759   4.708  15.862  0.00  0.00    +0.000 N 
ATOM      4  C   UNL     1       5.577   4.772  16.553  0.00  0.00    +0.000 A 
ATOM      5  C   UNL     1       4.464   3.925  16.583  0.00  0.00    +0.000 A 
ATOM      6  C   UNL     1       3.404   4.296  17.418  0.00  0.00    +0.000 A 
ATOM      7  C   UNL     1       3.459   5.461  18.185  0.00  0.00    +0.000 A 
ATOM      8  C   UNL     1       4.582   6.295  18.140  0.00  0.00    +0.000 A 
ATOM      9  C   UNL     1       5.659   5.940  17.307  0.00  0.00    +0.000 A 
ATOM     10  H   UNL     1       7.053   3.989  15.210  0.00  0.00    +0.000 HD
ENDROOT
BRANCH   1  12
ATOM     11  C   UNL     1       8.018   8.697  17.864  0.00  0.00    +0.000 C 
ATOM     12  C   UNL     1       7.522   7.675  17.472  0.00  0.00    +0.000 C 
BRANCH  11  13
ATOM     13  C   UNL     1       8.605   9.912  18.332  0.00  0.00    +0.000 A 
ATOM     14  C   UNL     1       9.412  10.041  19.500  0.00  0.00    +0.000 A 
ATOM     15  C   UNL     1       9.838  11.337  19.696  0.00  0.00    +0.000 A 
ATOM     16  S   UNL     1       9.265  12.392  18.475  0.00  0.00    +0.000 S 
ATOM     17  C   UNL     1       8.444  11.116  17.681  0.00  0.00    +0.000 A 
ENDBRANCH  11  13
ENDBRANCH   1  12
TORSDOF 2
ENDMDL
MODEL 5
REMARK VINA RESULT:      -6.8      5.153      7.100
REMARK  Name = 
REMARK  2 active torsions:
REMARK  status: ('A' for Active; 'I' for Inactive)
REMARK    1  A    between atoms: C_1  and  C_12
REMARK    2  A    between atoms: C_2  and  C_3
REMARK                            x       y       z     vdW  Elec       q    Type
REMARK                         _______ _______ _______ _____ _____    ______ ____
ROOT
ATOM      1  C   UNL     1       6.921   6.500  16.997  0.00  0.00    +0.000 A 
ATOM      2  N   UNL     1       7.605   5.742  16.136  0.00  0.00    +0.000 NA
ATOM      3  N   UNL     1       6.765   4.718  15.894  0.00  0.00    +0.000 N 
ATOM      4  C   UNL     1       5.572   4.795  16.566  0.00  0.00    +0.000 A 
ATOM      5  C   UNL     1       4.455   3.953  16.588  0.00  0.00    +0.000 A 
ATOM      6  C   UNL     1       3.385   4.338  17.402  0.00  0.00    +0.000 A 
ATOM      7  C   UNL     1       3.433   5.511  18.157  0.00  0.00    +0.000 A 
ATOM      8  C   UNL     1       4.560   6.340  18.121  0.00  0.00    +0.000 A 
ATOM      9  C   UNL     1       5.648   5.971  17.308  0.00  0.00    +0.000 A 
ATOM     10  H   UNL     1       7.066   3.991  15.255  0.00  0.00    +0.000 HD
ENDROOT
BRANCH   1  12
ATOM     11  C   UNL     1       8.018   8.721  17.869  0.00  0.00    +0.000 C 
ATOM     12  C   UNL     1       7.516   7.699  17.484  0.00  0.00    +0.000 C 
BRANCH  11  13
ATOM     13  C   UNL     1       8.612   9.936  18.330  0.00  0.00    +0.000 A 
ATOM     14  C   UNL     1       8.505  11.202  17.682  0.00  0.00    +0.000 A 
ATOM     15  C   UNL     1       9.184  12.190  18.363  0.00  0.00    +0.000 A 
ATOM     16  S   UNL     1       9.945  11.591  19.775  0.00  0.00    +0.000 S 
ATOM     17  C   UNL     1       9.368  10.005  19.479  0.00  0.00    +0.000 A 
ENDBRANCH  11  13
ENDBRANCH   1  12
TORSDOF 2
ENDMDL
MODEL 6
REMARK VINA RESULT:      -6.7      7.736      8.961
REMARK  Name = 
REMARK  2 active torsions:
REMARK  status: ('A' for Active; 'I' for Inactive)
REMARK    1  A    between atoms: C_1  and  C_12
REMARK    2  A    between atoms: C_2  and  C_3
REMARK                            x       y       z     vdW  Elec       q    Type
REMARK                         _______ _______ _______ _____ _____    ______ ____
ROOT
ATOM      1  C   UNL     1       9.016  11.294  18.039  0.00  0.00    +0.000 A 
ATOM      2  N   UNL     1       8.263  12.222  17.441  0.00  0.00    +0.000 NA
ATOM      3  N   UNL     1       8.956  13.358  17.646  0.00  0.00    +0.000 N 
ATOM      4  C   UNL     1      10.120  13.190  18.350  0.00  0.00    +0.000 A 
ATOM      5  C   UNL     1      11.102  14.097  18.762  0.00  0.00    +0.000 A 
ATOM      6  C   UNL     1      12.185  13.579  19.481  0.00  0.00    +0.000 A 
ATOM      7  C   UNL     1      12.277  12.217  19.772  0.00  0.00    +0.000 A 
ATOM      8  C   UNL     1      11.283  11.327  19.350  0.00  0.00    +0.000 A 
ATOM      9  C   UNL     1      10.186  11.827  18.626  0.00  0.00    +0.000 A 
ATOM     10  H   UNL     1       8.578  14.224  17.276  0.00  0.00    +0.000 HD
ENDROOT
BRANCH   1  12
ATOM     11  C   UNL     1       8.207   8.797  17.983  0.00  0.00    +0.000 C 
ATOM     12  C   UNL     1       8.581   9.938  18.023  0.00  0.00    +0.000 C 
BRANCH  11  13
ATOM     13  C   UNL     1       7.765   7.438  17.936  0.00  0.00    +0.000 A 
ATOM     14  C   UNL     1       8.042   6.448  18.923  0.00  0.00    +0.000 A 
ATOM     15  C   UNL     1       7.482   5.229  18.605  0.00  0.00    +0.000 A 
ATOM     16  S   UNL     1       6.628   5.283  17.122  0.00  0.00    +0.000 S 
ATOM     17  C   UNL     1       7.006   6.939  16.901  0.00  0.00    +0.000 A 
ENDBRANCH  11  13
ENDBRANCH   1  12
TORSDOF 2
ENDMDL
MODEL 7
REMARK VINA RESULT:      -6.7      2.944      6.885
REMARK  Name = 
REMARK  2 active torsions:
REMARK  status: ('A' for Active; 'I' for Inactive)
REMARK    1  A    between atoms: C_1  and  C_12
REMARK    2  A    between atoms: C_2  and  C_3
REMARK                            x       y       z     vdW  Elec       q    Type
REMARK                         _______ _______ _______ _____ _____    ______ ____
ROOT
ATOM      1  C   UNL     1       3.888   4.862  18.028  0.00  0.00    +0.000 A 
ATOM      2  N   UNL     1       4.280   5.819  18.874  0.00  0.00    +0.000 NA
ATOM      3  N   UNL     1       3.418   5.693  19.901  0.00  0.00    +0.000 N 
ATOM      4  C   UNL     1       2.493   4.693  19.742  0.00  0.00    +0.000 A 
ATOM      5  C   UNL     1       1.448   4.248  20.559  0.00  0.00    +0.000 A 
ATOM      6  C   UNL     1       0.679   3.181  20.083  0.00  0.00    +0.000 A 
ATOM      7  C   UNL     1       0.945   2.591  18.846  0.00  0.00    +0.000 A 
ATOM      8  C   UNL     1       1.995   3.051  18.044  0.00  0.00    +0.000 A 
ATOM      9  C   UNL     1       2.781   4.123  18.505  0.00  0.00    +0.000 A 
ATOM     10  H   UNL     1       3.513   6.325  20.688  0.00  0.00    +0.000 HD
ENDROOT
BRANCH   1  12
ATOM     11  C   UNL     1       5.194   4.582  15.768  0.00  0.00    +0.000 C 
ATOM     12  C   UNL     1       4.591   4.697  16.801  0.00  0.00    +0.000 C 
BRANCH  11  13
ATOM     13  C   UNL     1       5.914   4.443  14.541  0.00  0.00    +0.000 A 
ATOM     14  C   UNL     1       7.143   5.093  14.229  0.00  0.00    +0.000 A 
ATOM     15  C   UNL     1       7.599   4.763  12.970  0.00  0.00    +0.000 A 
ATOM     16  S   UNL     1       6.546   3.675  12.172  0.00  0.00    +0.000 S 
ATOM     17  C   UNL     1       5.476   3.642  13.509  0.00  0.00    +0.000 A 
ENDBRANCH  11  13
ENDBRANCH   1  12
TORSDOF 2
ENDMDL
MODEL 8
REMARK VINA RESULT:      -6.6      5.646      7.188
REMARK  Name = 
REMARK  2 active torsions:
REMARK  status: ('A' for Active; 'I' for Inactive)
REMARK    1  A    between atoms: C_1  and  C_12
REMARK    2  A    between atoms: C_2  and  C_3
REMARK                            x       y       z     vdW  Elec       q    Type
REMARK                         _______ _______ _______ _____ _____    ______ ____
ROOT
ATOM      1  C   UNL     1       7.664   6.465  18.199  0.00  0.00    +0.000 A 
ATOM      2  N   UNL     1       8.054   5.459  18.987  0.00  0.00    +0.000 NA
ATOM      3  N   UNL     1       7.401   4.399  18.476  0.00  0.00    +0.000 N 
ATOM      4  C   UNL     1       6.611   4.690  17.394  0.00  0.00    +0.000 A 
ATOM      5  C   UNL     1       5.789   3.888  16.594  0.00  0.00    +0.000 A 
ATOM      6  C   UNL     1       5.106   4.521  15.549  0.00  0.00    +0.000 A 
ATOM      7  C   UNL     1       5.243   5.891  15.319  0.00  0.00    +0.000 A 
ATOM      8  C   UNL     1       6.071   6.674  16.131  0.00  0.00    +0.000 A 
ATOM      9  C   UNL     1       6.766   6.058  17.187  0.00  0.00    +0.000 A 
ATOM     10  H   UNL     1       7.537   3.494  18.914  0.00  0.00    +0.000 HD
ENDROOT
BRANCH   1  12
ATOM     11  C   UNL     1       8.574   8.886  18.651  0.00  0.00    +0.000 C 
ATOM     12  C   UNL     1       8.170   7.773  18.450  0.00  0.00    +0.000 C 
BRANCH  11  13
ATOM     13  C   UNL     1       9.056  10.210  18.892  0.00  0.00    +0.000 A 
ATOM     14  C   UNL     1       9.119  11.253  17.923  0.00  0.00    +0.000 A 
ATOM     15  C   UNL     1       9.627  12.421  18.451  0.00  0.00    +0.000 A 
ATOM     16  S   UNL     1      10.027  12.255  20.108  0.00  0.00    +0.000 S 
ATOM     17  C   UNL     1       9.520  10.619  20.123  0.00  0.00    +0.000 A 
ENDBRANCH  11  13
ENDBRANCH   1  12
TORSDOF 2
ENDMDL
MODEL 9
REMARK VINA RESULT:      -6.5      7.813      8.992
REMARK  Name = 
REMARK  2 active torsions:
REMARK  status: ('A' for Active; 'I' for Inactive)
REMARK    1  A    between atoms: C_1  and  C_12
REMARK    2  A    between atoms: C_2  and  C_3
REMARK                            x       y       z     vdW  Elec       q    Type
REMARK                         _______ _______ _______ _____ _____    ______ ____
ROOT
ATOM      1  C   UNL     1       9.599  10.734  19.579  0.00  0.00    +0.000 A 
ATOM      2  N   UNL     1       9.379  11.065  20.855  0.00  0.00    +0.000 NA
ATOM      3  N   UNL     1      10.079  12.206  21.001  0.00  0.00    +0.000 N 
ATOM      4  C   UNL     1      10.734  12.615  19.868  0.00  0.00    +0.000 A 
ATOM      5  C   UNL     1      11.550  13.722  19.609  0.00  0.00    +0.000 A 
ATOM      6  C   UNL     1      12.070  13.839  18.315  0.00  0.00    +0.000 A 
ATOM      7  C   UNL     1      11.785  12.892  17.331  0.00  0.00    +0.000 A 
ATOM      8  C   UNL     1      10.967  11.792  17.611  0.00  0.00    +0.000 A 
ATOM      9  C   UNL     1      10.433  11.655  18.906  0.00  0.00    +0.000 A 
ATOM     10  H   UNL     1      10.069  12.663  21.906  0.00  0.00    +0.000 HD
ENDROOT
BRANCH   1  12
ATOM     11  C   UNL     1       8.504   8.539  18.643  0.00  0.00    +0.000 C 
ATOM     12  C   UNL     1       8.999   9.551  19.061  0.00  0.00    +0.000 C 
BRANCH  11  13
ATOM     13  C   UNL     1       7.913   7.337  18.147  0.00  0.00    +0.000 A 
ATOM     14  C   UNL     1       7.863   6.094  18.845  0.00  0.00    +0.000 A 
ATOM     15  C   UNL     1       7.227   5.115  18.112  0.00  0.00    +0.000 A 
ATOM     16  S   UNL     1       6.695   5.693  16.591  0.00  0.00    +0.000 S 
ATOM     17  C   UNL     1       7.315   7.258  16.908  0.00  0.00    +0.000 A 
ENDBRANCH  11  13
ENDBRANCH   1  12
TORSDOF 2
ENDMDL
