MODEL 1
REMARK VINA RESULT:      -6.7      0.000      0.000
REMARK  Name = 
REMARK  11 active torsions:
REMARK  status: ('A' for Active; 'I' for Inactive)
REMARK    1  A    between atoms: C_1  and  O_2
REMARK    2  A    between atoms: O_2  and  C_3
REMARK    3  A    between atoms: C_3  and  C_5
REMARK    4  A    between atoms: C_5  and  C_6
REMARK    5  A    between atoms: C_6  and  C_7
REMARK    6  A    between atoms: C_7  and  N_8
REMARK    7  A    between atoms: C_9  and  C_11
REMARK    8  A    between atoms: C_11  and  C_12
REMARK    9  A    between atoms: C_11  and  N_19
REMARK   10  A    between atoms: C_12  and  C_13
REMARK   11  A    between atoms: C_20  and  C_21
REMARK                            x       y       z     vdW  Elec       q    Type
REMARK                         _______ _______ _______ _____ _____    ______ ____
ROOT
ATOM      1  C   UNL     1       5.364   3.899  16.953  0.00  0.00    +0.000 C 
ENDROOT
BRANCH   1   2
ATOM      2  N   UNL     1       6.028   4.870  17.841  0.00  0.00    +0.000 N 
ATOM      3  C   UNL     1       7.391   4.935  17.974  0.00  0.00    +0.000 C 
ATOM      4  C   UNL     1       7.868   5.969  18.961  0.00  0.00    +0.000 C 
ATOM      5  O   UNL     1       8.162   4.216  17.342  0.00  0.00    +0.000 OA
ATOM      6  H   UNL     1       5.463   5.254  18.591  0.00  0.00    +0.000 HD
ENDBRANCH   1   2
BRANCH   1   8
ATOM      7  N   UNL     1       4.253   3.496  19.104  0.00  0.00    +0.000 N 
ATOM      8  C   UNL     1       4.154   3.348  17.734  0.00  0.00    +0.000 C 
ATOM      9  O   UNL     1       3.128   2.960  17.177  0.00  0.00    +0.000 OA
ATOM     10  H   UNL     1       5.147   3.788  19.492  0.00  0.00    +0.000 HD
BRANCH   7  11
ATOM     11  C   UNL     1       3.193   3.116  20.015  0.00  0.00    +0.000 C 
BRANCH  11  12
ATOM     12  C   UNL     1       2.626   4.322  20.762  0.00  0.00    +0.000 C 
BRANCH  12  13
ATOM     13  C   UNL     1       1.781   5.218  19.855  0.00  0.00    +0.000 C 
BRANCH  13  14
ATOM     14  C   UNL     1       2.419   6.571  19.646  0.00  0.00    +0.000 C 
ATOM     15  O   UNL     1       2.079   7.610  20.194  0.00  0.00    +0.000 OA
BRANCH  14  17
ATOM     16  C   UNL     1       3.396   7.424  17.693  0.00  0.00    +0.000 C 
ATOM     17  O   UNL     1       3.435   6.455  18.743  0.00  0.00    +0.000 OA
ENDBRANCH  14  17
ENDBRANCH  13  14
ENDBRANCH  12  13
ENDBRANCH  11  12
ENDBRANCH   7  11
ENDBRANCH   1   8
BRANCH   1  18
ATOM     18  C   UNL     1       4.948   4.634  15.675  0.00  0.00    +0.000 C 
BRANCH  18  19
ATOM     19  C   UNL     1       5.770   4.379  14.436  0.00  0.00    +0.000 A 
ATOM     20  C   UNL     1       5.286   3.527  13.434  0.00  0.00    +0.000 A 
ATOM     21  C   UNL     1       5.956   3.414  12.215  0.00  0.00    +0.000 A 
ATOM     22  C   UNL     1       7.125   4.138  11.991  0.00  0.00    +0.000 A 
ATOM     23  C   UNL     1       7.641   4.951  12.998  0.00  0.00    +0.000 A 
ATOM     24  C   UNL     1       6.972   5.067  14.219  0.00  0.00    +0.000 A 
ENDBRANCH  18  19
ENDBRANCH   1  18
TORSDOF 9
ENDMDL
MODEL 2
REMARK VINA RESULT:      -6.5      1.661      2.597
REMARK  Name = 
REMARK  11 active torsions:
REMARK  status: ('A' for Active; 'I' for Inactive)
REMARK    1  A    between atoms: C_1  and  O_2
REMARK    2  A    between atoms: O_2  and  C_3
REMARK    3  A    between atoms: C_3  and  C_5
REMARK    4  A    between atoms: C_5  and  C_6
REMARK    5  A    between atoms: C_6  and  C_7
REMARK    6  A    between atoms: C_7  and  N_8
REMARK    7  A    between atoms: C_9  and  C_11
REMARK    8  A    between atoms: C_11  and  C_12
REMARK    9  A    between atoms: C_11  and  N_19
REMARK   10  A    between atoms: C_12  and  C_13
REMARK   11  A    between atoms: C_20  and  C_21
REMARK                            x       y       z     vdW  Elec       q    Type
REMARK                         _______ _______ _______ _____ _____    ______ ____
ROOT
ATOM      1  C   UNL     1       5.332   4.561  16.754  0.00  0.00    +0.000 C 
ENDROOT
BRANCH   1   2
ATOM      2  N   UNL     1       6.107   5.164  17.854  0.00  0.00    +0.000 N 
ATOM      3  C   UNL     1       7.452   4.948  18.014  0.00  0.00    +0.000 C 
ATOM      4  C   UNL     1       8.047   5.621  19.222  0.00  0.00    +0.000 C 
ATOM      5  O   UNL     1       8.119   4.268  17.237  0.00  0.00    +0.000 OA
ATOM      6  H   UNL     1       5.578   5.460  18.668  0.00  0.00    +0.000 HD
ENDBRANCH   1   2
BRANCH   1   8
ATOM      7  N   UNL     1       3.476   5.409  18.117  0.00  0.00    +0.000 N 
ATOM      8  C   UNL     1       3.890   4.396  17.273  0.00  0.00    +0.000 C 
ATOM      9  O   UNL     1       3.129   3.530  16.846  0.00  0.00    +0.000 OA
ATOM     10  H   UNL     1       4.174   6.068  18.455  0.00  0.00    +0.000 HD
BRANCH   7  11
ATOM     11  C   UNL     1       2.133   5.486  18.654  0.00  0.00    +0.000 C 
BRANCH  11  12
ATOM     12  C   UNL     1       2.097   5.162  20.146  0.00  0.00    +0.000 C 
BRANCH  12  13
ATOM     13  C   UNL     1       1.289   3.898  20.444  0.00  0.00    +0.000 C 
BRANCH  13  14
ATOM     14  C   UNL     1       2.064   2.643  20.119  0.00  0.00    +0.000 C 
ATOM     15  O   UNL     1       1.704   1.765  19.348  0.00  0.00    +0.000 OA
BRANCH  14  17
ATOM     16  C   UNL     1       4.369   2.220  20.071  0.00  0.00    +0.000 C 
ATOM     17  O   UNL     1       3.231   2.638  20.826  0.00  0.00    +0.000 OA
ENDBRANCH  14  17
ENDBRANCH  13  14
ENDBRANCH  12  13
ENDBRANCH  11  12
ENDBRANCH   7  11
ENDBRANCH   1   8
BRANCH   1  18
ATOM     18  C   UNL     1       5.415   5.501  15.547  0.00  0.00    +0.000 C 
BRANCH  18  19
ATOM     19  C   UNL     1       5.900   4.910  14.247  0.00  0.00    +0.000 A 
ATOM     20  C   UNL     1       7.175   5.229  13.761  0.00  0.00    +0.000 A 
ATOM     21  C   UNL     1       7.699   4.563  12.652  0.00  0.00    +0.000 A 
ATOM     22  C   UNL     1       6.948   3.583  12.008  0.00  0.00    +0.000 A 
ATOM     23  C   UNL     1       5.660   3.292  12.452  0.00  0.00    +0.000 A 
ATOM     24  C   UNL     1       5.133   3.956  13.563  0.00  0.00    +0.000 A 
ENDBRANCH  18  19
ENDBRANCH   1  18
TORSDOF 9
ENDMDL
MODEL 3
REMARK VINA RESULT:      -6.4      1.425      1.939
REMARK  Name = 
REMARK  11 active torsions:
REMARK  status: ('A' for Active; 'I' for Inactive)
REMARK    1  A    between atoms: C_1  and  O_2
REMARK    2  A    between atoms: O_2  and  C_3
REMARK    3  A    between atoms: C_3  and  C_5
REMARK    4  A    between atoms: C_5  and  C_6
REMARK    5  A    between atoms: C_6  and  C_7
REMARK    6  A    between atoms: C_7  and  N_8
REMARK    7  A    between atoms: C_9  and  C_11
REMARK    8  A    between atoms: C_11  and  C_12
REMARK    9  A    between atoms: C_11  and  N_19
REMARK   10  A    between atoms: C_12  and  C_13
REMARK   11  A    between atoms: C_20  and  C_21
REMARK                            x       y       z     vdW  Elec       q    Type
REMARK                         _______ _______ _______ _____ _____    ______ ____
ROOT
ATOM      1  C   UNL     1       5.617   3.877  17.092  0.00  0.00    +0.000 C 
ENDROOT
BRANCH   1   2
ATOM      2  N   UNL     1       6.233   5.017  17.796  0.00  0.00    +0.000 N 
ATOM      3  C   UNL     1       7.572   5.064  18.093  0.00  0.00    +0.000 C 
ATOM      4  C   UNL     1       7.994   6.295  18.850  0.00  0.00    +0.000 C 
ATOM      5  O   UNL     1       8.363   4.181  17.768  0.00  0.00    +0.000 OA
ATOM      6  H   UNL     1       5.609   5.598  18.344  0.00  0.00    +0.000 HD
ENDBRANCH   1   2
BRANCH   1   8
ATOM      7  N   UNL     1       3.449   2.778  17.424  0.00  0.00    +0.000 N 
ATOM      8  C   UNL     1       4.568   3.284  18.055  0.00  0.00    +0.000 C 
ATOM      9  O   UNL     1       4.785   3.133  19.256  0.00  0.00    +0.000 OA
ATOM     10  H   UNL     1       3.324   2.975  16.434  0.00  0.00    +0.000 HD
BRANCH   7  11
ATOM     11  C   UNL     1       2.380   2.108  18.137  0.00  0.00    +0.000 C 
BRANCH  11  12
ATOM     12  C   UNL     1       1.166   3.015  18.325  0.00  0.00    +0.000 C 
BRANCH  12  13
ATOM     13  C   UNL     1       1.553   4.494  18.383  0.00  0.00    +0.000 C 
BRANCH  13  14
ATOM     14  C   UNL     1       1.828   4.951  19.795  0.00  0.00    +0.000 C 
ATOM     15  O   UNL     1       2.514   5.912  20.111  0.00  0.00    +0.000 OA
BRANCH  14  17
ATOM     16  C   UNL     1       2.054   3.529  21.645  0.00  0.00    +0.000 C 
ATOM     17  O   UNL     1       1.192   4.119  20.670  0.00  0.00    +0.000 OA
ENDBRANCH  14  17
ENDBRANCH  13  14
ENDBRANCH  12  13
ENDBRANCH  11  12
ENDBRANCH   7  11
ENDBRANCH   1   8
BRANCH   1  18
ATOM     18  C   UNL     1       4.991   4.404  15.797  0.00  0.00    +0.000 C 
BRANCH  18  19
ATOM     19  C   UNL     1       5.803   4.263  14.534  0.00  0.00    +0.000 A 
ATOM     20  C   UNL     1       5.328   3.475  13.476  0.00  0.00    +0.000 A 
ATOM     21  C   UNL     1       5.984   3.471  12.244  0.00  0.00    +0.000 A 
ATOM     22  C   UNL     1       7.129   4.241  12.061  0.00  0.00    +0.000 A 
ATOM     23  C   UNL     1       7.638   4.991  13.120  0.00  0.00    +0.000 A 
ATOM     24  C   UNL     1       6.982   4.999  14.354  0.00  0.00    +0.000 A 
ENDBRANCH  18  19
ENDBRANCH   1  18
TORSDOF 9
ENDMDL
MODEL 4
REMARK VINA RESULT:      -6.4      2.289      6.671
REMARK  Name = 
REMARK  11 active torsions:
REMARK  status: ('A' for Active; 'I' for Inactive)
REMARK    1  A    between atoms: C_1  and  O_2
REMARK    2  A    between atoms: O_2  and  C_3
REMARK    3  A    between atoms: C_3  and  C_5
REMARK    4  A    between atoms: C_5  and  C_6
REMARK    5  A    between atoms: C_6  and  C_7
REMARK    6  A    between atoms: C_7  and  N_8
REMARK    7  A    between atoms: C_9  and  C_11
REMARK    8  A    between atoms: C_11  and  C_12
REMARK    9  A    between atoms: C_11  and  N_19
REMARK   10  A    between atoms: C_12  and  C_13
REMARK   11  A    between atoms: C_20  and  C_21
REMARK                            x       y       z     vdW  Elec       q    Type
REMARK                         _______ _______ _______ _____ _____    ______ ____
ROOT
ATOM      1  C   UNL     1       3.023   5.242  19.259  0.00  0.00    +0.000 C 
ENDROOT
BRANCH   1   2
ATOM      2  N   UNL     1       2.246   4.103  18.738  0.00  0.00    +0.000 N 
ATOM      3  C   UNL     1       1.197   3.548  19.427  0.00  0.00    +0.000 C 
ATOM      4  C   UNL     1       0.561   2.368  18.740  0.00  0.00    +0.000 C 
ATOM      5  O   UNL     1       0.805   3.977  20.510  0.00  0.00    +0.000 OA
ATOM      6  H   UNL     1       2.701   3.531  18.034  0.00  0.00    +0.000 HD
ENDBRANCH   1   2
BRANCH   1   8
ATOM      7  N   UNL     1       5.428   5.728  19.292  0.00  0.00    +0.000 N 
ATOM      8  C   UNL     1       4.471   4.741  19.431  0.00  0.00    +0.000 C 
ATOM      9  O   UNL     1       4.736   3.603  19.814  0.00  0.00    +0.000 OA
ATOM     10  H   UNL     1       5.136   6.635  18.937  0.00  0.00    +0.000 HD
BRANCH   7  11
ATOM     11  C   UNL     1       6.842   5.486  19.492  0.00  0.00    +0.000 C 
BRANCH  11  12
ATOM     12  C   UNL     1       7.649   5.749  18.222  0.00  0.00    +0.000 C 
BRANCH  12  13
ATOM     13  C   UNL     1       7.671   4.538  17.289  0.00  0.00    +0.000 C 
BRANCH  13  14
ATOM     14  C   UNL     1       6.730   4.708  16.121  0.00  0.00    +0.000 C 
ATOM     15  O   UNL     1       5.525   4.898  16.200  0.00  0.00    +0.000 OA
BRANCH  14  17
ATOM     16  C   UNL     1       6.643   4.253  13.823  0.00  0.00    +0.000 C 
ATOM     17  O   UNL     1       7.435   4.610  14.956  0.00  0.00    +0.000 OA
ENDBRANCH  14  17
ENDBRANCH  13  14
ENDBRANCH  12  13
ENDBRANCH  11  12
ENDBRANCH   7  11
ENDBRANCH   1   8
BRANCH   1  18
ATOM     18  C   UNL     1       2.917   6.389  18.248  0.00  0.00    +0.000 C 
BRANCH  18  19
ATOM     19  C   UNL     1       2.267   7.665  18.722  0.00  0.00    +0.000 A 
ATOM     20  C   UNL     1       2.003   8.699  17.813  0.00  0.00    +0.000 A 
ATOM     21  C   UNL     1       1.255   9.811  18.201  0.00  0.00    +0.000 A 
ATOM     22  C   UNL     1       0.776   9.909  19.505  0.00  0.00    +0.000 A 
ATOM     23  C   UNL     1       1.074   8.910  20.431  0.00  0.00    +0.000 A 
ATOM     24  C   UNL     1       1.822   7.795  20.044  0.00  0.00    +0.000 A 
ENDBRANCH  18  19
ENDBRANCH   1  18
TORSDOF 9
ENDMDL
MODEL 5
REMARK VINA RESULT:      -6.3      0.960      1.443
REMARK  Name = 
REMARK  11 active torsions:
REMARK  status: ('A' for Active; 'I' for Inactive)
REMARK    1  A    between atoms: C_1  and  O_2
REMARK    2  A    between atoms: O_2  and  C_3
REMARK    3  A    between atoms: C_3  and  C_5
REMARK    4  A    between atoms: C_5  and  C_6
REMARK    5  A    between atoms: C_6  and  C_7
REMARK    6  A    between atoms: C_7  and  N_8
REMARK    7  A    between atoms: C_9  and  C_11
REMARK    8  A    between atoms: C_11  and  C_12
REMARK    9  A    between atoms: C_11  and  N_19
REMARK   10  A    between atoms: C_12  and  C_13
REMARK   11  A    between atoms: C_20  and  C_21
REMARK                            x       y       z     vdW  Elec       q    Type
REMARK                         _______ _______ _______ _____ _____    ______ ____
ROOT
ATOM      1  C   UNL     1       5.368   4.072  16.829  0.00  0.00    +0.000 C 
ENDROOT
BRANCH   1   2
ATOM      2  N   UNL     1       6.071   4.861  17.856  0.00  0.00    +0.000 N 
ATOM      3  C   UNL     1       7.438   4.858  17.982  0.00  0.00    +0.000 C 
ATOM      4  C   UNL     1       7.956   5.699  19.119  0.00  0.00    +0.000 C 
ATOM      5  O   UNL     1       8.179   4.228  17.230  0.00  0.00    +0.000 OA
ATOM      6  H   UNL     1       5.525   5.135  18.666  0.00  0.00    +0.000 HD
ENDBRANCH   1   2
BRANCH   1   8
ATOM      7  N   UNL     1       3.083   4.482  17.623  0.00  0.00    +0.000 N 
ATOM      8  C   UNL     1       4.082   3.538  17.492  0.00  0.00    +0.000 C 
ATOM      9  O   UNL     1       3.910   2.344  17.733  0.00  0.00    +0.000 OA
ATOM     10  H   UNL     1       3.313   5.455  17.438  0.00  0.00    +0.000 HD
BRANCH   7  11
ATOM     11  C   UNL     1       1.769   4.169  18.148  0.00  0.00    +0.000 C 
BRANCH  11  12
ATOM     12  C   UNL     1       1.620   4.605  19.605  0.00  0.00    +0.000 C 
BRANCH  12  13
ATOM     13  C   UNL     1       2.667   5.645  20.006  0.00  0.00    +0.000 C 
BRANCH  13  14
ATOM     14  C   UNL     1       2.194   7.054  19.740  0.00  0.00    +0.000 C 
ATOM     15  O   UNL     1       1.611   7.772  20.540  0.00  0.00    +0.000 OA
BRANCH  14  17
ATOM     16  C   UNL     1       2.135   8.734  18.106  0.00  0.00    +0.000 C 
ATOM     17  O   UNL     1       2.515   7.404  18.461  0.00  0.00    +0.000 OA
ENDBRANCH  14  17
ENDBRANCH  13  14
ENDBRANCH  12  13
ENDBRANCH  11  12
ENDBRANCH   7  11
ENDBRANCH   1   8
BRANCH   1  18
ATOM     18  C   UNL     1       5.073   4.995  15.643  0.00  0.00    +0.000 C 
BRANCH  18  19
ATOM     19  C   UNL     1       5.736   4.661  14.330  0.00  0.00    +0.000 A 
ATOM     20  C   UNL     1       7.007   5.174  14.033  0.00  0.00    +0.000 A 
ATOM     21  C   UNL     1       7.700   4.741  12.901  0.00  0.00    +0.000 A 
ATOM     22  C   UNL     1       7.125   3.803  12.048  0.00  0.00    +0.000 A 
ATOM     23  C   UNL     1       5.843   3.322  12.307  0.00  0.00    +0.000 A 
ATOM     24  C   UNL     1       5.147   3.753  13.440  0.00  0.00    +0.000 A 
ENDBRANCH  18  19
ENDBRANCH   1  18
TORSDOF 9
ENDMDL
MODEL 6
REMARK VINA RESULT:      -6.3      2.265      6.602
REMARK  Name = 
REMARK  11 active torsions:
REMARK  status: ('A' for Active; 'I' for Inactive)
REMARK    1  A    between atoms: C_1  and  O_2
REMARK    2  A    between atoms: O_2  and  C_3
REMARK    3  A    between atoms: C_3  and  C_5
REMARK    4  A    between atoms: C_5  and  C_6
REMARK    5  A    between atoms: C_6  and  C_7
REMARK    6  A    between atoms: C_7  and  N_8
REMARK    7  A    between atoms: C_9  and  C_11
REMARK    8  A    between atoms: C_11  and  C_12
REMARK    9  A    between atoms: C_11  and  N_19
REMARK   10  A    between atoms: C_12  and  C_13
REMARK   11  A    between atoms: C_20  and  C_21
REMARK                            x       y       z     vdW  Elec       q    Type
REMARK                         _______ _______ _______ _____ _____    ______ ____
ROOT
ATOM      1  C   UNL     1       3.411   5.209  19.210  0.00  0.00    +0.000 C 
ENDROOT
BRANCH   1   2
ATOM      2  N   UNL     1       2.498   4.160  18.722  0.00  0.00    +0.000 N 
ATOM      3  C   UNL     1       1.433   3.709  19.458  0.00  0.00    +0.000 C 
ATOM      4  C   UNL     1       0.648   2.606  18.798  0.00  0.00    +0.000 C 
ATOM      5  O   UNL     1       1.137   4.165  20.561  0.00  0.00    +0.000 OA
ATOM      6  H   UNL     1       2.859   3.552  17.994  0.00  0.00    +0.000 HD
ENDBRANCH   1   2
BRANCH   1   8
ATOM      7  N   UNL     1       5.823   5.459  18.830  0.00  0.00    +0.000 N 
ATOM      8  C   UNL     1       4.823   4.590  19.222  0.00  0.00    +0.000 C 
ATOM      9  O   UNL     1       5.052   3.476  19.691  0.00  0.00    +0.000 OA
ATOM     10  H   UNL     1       5.552   6.349  18.419  0.00  0.00    +0.000 HD
BRANCH   7  11
ATOM     11  C   UNL     1       7.226   5.101  18.844  0.00  0.00    +0.000 C 
BRANCH  11  12
ATOM     12  C   UNL     1       7.737   4.745  17.449  0.00  0.00    +0.000 C 
BRANCH  12  13
ATOM     13  C   UNL     1       6.598   4.401  16.488  0.00  0.00    +0.000 C 
BRANCH  13  14
ATOM     14  C   UNL     1       6.470   5.417  15.378  0.00  0.00    +0.000 C 
ATOM     15  O   UNL     1       5.561   6.223  15.253  0.00  0.00    +0.000 OA
BRANCH  14  17
ATOM     16  C   UNL     1       7.197   4.725  13.259  0.00  0.00    +0.000 C 
ATOM     17  O   UNL     1       7.530   5.291  14.527  0.00  0.00    +0.000 OA
ENDBRANCH  14  17
ENDBRANCH  13  14
ENDBRANCH  12  13
ENDBRANCH  11  12
ENDBRANCH   7  11
ENDBRANCH   1   8
BRANCH   1  18
ATOM     18  C   UNL     1       3.307   6.407  18.260  0.00  0.00    +0.000 C 
BRANCH  18  19
ATOM     19  C   UNL     1       2.373   7.522  18.659  0.00  0.00    +0.000 A 
ATOM     20  C   UNL     1       1.953   7.645  19.991  0.00  0.00    +0.000 A 
ATOM     21  C   UNL     1       1.228   8.763  20.406  0.00  0.00    +0.000 A 
ATOM     22  C   UNL     1       0.901   9.761  19.492  0.00  0.00    +0.000 A 
ATOM     23  C   UNL     1       1.271   9.627  18.155  0.00  0.00    +0.000 A 
ATOM     24  C   UNL     1       1.999   8.509  17.737  0.00  0.00    +0.000 A 
ENDBRANCH  18  19
ENDBRANCH   1  18
TORSDOF 9
ENDMDL
MODEL 7
REMARK VINA RESULT:      -6.3      1.355      1.885
REMARK  Name = 
REMARK  11 active torsions:
REMARK  status: ('A' for Active; 'I' for Inactive)
REMARK    1  A    between atoms: C_1  and  O_2
REMARK    2  A    between atoms: O_2  and  C_3
REMARK    3  A    between atoms: C_3  and  C_5
REMARK    4  A    between atoms: C_5  and  C_6
REMARK    5  A    between atoms: C_6  and  C_7
REMARK    6  A    between atoms: C_7  and  N_8
REMARK    7  A    between atoms: C_9  and  C_11
REMARK    8  A    between atoms: C_11  and  C_12
REMARK    9  A    between atoms: C_11  and  N_19
REMARK   10  A    between atoms: C_12  and  C_13
REMARK   11  A    between atoms: C_20  and  C_21
REMARK                            x       y       z     vdW  Elec       q    Type
REMARK                         _______ _______ _______ _____ _____    ______ ____
ROOT
ATOM      1  C   UNL     1       5.317   4.508  16.754  0.00  0.00    +0.000 C 
ENDROOT
BRANCH   1   2
ATOM      2  N   UNL     1       6.047   5.157  17.858  0.00  0.00    +0.000 N 
ATOM      3  C   UNL     1       7.387   4.958  18.075  0.00  0.00    +0.000 C 
ATOM      4  C   UNL     1       7.933   5.681  19.278  0.00  0.00    +0.000 C 
ATOM      5  O   UNL     1       8.086   4.255  17.349  0.00  0.00    +0.000 OA
ATOM      6  H   UNL     1       5.487   5.479  18.641  0.00  0.00    +0.000 HD
ENDBRANCH   1   2
BRANCH   1   8
ATOM      7  N   UNL     1       3.413   3.073  17.335  0.00  0.00    +0.000 N 
ATOM      8  C   UNL     1       3.851   4.377  17.216  0.00  0.00    +0.000 C 
ATOM      9  O   UNL     1       3.190   5.342  17.595  0.00  0.00    +0.000 OA
ATOM     10  H   UNL     1       4.004   2.331  16.966  0.00  0.00    +0.000 HD
BRANCH   7  11
ATOM     11  C   UNL     1       2.095   2.728  17.828  0.00  0.00    +0.000 C 
BRANCH  11  12
ATOM     12  C   UNL     1       2.161   2.019  19.180  0.00  0.00    +0.000 C 
BRANCH  12  13
ATOM     13  C   UNL     1       1.405   2.782  20.270  0.00  0.00    +0.000 C 
BRANCH  13  14
ATOM     14  C   UNL     1       2.058   4.106  20.588  0.00  0.00    +0.000 C 
ATOM     15  O   UNL     1       3.250   4.280  20.794  0.00  0.00    +0.000 OA
BRANCH  14  17
ATOM     16  C   UNL     1       1.632   6.410  20.666  0.00  0.00    +0.000 C 
ATOM     17  O   UNL     1       1.106   5.083  20.615  0.00  0.00    +0.000 OA
ENDBRANCH  14  17
ENDBRANCH  13  14
ENDBRANCH  12  13
ENDBRANCH  11  12
ENDBRANCH   7  11
ENDBRANCH   1   8
BRANCH   1  18
ATOM     18  C   UNL     1       5.461   5.389  15.509  0.00  0.00    +0.000 C 
BRANCH  18  19
ATOM     19  C   UNL     1       6.054   4.749  14.279  0.00  0.00    +0.000 A 
ATOM     20  C   UNL     1       5.334   3.769  13.580  0.00  0.00    +0.000 A 
ATOM     21  C   UNL     1       5.795   3.292  12.352  0.00  0.00    +0.000 A 
ATOM     22  C   UNL     1       6.986   3.776  11.818  0.00  0.00    +0.000 A 
ATOM     23  C   UNL     1       7.734   4.715  12.526  0.00  0.00    +0.000 A 
ATOM     24  C   UNL     1       7.274   5.196  13.755  0.00  0.00    +0.000 A 
ENDBRANCH  18  19
ENDBRANCH   1  18
TORSDOF 9
ENDMDL
MODEL 8
REMARK VINA RESULT:      -6.3      1.748      2.487
REMARK  Name = 
REMARK  11 active torsions:
REMARK  status: ('A' for Active; 'I' for Inactive)
REMARK    1  A    between atoms: C_1  and  O_2
REMARK    2  A    between atoms: O_2  and  C_3
REMARK    3  A    between atoms: C_3  and  C_5
REMARK    4  A    between atoms: C_5  and  C_6
REMARK    5  A    between atoms: C_6  and  C_7
REMARK    6  A    between atoms: C_7  and  N_8
REMARK    7  A    between atoms: C_9  and  C_11
REMARK    8  A    between atoms: C_11  and  C_12
REMARK    9  A    between atoms: C_11  and  N_19
REMARK   10  A    between atoms: C_12  and  C_13
REMARK   11  A    between atoms: C_20  and  C_21
REMARK                            x       y       z     vdW  Elec       q    Type
REMARK                         _______ _______ _______ _____ _____    ______ ____
ROOT
ATOM      1  C   UNL     1       6.030   4.940  16.943  0.00  0.00    +0.000 C 
ENDROOT
BRANCH   1   2
ATOM      2  N   UNL     1       6.466   6.347  16.996  0.00  0.00    +0.000 N 
ATOM      3  C   UNL     1       7.486   6.773  17.809  0.00  0.00    +0.000 C 
ATOM      4  C   UNL     1       7.750   8.255  17.745  0.00  0.00    +0.000 C 
ATOM      5  O   UNL     1       8.136   6.013  18.524  0.00  0.00    +0.000 OA
ATOM      6  H   UNL     1       5.793   7.040  16.684  0.00  0.00    +0.000 HD
ENDBRANCH   1   2
BRANCH   1   8
ATOM      7  N   UNL     1       5.225   3.390  18.666  0.00  0.00    +0.000 N 
ATOM      8  C   UNL     1       5.190   4.694  18.212  0.00  0.00    +0.000 C 
ATOM      9  O   UNL     1       4.670   5.609  18.848  0.00  0.00    +0.000 OA
ATOM     10  H   UNL     1       5.644   2.683  18.066  0.00  0.00    +0.000 HD
BRANCH   7  11
ATOM     11  C   UNL     1       4.569   2.963  19.885  0.00  0.00    +0.000 C 
BRANCH  11  12
ATOM     12  C   UNL     1       3.503   1.902  19.616  0.00  0.00    +0.000 C 
BRANCH  12  13
ATOM     13  C   UNL     1       2.090   2.422  19.881  0.00  0.00    +0.000 C 
BRANCH  13  14
ATOM     14  C   UNL     1       1.271   2.505  18.615  0.00  0.00    +0.000 C 
ATOM     15  O   UNL     1       0.166   2.009  18.449  0.00  0.00    +0.000 OA
BRANCH  14  17
ATOM     16  C   UNL     1       1.566   4.587  17.579  0.00  0.00    +0.000 C 
ATOM     17  O   UNL     1       1.961   3.217  17.678  0.00  0.00    +0.000 OA
ENDBRANCH  14  17
ENDBRANCH  13  14
ENDBRANCH  12  13
ENDBRANCH  11  12
ENDBRANCH   7  11
ENDBRANCH   1   8
BRANCH   1  18
ATOM     18  C   UNL     1       5.219   4.745  15.658  0.00  0.00    +0.000 C 
BRANCH  18  19
ATOM     19  C   UNL     1       5.990   4.456  14.394  0.00  0.00    +0.000 A 
ATOM     20  C   UNL     1       5.476   3.560  13.446  0.00  0.00    +0.000 A 
ATOM     21  C   UNL     1       6.094   3.411  12.204  0.00  0.00    +0.000 A 
ATOM     22  C   UNL     1       7.239   4.143  11.902  0.00  0.00    +0.000 A 
ATOM     23  C   UNL     1       7.786   5.001  12.854  0.00  0.00    +0.000 A 
ATOM     24  C   UNL     1       7.169   5.153  14.099  0.00  0.00    +0.000 A 
ENDBRANCH  18  19
ENDBRANCH   1  18
TORSDOF 9
ENDMDL
MODEL 9
REMARK VINA RESULT:      -6.3      1.654      2.578
REMARK  Name = 
REMARK  11 active torsions:
REMARK  status: ('A' for Active; 'I' for Inactive)
REMARK    1  A    between atoms: C_1  and  O_2
REMARK    2  A    between atoms: O_2  and  C_3
REMARK    3  A    between atoms: C_3  and  C_5
REMARK    4  A    between atoms: C_5  and  C_6
REMARK    5  A    between atoms: C_6  and  C_7
REMARK    6  A    between atoms: C_7  and  N_8
REMARK    7  A    between atoms: C_9  and  C_11
REMARK    8  A    between atoms: C_11  and  C_12
REMARK    9  A    between atoms: C_11  and  N_19
REMARK   10  A    between atoms: C_12  and  C_13
REMARK   11  A    between atoms: C_20  and  C_21
REMARK                            x       y       z     vdW  Elec       q    Type
REMARK                         _______ _______ _______ _____ _____    ______ ____
ROOT
ATOM      1  C   UNL     1       5.275   5.196  16.952  0.00  0.00    +0.000 C 
ENDROOT
BRANCH   1   2
ATOM      2  N   UNL     1       6.138   5.656  18.055  0.00  0.00    +0.000 N 
ATOM      3  C   UNL     1       7.420   5.198  18.228  0.00  0.00    +0.000 C 
ATOM      4  C   UNL     1       8.120   5.762  19.437  0.00  0.00    +0.000 C 
ATOM      5  O   UNL     1       7.957   4.400  17.462  0.00  0.00    +0.000 OA
ATOM      6  H   UNL     1       5.667   6.051  18.862  0.00  0.00    +0.000 HD
ENDBRANCH   1   2
BRANCH   1   8
ATOM      7  N   UNL     1       3.047   4.481  17.693  0.00  0.00    +0.000 N 
ATOM      8  C   UNL     1       3.830   5.565  17.346  0.00  0.00    +0.000 C 
ATOM      9  O   UNL     1       3.461   6.729  17.490  0.00  0.00    +0.000 OA
ATOM     10  H   UNL     1       3.409   3.548  17.511  0.00  0.00    +0.000 HD
BRANCH   7  11
ATOM     11  C   UNL     1       1.685   4.614  18.168  0.00  0.00    +0.000 C 
BRANCH  11  12
ATOM     12  C   UNL     1       1.625   4.778  19.685  0.00  0.00    +0.000 C 
BRANCH  12  13
ATOM     13  C   UNL     1       1.210   3.485  20.390  0.00  0.00    +0.000 C 
BRANCH  13  14
ATOM     14  C   UNL     1       2.404   2.710  20.895  0.00  0.00    +0.000 C 
ATOM     15  O   UNL     1       2.688   2.528  22.070  0.00  0.00    +0.000 OA
BRANCH  14  17
ATOM     16  C   UNL     1       4.523   2.119  20.087  0.00  0.00    +0.000 C 
ATOM     17  O   UNL     1       3.123   2.246  19.833  0.00  0.00    +0.000 OA
ENDBRANCH  14  17
ENDBRANCH  13  14
ENDBRANCH  12  13
ENDBRANCH  11  12
ENDBRANCH   7  11
ENDBRANCH   1   8
BRANCH   1  18
ATOM     18  C   UNL     1       5.729   5.901  15.670  0.00  0.00    +0.000 C 
BRANCH  18  19
ATOM     19  C   UNL     1       6.122   5.026  14.506  0.00  0.00    +0.000 A 
ATOM     20  C   UNL     1       5.217   4.085  13.997  0.00  0.00    +0.000 A 
ATOM     21  C   UNL     1       5.503   3.389  12.821  0.00  0.00    +0.000 A 
ATOM     22  C   UNL     1       6.704   3.614  12.152  0.00  0.00    +0.000 A 
ATOM     23  C   UNL     1       7.632   4.512  12.675  0.00  0.00    +0.000 A 
ATOM     24  C   UNL     1       7.347   5.211  13.852  0.00  0.00    +0.000 A 
ENDBRANCH  18  19
ENDBRANCH   1  18
TORSDOF 9
ENDMDL
