MODEL 1
REMARK VINA RESULT:      -6.8      0.000      0.000
REMARK  Name = 
REMARK  9 active torsions:
REMARK  status: ('A' for Active; 'I' for Inactive)
REMARK    1  A    between atoms: C_1  and  C_2
REMARK    2  A    between atoms: C_2  and  O_3
REMARK    3  A    between atoms: C_2  and  P_4
REMARK    4  A    between atoms: C_2  and  P_8
REMARK    5  A    between atoms: P_4  and  O_6
REMARK    6  A    between atoms: P_4  and  O_7
REMARK    7  A    between atoms: P_8  and  O_10
REMARK    8  A    between atoms: P_8  and  O_11
REMARK    9  A    between atoms: O_11  and  C_12
REMARK                            x       y       z     vdW  Elec       q    Type
REMARK                         _______ _______ _______ _____ _____    ______ ____
ROOT
ATOM      1  P   UNL     1       5.103   5.003  17.381  0.00  0.00    +0.000 P 
ATOM      2  O   UNL     1       4.756   5.721  16.064  0.00  0.00    +0.000 OA
ENDROOT
BRANCH   1   4
ATOM      3  C   UNL     1       6.400   7.464  17.225  0.00  0.00    +0.000 C 
ATOM      4  C   UNL     1       6.652   5.971  17.507  0.00  0.00    +0.000 C 
BRANCH   4   5
ATOM      5  O   UNL     1       7.614   5.510  16.494  0.00  0.00    +0.000 OA
ATOM      6  H   UNL     1       8.478   5.520  16.959  0.00  0.00    +0.000 HD
ENDBRANCH   4   5
BRANCH   4   7
ATOM      7  P   UNL     1       7.463   5.620  19.109  0.00  0.00    +0.000 P 
ATOM      8  O   UNL     1       6.188   4.975  19.672  0.00  0.00    +0.000 OA
BRANCH   7   9
ATOM      9  O   UNL     1       8.327   4.389  18.465  0.00  0.00    +0.000 OA
ATOM     10  H   UNL     1       8.581   4.603  17.540  0.00  0.00    +0.000 HD
ENDBRANCH   7   9
BRANCH   7  11
ATOM     11  O   UNL     1       8.229   5.287  20.624  0.00  0.00    +0.000 OA
ATOM     12  H   UNL     1       8.631   6.136  20.905  0.00  0.00    +0.000 HD
ENDBRANCH   7  11
ENDBRANCH   4   7
ENDBRANCH   1   4
BRANCH   1  13
ATOM     13  O   UNL     1       5.968   3.681  16.906  0.00  0.00    +0.000 OA
ATOM     14  H   UNL     1       5.413   2.897  17.123  0.00  0.00    +0.000 HD
ENDBRANCH   1  13
BRANCH   1  15
ATOM     15  O   UNL     1       3.640   4.089  17.262  0.00  0.00    +0.000 OA
BRANCH  15  16
ATOM     16  C   UNL     1       2.767   4.107  18.319  0.00  0.00    +0.000 A 
ATOM     17  C   UNL     1       1.865   3.049  18.404  0.00  0.00    +0.000 A 
ATOM     18  C   UNL     1       0.940   2.995  19.438  0.00  0.00    +0.000 A 
ATOM     19  C   UNL     1       0.932   3.998  20.411  0.00  0.00    +0.000 A 
ATOM     20  C   UNL     1       1.845   5.044  20.340  0.00  0.00    +0.000 A 
ATOM     21  C   UNL     1       2.768   5.106  19.293  0.00  0.00    +0.000 A 
ENDBRANCH  15  16
ENDBRANCH   1  15
TORSDOF 8
ENDMDL
MODEL 2
REMARK VINA RESULT:      -6.7      1.071      1.314
REMARK  Name = 
REMARK  9 active torsions:
REMARK  status: ('A' for Active; 'I' for Inactive)
REMARK    1  A    between atoms: C_1  and  C_2
REMARK    2  A    between atoms: C_2  and  O_3
REMARK    3  A    between atoms: C_2  and  P_4
REMARK    4  A    between atoms: C_2  and  P_8
REMARK    5  A    between atoms: P_4  and  O_6
REMARK    6  A    between atoms: P_4  and  O_7
REMARK    7  A    between atoms: P_8  and  O_10
REMARK    8  A    between atoms: P_8  and  O_11
REMARK    9  A    between atoms: O_11  and  C_12
REMARK                            x       y       z     vdW  Elec       q    Type
REMARK                         _______ _______ _______ _____ _____    ______ ____
ROOT
ATOM      1  P   UNL     1       5.054   4.258  17.487  0.00  0.00    +0.000 P 
ATOM      2  O   UNL     1       4.042   5.141  16.736  0.00  0.00    +0.000 OA
ENDROOT
BRANCH   1   4
ATOM      3  C   UNL     1       5.675   6.948  17.120  0.00  0.00    +0.000 C 
ATOM      4  C   UNL     1       6.323   5.568  17.331  0.00  0.00    +0.000 C 
BRANCH   4   5
ATOM      5  O   UNL     1       7.162   5.314  16.149  0.00  0.00    +0.000 OA
ATOM      6  H   UNL     1       7.181   4.335  16.072  0.00  0.00    +0.000 HD
ENDBRANCH   4   5
BRANCH   4   7
ATOM      7  P   UNL     1       7.478   5.471  18.747  0.00  0.00    +0.000 P 
ATOM      8  O   UNL     1       6.357   5.024  19.698  0.00  0.00    +0.000 OA
BRANCH   7   9
ATOM      9  O   UNL     1       8.146   4.090  18.181  0.00  0.00    +0.000 OA
ATOM     10  H   UNL     1       8.986   3.902  18.656  0.00  0.00    +0.000 HD
ENDBRANCH   7   9
BRANCH   7  11
ATOM     11  O   UNL     1       8.569   5.380  20.087  0.00  0.00    +0.000 OA
ATOM     12  H   UNL     1       9.269   6.040  19.899  0.00  0.00    +0.000 HD
ENDBRANCH   7  11
ENDBRANCH   4   7
ENDBRANCH   1   4
BRANCH   1  13
ATOM     13  O   UNL     1       5.800   3.393  16.297  0.00  0.00    +0.000 OA
ATOM     14  H   UNL     1       5.091   2.883  15.841  0.00  0.00    +0.000 HD
ENDBRANCH   1  13
BRANCH   1  15
ATOM     15  O   UNL     1       3.856   3.020  17.636  0.00  0.00    +0.000 OA
BRANCH  15  16
ATOM     16  C   UNL     1       3.009   3.051  18.713  0.00  0.00    +0.000 A 
ATOM     17  C   UNL     1       3.576   2.801  19.961  0.00  0.00    +0.000 A 
ATOM     18  C   UNL     1       2.788   2.805  21.104  0.00  0.00    +0.000 A 
ATOM     19  C   UNL     1       1.423   3.085  21.002  0.00  0.00    +0.000 A 
ATOM     20  C   UNL     1       0.859   3.355  19.760  0.00  0.00    +0.000 A 
ATOM     21  C   UNL     1       1.648   3.339  18.607  0.00  0.00    +0.000 A 
ENDBRANCH  15  16
ENDBRANCH   1  15
TORSDOF 8
ENDMDL
MODEL 3
REMARK VINA RESULT:      -6.7      1.775      2.633
REMARK  Name = 
REMARK  9 active torsions:
REMARK  status: ('A' for Active; 'I' for Inactive)
REMARK    1  A    between atoms: C_1  and  C_2
REMARK    2  A    between atoms: C_2  and  O_3
REMARK    3  A    between atoms: C_2  and  P_4
REMARK    4  A    between atoms: C_2  and  P_8
REMARK    5  A    between atoms: P_4  and  O_6
REMARK    6  A    between atoms: P_4  and  O_7
REMARK    7  A    between atoms: P_8  and  O_10
REMARK    8  A    between atoms: P_8  and  O_11
REMARK    9  A    between atoms: O_11  and  C_12
REMARK                            x       y       z     vdW  Elec       q    Type
REMARK                         _______ _______ _______ _____ _____    ______ ____
ROOT
ATOM      1  P   UNL     1       4.818   4.217  17.923  0.00  0.00    +0.000 P 
ATOM      2  O   UNL     1       5.128   3.718  16.500  0.00  0.00    +0.000 OA
ENDROOT
BRANCH   1   4
ATOM      3  C   UNL     1       6.910   5.743  18.947  0.00  0.00    +0.000 C 
ATOM      4  C   UNL     1       6.010   5.590  17.708  0.00  0.00    +0.000 C 
BRANCH   4   5
ATOM      5  O   UNL     1       5.286   6.862  17.556  0.00  0.00    +0.000 OA
ATOM      6  H   UNL     1       5.222   7.214  18.470  0.00  0.00    +0.000 HD
ENDBRANCH   4   5
BRANCH   4   7
ATOM      7  P   UNL     1       6.908   5.377  16.128  0.00  0.00    +0.000 P 
ATOM      8  O   UNL     1       7.668   6.697  16.322  0.00  0.00    +0.000 OA
BRANCH   7   9
ATOM      9  O   UNL     1       7.872   4.220  16.767  0.00  0.00    +0.000 OA
ATOM     10  H   UNL     1       8.656   4.078  16.192  0.00  0.00    +0.000 HD
ENDBRANCH   7   9
BRANCH   7  11
ATOM     11  O   UNL     1       7.757   5.176  14.634  0.00  0.00    +0.000 OA
ATOM     12  H   UNL     1       7.062   5.095  13.948  0.00  0.00    +0.000 HD
ENDBRANCH   7  11
ENDBRANCH   4   7
ENDBRANCH   1   4
BRANCH   1  13
ATOM     13  O   UNL     1       5.904   3.422  18.877  0.00  0.00    +0.000 OA
ATOM     14  H   UNL     1       6.439   2.857  18.273  0.00  0.00    +0.000 HD
ENDBRANCH   1  13
BRANCH   1  15
ATOM     15  O   UNL     1       3.691   2.921  18.126  0.00  0.00    +0.000 OA
BRANCH  15  16
ATOM     16  C   UNL     1       2.827   2.962  19.189  0.00  0.00    +0.000 A 
ATOM     17  C   UNL     1       3.335   2.565  20.424  0.00  0.00    +0.000 A 
ATOM     18  C   UNL     1       2.524   2.569  21.551  0.00  0.00    +0.000 A 
ATOM     19  C   UNL     1       1.198   2.996  21.447  0.00  0.00    +0.000 A 
ATOM     20  C   UNL     1       0.694   3.412  20.220  0.00  0.00    +0.000 A 
ATOM     21  C   UNL     1       1.505   3.397  19.082  0.00  0.00    +0.000 A 
ENDBRANCH  15  16
ENDBRANCH   1  15
TORSDOF 8
ENDMDL
MODEL 4
REMARK VINA RESULT:      -6.7      1.784      2.590
REMARK  Name = 
REMARK  9 active torsions:
REMARK  status: ('A' for Active; 'I' for Inactive)
REMARK    1  A    between atoms: C_1  and  C_2
REMARK    2  A    between atoms: C_2  and  O_3
REMARK    3  A    between atoms: C_2  and  P_4
REMARK    4  A    between atoms: C_2  and  P_8
REMARK    5  A    between atoms: P_4  and  O_6
REMARK    6  A    between atoms: P_4  and  O_7
REMARK    7  A    between atoms: P_8  and  O_10
REMARK    8  A    between atoms: P_8  and  O_11
REMARK    9  A    between atoms: O_11  and  C_12
REMARK                            x       y       z     vdW  Elec       q    Type
REMARK                         _______ _______ _______ _____ _____    ______ ____
ROOT
ATOM      1  P   UNL     1       4.800   4.240  17.949  0.00  0.00    +0.000 P 
ATOM      2  O   UNL     1       5.074   3.755  16.514  0.00  0.00    +0.000 OA
ENDROOT
BRANCH   1   4
ATOM      3  C   UNL     1       6.905   5.758  18.960  0.00  0.00    +0.000 C 
ATOM      4  C   UNL     1       5.999   5.604  17.724  0.00  0.00    +0.000 C 
BRANCH   4   5
ATOM      5  O   UNL     1       5.283   6.880  17.569  0.00  0.00    +0.000 OA
ATOM      6  H   UNL     1       5.217   7.003  16.597  0.00  0.00    +0.000 HD
ENDBRANCH   4   5
BRANCH   4   7
ATOM      7  P   UNL     1       6.891   5.379  16.142  0.00  0.00    +0.000 P 
ATOM      8  O   UNL     1       7.655   6.698  16.324  0.00  0.00    +0.000 OA
BRANCH   7   9
ATOM      9  O   UNL     1       7.854   4.224  16.785  0.00  0.00    +0.000 OA
ATOM     10  H   UNL     1       8.317   3.734  16.070  0.00  0.00    +0.000 HD
ENDBRANCH   7   9
BRANCH   7  11
ATOM     11  O   UNL     1       7.734   5.166  14.646  0.00  0.00    +0.000 OA
ATOM     12  H   UNL     1       7.401   5.874  14.056  0.00  0.00    +0.000 HD
ENDBRANCH   7  11
ENDBRANCH   4   7
ENDBRANCH   1   4
BRANCH   1  13
ATOM     13  O   UNL     1       5.899   3.425  18.870  0.00  0.00    +0.000 OA
ATOM     14  H   UNL     1       6.573   3.070  18.244  0.00  0.00    +0.000 HD
ENDBRANCH   1  13
BRANCH   1  15
ATOM     15  O   UNL     1       3.666   2.951  18.162  0.00  0.00    +0.000 OA
BRANCH  15  16
ATOM     16  C   UNL     1       2.888   2.940  19.291  0.00  0.00    +0.000 A 
ATOM     17  C   UNL     1       1.561   3.336  19.140  0.00  0.00    +0.000 A 
ATOM     18  C   UNL     1       0.707   3.362  20.234  0.00  0.00    +0.000 A 
ATOM     19  C   UNL     1       1.178   2.967  21.489  0.00  0.00    +0.000 A 
ATOM     20  C   UNL     1       2.497   2.553  21.638  0.00  0.00    +0.000 A 
ATOM     21  C   UNL     1       3.361   2.537  20.540  0.00  0.00    +0.000 A 
ENDBRANCH  15  16
ENDBRANCH   1  15
TORSDOF 8
ENDMDL
MODEL 5
REMARK VINA RESULT:      -6.7      1.087      1.165
REMARK  Name = 
REMARK  9 active torsions:
REMARK  status: ('A' for Active; 'I' for Inactive)
REMARK    1  A    between atoms: C_1  and  C_2
REMARK    2  A    between atoms: C_2  and  O_3
REMARK    3  A    between atoms: C_2  and  P_4
REMARK    4  A    between atoms: C_2  and  P_8
REMARK    5  A    between atoms: P_4  and  O_6
REMARK    6  A    between atoms: P_4  and  O_7
REMARK    7  A    between atoms: P_8  and  O_10
REMARK    8  A    between atoms: P_8  and  O_11
REMARK    9  A    between atoms: O_11  and  C_12
REMARK                            x       y       z     vdW  Elec       q    Type
REMARK                         _______ _______ _______ _____ _____    ______ ____
ROOT
ATOM      1  P   UNL     1       4.999   4.261  17.582  0.00  0.00    +0.000 P 
ATOM      2  O   UNL     1       4.017   5.232  16.900  0.00  0.00    +0.000 OA
ENDROOT
BRANCH   1   4
ATOM      3  C   UNL     1       5.782   6.868  16.989  0.00  0.00    +0.000 C 
ATOM      4  C   UNL     1       6.336   5.503  17.438  0.00  0.00    +0.000 C 
BRANCH   4   5
ATOM      5  O   UNL     1       7.300   5.083  16.408  0.00  0.00    +0.000 OA
ATOM      6  H   UNL     1       7.062   5.621  15.622  0.00  0.00    +0.000 HD
ENDBRANCH   4   5
BRANCH   4   7
ATOM      7  P   UNL     1       7.305   5.540  18.989  0.00  0.00    +0.000 P 
ATOM      8  O   UNL     1       6.191   4.819  19.763  0.00  0.00    +0.000 OA
BRANCH   7   9
ATOM      9  O   UNL     1       8.305   4.359  18.460  0.00  0.00    +0.000 OA
ATOM     10  H   UNL     1       8.571   4.534  17.530  0.00  0.00    +0.000 HD
ENDBRANCH   7   9
BRANCH   7  11
ATOM     11  O   UNL     1       8.221   5.576  20.457  0.00  0.00    +0.000 OA
ATOM     12  H   UNL     1       8.567   6.490  20.527  0.00  0.00    +0.000 HD
ENDBRANCH   7  11
ENDBRANCH   4   7
ENDBRANCH   1   4
BRANCH   1  13
ATOM     13  O   UNL     1       5.657   3.407  16.334  0.00  0.00    +0.000 OA
ATOM     14  H   UNL     1       6.067   2.605  16.735  0.00  0.00    +0.000 HD
ENDBRANCH   1  13
BRANCH   1  15
ATOM     15  O   UNL     1       3.736   3.088  17.720  0.00  0.00    +0.000 OA
BRANCH  15  16
ATOM     16  C   UNL     1       2.984   3.063  18.866  0.00  0.00    +0.000 A 
ATOM     17  C   UNL     1       1.642   3.414  18.742  0.00  0.00    +0.000 A 
ATOM     18  C   UNL     1       0.812   3.424  19.855  0.00  0.00    +0.000 A 
ATOM     19  C   UNL     1       1.324   3.056  21.102  0.00  0.00    +0.000 A 
ATOM     20  C   UNL     1       2.659   2.685  21.224  0.00  0.00    +0.000 A 
ATOM     21  C   UNL     1       3.498   2.687  20.107  0.00  0.00    +0.000 A 
ENDBRANCH  15  16
ENDBRANCH   1  15
TORSDOF 8
ENDMDL
MODEL 6
REMARK VINA RESULT:      -6.5      1.217      1.517
REMARK  Name = 
REMARK  9 active torsions:
REMARK  status: ('A' for Active; 'I' for Inactive)
REMARK    1  A    between atoms: C_1  and  C_2
REMARK    2  A    between atoms: C_2  and  O_3
REMARK    3  A    between atoms: C_2  and  P_4
REMARK    4  A    between atoms: C_2  and  P_8
REMARK    5  A    between atoms: P_4  and  O_6
REMARK    6  A    between atoms: P_4  and  O_7
REMARK    7  A    between atoms: P_8  and  O_10
REMARK    8  A    between atoms: P_8  and  O_11
REMARK    9  A    between atoms: O_11  and  C_12
REMARK                            x       y       z     vdW  Elec       q    Type
REMARK                         _______ _______ _______ _____ _____    ______ ____
ROOT
ATOM      1  P   UNL     1       5.268   4.227  17.445  0.00  0.00    +0.000 P 
ATOM      2  O   UNL     1       4.533   5.433  16.834  0.00  0.00    +0.000 OA
ENDROOT
BRANCH   1   4
ATOM      3  C   UNL     1       6.685   6.486  16.640  0.00  0.00    +0.000 C 
ATOM      4  C   UNL     1       6.845   5.155  17.397  0.00  0.00    +0.000 C 
BRANCH   4   5
ATOM      5  O   UNL     1       7.861   4.378  16.669  0.00  0.00    +0.000 OA
ATOM      6  H   UNL     1       7.584   4.440  15.729  0.00  0.00    +0.000 HD
ENDBRANCH   4   5
BRANCH   4   7
ATOM      7  P   UNL     1       7.512   5.313  19.094  0.00  0.00    +0.000 P 
ATOM      8  O   UNL     1       8.052   6.722  18.807  0.00  0.00    +0.000 OA
BRANCH   7   9
ATOM      9  O   UNL     1       6.018   5.536  19.721  0.00  0.00    +0.000 OA
ATOM     10  H   UNL     1       5.362   4.991  19.233  0.00  0.00    +0.000 HD
ENDBRANCH   7   9
BRANCH   7  11
ATOM     11  O   UNL     1       8.144   5.462  20.698  0.00  0.00    +0.000 OA
ATOM     12  H   UNL     1       8.958   4.917  20.709  0.00  0.00    +0.000 HD
ENDBRANCH   7  11
ENDBRANCH   4   7
ENDBRANCH   1   4
BRANCH   1  13
ATOM     13  O   UNL     1       5.749   3.341  16.140  0.00  0.00    +0.000 OA
ATOM     14  H   UNL     1       6.691   3.101  16.302  0.00  0.00    +0.000 HD
ENDBRANCH   1  13
BRANCH   1  15
ATOM     15  O   UNL     1       3.778   3.350  17.492  0.00  0.00    +0.000 OA
BRANCH  15  16
ATOM     16  C   UNL     1       3.030   3.386  18.640  0.00  0.00    +0.000 A 
ATOM     17  C   UNL     1       3.579   2.774  19.764  0.00  0.00    +0.000 A 
ATOM     18  C   UNL     1       2.884   2.758  20.966  0.00  0.00    +0.000 A 
ATOM     19  C   UNL     1       1.636   3.380  21.051  0.00  0.00    +0.000 A 
ATOM     20  C   UNL     1       1.094   4.009  19.935  0.00  0.00    +0.000 A 
ATOM     21  C   UNL     1       1.788   4.016  18.722  0.00  0.00    +0.000 A 
ENDBRANCH  15  16
ENDBRANCH   1  15
TORSDOF 8
ENDMDL
MODEL 7
REMARK VINA RESULT:      -6.5      1.696      3.122
REMARK  Name = 
REMARK  9 active torsions:
REMARK  status: ('A' for Active; 'I' for Inactive)
REMARK    1  A    between atoms: C_1  and  C_2
REMARK    2  A    between atoms: C_2  and  O_3
REMARK    3  A    between atoms: C_2  and  P_4
REMARK    4  A    between atoms: C_2  and  P_8
REMARK    5  A    between atoms: P_4  and  O_6
REMARK    6  A    between atoms: P_4  and  O_7
REMARK    7  A    between atoms: P_8  and  O_10
REMARK    8  A    between atoms: P_8  and  O_11
REMARK    9  A    between atoms: O_11  and  C_12
REMARK                            x       y       z     vdW  Elec       q    Type
REMARK                         _______ _______ _______ _____ _____    ______ ____
ROOT
ATOM      1  P   UNL     1       5.144   5.548  17.553  0.00  0.00    +0.000 P 
ATOM      2  O   UNL     1       5.764   5.511  18.961  0.00  0.00    +0.000 OA
ENDROOT
BRANCH   1   4
ATOM      3  C   UNL     1       7.737   4.567  17.820  0.00  0.00    +0.000 C 
ATOM      4  C   UNL     1       6.792   5.248  16.813  0.00  0.00    +0.000 C 
BRANCH   4   5
ATOM      5  O   UNL     1       7.418   6.528  16.451  0.00  0.00    +0.000 OA
ATOM      6  H   UNL     1       6.753   7.204  16.705  0.00  0.00    +0.000 HD
ENDBRANCH   4   5
BRANCH   4   7
ATOM      7  P   UNL     1       6.595   4.362  15.224  0.00  0.00    +0.000 P 
ATOM      8  O   UNL     1       5.219   4.999  14.980  0.00  0.00    +0.000 OA
BRANCH   7   9
ATOM      9  O   UNL     1       7.670   5.345  14.479  0.00  0.00    +0.000 OA
ATOM     10  H   UNL     1       7.292   6.248  14.385  0.00  0.00    +0.000 HD
ENDBRANCH   7   9
BRANCH   7  11
ATOM     11  O   UNL     1       6.409   3.524  13.722  0.00  0.00    +0.000 OA
ATOM     12  H   UNL     1       5.517   3.767  13.397  0.00  0.00    +0.000 HD
ENDBRANCH   7  11
ENDBRANCH   4   7
ENDBRANCH   1   4
BRANCH   1  13
ATOM     13  O   UNL     1       5.235   7.134  17.111  0.00  0.00    +0.000 OA
ATOM     14  H   UNL     1       6.194   7.352  17.060  0.00  0.00    +0.000 HD
ENDBRANCH   1  13
BRANCH   1  15
ATOM     15  O   UNL     1       3.587   5.831  18.251  0.00  0.00    +0.000 OA
BRANCH  15  16
ATOM     16  C   UNL     1       2.782   4.754  18.520  0.00  0.00    +0.000 A 
ATOM     17  C   UNL     1       2.922   3.646  17.687  0.00  0.00    +0.000 A 
ATOM     18  C   UNL     1       2.139   2.516  17.885  0.00  0.00    +0.000 A 
ATOM     19  C   UNL     1       1.224   2.485  18.940  0.00  0.00    +0.000 A 
ATOM     20  C   UNL     1       1.097   3.583  19.783  0.00  0.00    +0.000 A 
ATOM     21  C   UNL     1       1.875   4.724  19.579  0.00  0.00    +0.000 A 
ENDBRANCH  15  16
ENDBRANCH   1  15
TORSDOF 8
ENDMDL
MODEL 8
REMARK VINA RESULT:      -6.5      1.677      3.213
REMARK  Name = 
REMARK  9 active torsions:
REMARK  status: ('A' for Active; 'I' for Inactive)
REMARK    1  A    between atoms: C_1  and  C_2
REMARK    2  A    between atoms: C_2  and  O_3
REMARK    3  A    between atoms: C_2  and  P_4
REMARK    4  A    between atoms: C_2  and  P_8
REMARK    5  A    between atoms: P_4  and  O_6
REMARK    6  A    between atoms: P_4  and  O_7
REMARK    7  A    between atoms: P_8  and  O_10
REMARK    8  A    between atoms: P_8  and  O_11
REMARK    9  A    between atoms: O_11  and  C_12
REMARK                            x       y       z     vdW  Elec       q    Type
REMARK                         _______ _______ _______ _____ _____    ______ ____
ROOT
ATOM      1  P   UNL     1       5.145   5.600  17.556  0.00  0.00    +0.000 P 
ATOM      2  O   UNL     1       5.775   5.638  18.960  0.00  0.00    +0.000 OA
ENDROOT
BRANCH   1   4
ATOM      3  C   UNL     1       7.716   4.564  17.836  0.00  0.00    +0.000 C 
ATOM      4  C   UNL     1       6.787   5.256  16.822  0.00  0.00    +0.000 C 
BRANCH   4   5
ATOM      5  O   UNL     1       7.442   6.519  16.448  0.00  0.00    +0.000 OA
ATOM      6  H   UNL     1       6.749   7.201  16.585  0.00  0.00    +0.000 HD
ENDBRANCH   4   5
BRANCH   4   7
ATOM      7  P   UNL     1       6.573   4.360  15.242  0.00  0.00    +0.000 P 
ATOM      8  O   UNL     1       5.188   4.984  15.014  0.00  0.00    +0.000 OA
BRANCH   7   9
ATOM      9  O   UNL     1       7.628   5.346  14.474  0.00  0.00    +0.000 OA
ATOM     10  H   UNL     1       7.146   6.084  14.041  0.00  0.00    +0.000 HD
ENDBRANCH   7   9
BRANCH   7  11
ATOM     11  O   UNL     1       6.370   3.511  13.747  0.00  0.00    +0.000 OA
ATOM     12  H   UNL     1       5.476   3.755  13.428  0.00  0.00    +0.000 HD
ENDBRANCH   7  11
ENDBRANCH   4   7
ENDBRANCH   1   4
BRANCH   1  13
ATOM     13  O   UNL     1       5.236   7.161  17.029  0.00  0.00    +0.000 OA
ATOM     14  H   UNL     1       4.985   7.145  16.077  0.00  0.00    +0.000 HD
ENDBRANCH   1  13
BRANCH   1  15
ATOM     15  O   UNL     1       3.594   5.925  18.249  0.00  0.00    +0.000 OA
BRANCH  15  16
ATOM     16  C   UNL     1       2.772   4.868  18.544  0.00  0.00    +0.000 A 
ATOM     17  C   UNL     1       1.973   4.994  19.678  0.00  0.00    +0.000 A 
ATOM     18  C   UNL     1       1.119   3.966  20.053  0.00  0.00    +0.000 A 
ATOM     19  C   UNL     1       1.045   2.809  19.273  0.00  0.00    +0.000 A 
ATOM     20  C   UNL     1       1.826   2.690  18.129  0.00  0.00    +0.000 A 
ATOM     21  C   UNL     1       2.695   3.718  17.757  0.00  0.00    +0.000 A 
ENDBRANCH  15  16
ENDBRANCH   1  15
TORSDOF 8
ENDMDL
MODEL 9
REMARK VINA RESULT:      -6.5      1.543      3.070
REMARK  Name = 
REMARK  9 active torsions:
REMARK  status: ('A' for Active; 'I' for Inactive)
REMARK    1  A    between atoms: C_1  and  C_2
REMARK    2  A    between atoms: C_2  and  O_3
REMARK    3  A    between atoms: C_2  and  P_4
REMARK    4  A    between atoms: C_2  and  P_8
REMARK    5  A    between atoms: P_4  and  O_6
REMARK    6  A    between atoms: P_4  and  O_7
REMARK    7  A    between atoms: P_8  and  O_10
REMARK    8  A    between atoms: P_8  and  O_11
REMARK    9  A    between atoms: O_11  and  C_12
REMARK                            x       y       z     vdW  Elec       q    Type
REMARK                         _______ _______ _______ _____ _____    ______ ____
ROOT
ATOM      1  P   UNL     1       5.284   4.537  18.161  0.00  0.00    +0.000 P 
ATOM      2  O   UNL     1       6.721   4.424  18.700  0.00  0.00    +0.000 OA
ENDROOT
BRANCH   1   4
ATOM      3  C   UNL     1       7.096   6.425  17.205  0.00  0.00    +0.000 C 
ATOM      4  C   UNL     1       5.877   5.584  16.781  0.00  0.00    +0.000 C 
BRANCH   4   5
ATOM      5  O   UNL     1       4.827   6.537  16.389  0.00  0.00    +0.000 OA
ATOM      6  H   UNL     1       5.243   7.418  16.509  0.00  0.00    +0.000 HD
ENDBRANCH   4   5
BRANCH   4   7
ATOM      7  P   UNL     1       6.139   4.548  15.297  0.00  0.00    +0.000 P 
ATOM      8  O   UNL     1       7.657   4.780  15.338  0.00  0.00    +0.000 OA
BRANCH   7   9
ATOM      9  O   UNL     1       5.886   3.171  16.144  0.00  0.00    +0.000 OA
ATOM     10  H   UNL     1       5.206   2.620  15.697  0.00  0.00    +0.000 HD
ENDBRANCH   7   9
BRANCH   7  11
ATOM     11  O   UNL     1       6.388   3.567  13.892  0.00  0.00    +0.000 OA
ATOM     12  H   UNL     1       7.337   3.326  13.907  0.00  0.00    +0.000 HD
ENDBRANCH   7  11
ENDBRANCH   4   7
ENDBRANCH   1   4
BRANCH   1  13
ATOM     13  O   UNL     1       4.673   5.872  18.912  0.00  0.00    +0.000 OA
ATOM     14  H   UNL     1       5.291   6.080  19.651  0.00  0.00    +0.000 HD
ENDBRANCH   1  13
BRANCH   1  15
ATOM     15  O   UNL     1       4.722   3.547  19.463  0.00  0.00    +0.000 OA
BRANCH  15  16
ATOM     16  C   UNL     1       3.375   3.334  19.592  0.00  0.00    +0.000 A 
ATOM     17  C   UNL     1       2.681   2.995  18.433  0.00  0.00    +0.000 A 
ATOM     18  C   UNL     1       1.311   2.770  18.473  0.00  0.00    +0.000 A 
ATOM     19  C   UNL     1       0.632   2.863  19.691  0.00  0.00    +0.000 A 
ATOM     20  C   UNL     1       1.325   3.181  20.852  0.00  0.00    +0.000 A 
ATOM     21  C   UNL     1       2.701   3.419  20.811  0.00  0.00    +0.000 A 
ENDBRANCH  15  16
ENDBRANCH   1  15
TORSDOF 8
ENDMDL
