MODEL 1
REMARK VINA RESULT:      -8.6      0.000      0.000
REMARK  Name = 
REMARK  6 active torsions:
REMARK  status: ('A' for Active; 'I' for Inactive)
REMARK    1  A    between atoms: C_1  and  O_2
REMARK    2  A    between atoms: O_2  and  C_3
REMARK    3  A    between atoms: C_6  and  C_7
REMARK    4  A    between atoms: C_9  and  N_10
REMARK    5  A    between atoms: C_11  and  C_13
REMARK    6  A    between atoms: C_18  and  O_19
REMARK                            x       y       z     vdW  Elec       q    Type
REMARK                         _______ _______ _______ _____ _____    ______ ____
ROOT
ATOM      1  C   UNL     1       4.015   4.304  19.216  0.00  0.00    +0.000 A 
ATOM      2  C   UNL     1       3.338   5.400  19.622  0.00  0.00    +0.000 A 
ATOM      3  C   UNL     1       2.325   5.335  20.670  0.00  0.00    +0.000 A 
ATOM      4  C   UNL     1       2.078   4.136  21.222  0.00  0.00    +0.000 A 
ATOM      5  N   UNL     1       2.754   3.009  20.834  0.00  0.00    +0.000 N 
ATOM      6  C   UNL     1       3.720   2.984  19.864  0.00  0.00    +0.000 A 
ATOM      7  O   UNL     1       4.286   1.942  19.547  0.00  0.00    +0.000 OA
ATOM      8  H   UNL     1       2.534   2.121  21.273  0.00  0.00    +0.000 HD
ENDROOT
BRANCH   1  12
ATOM      9  C   UNL     1       6.750   4.687  15.951  0.00  0.00    +0.000 A 
ATOM     10  C   UNL     1       7.205   4.832  17.265  0.00  0.00    +0.000 A 
ATOM     11  C   UNL     1       6.327   4.678  18.343  0.00  0.00    +0.000 A 
ATOM     12  C   UNL     1       4.975   4.401  18.110  0.00  0.00    +0.000 A 
ATOM     13  C   UNL     1       4.524   4.255  16.793  0.00  0.00    +0.000 A 
ATOM     14  C   UNL     1       5.406   4.402  15.719  0.00  0.00    +0.000 A 
BRANCH   9  16
ATOM     15  C   UNL     1       7.208   4.818  13.639  0.00  0.00    +0.000 C 
ATOM     16  O   UNL     1       7.691   4.885  14.978  0.00  0.00    +0.000 OA
ENDBRANCH   9  16
ENDBRANCH   1  12
BRANCH   3  17
ATOM     17  N   UNL     1       1.672   6.505  21.008  0.00  0.00    +0.000 N 
ATOM     18  C   UNL     1       1.666   7.689  20.285  0.00  0.00    +0.000 C 
ATOM     19  O   UNL     1       2.234   7.853  19.206  0.00  0.00    +0.000 OA
ATOM     20  H   UNL     1       1.150   6.524  21.882  0.00  0.00    +0.000 HD
BRANCH  18  21
ATOM     21  C   UNL     1       0.937   8.860  20.862  0.00  0.00    +0.000 A 
ATOM     22  C   UNL     1       0.691   8.821  22.249  0.00  0.00    +0.000 A 
ATOM     23  C   UNL     1      -0.043   9.824  22.880  0.00  0.00    +0.000 A 
ATOM     24  C   UNL     1      -0.535  10.889  22.134  0.00  0.00    +0.000 A 
ATOM     25  C   UNL     1      -0.281  10.959  20.763  0.00  0.00    +0.000 A 
ATOM     26  C   UNL     1       0.453   9.949  20.126  0.00  0.00    +0.000 A 
BRANCH  26  27
ATOM     27  O   UNL     1       0.674  10.040  18.777  0.00  0.00    +0.000 OA
ATOM     28  H   UNL     1       1.524   9.606  18.575  0.00  0.00    +0.000 HD
ENDBRANCH  26  27
ENDBRANCH  18  21
ENDBRANCH   3  17
TORSDOF 5
ENDMDL
MODEL 2
REMARK VINA RESULT:      -8.2      1.934      8.115
REMARK  Name = 
REMARK  6 active torsions:
REMARK  status: ('A' for Active; 'I' for Inactive)
REMARK    1  A    between atoms: C_1  and  O_2
REMARK    2  A    between atoms: O_2  and  C_3
REMARK    3  A    between atoms: C_6  and  C_7
REMARK    4  A    between atoms: C_9  and  N_10
REMARK    5  A    between atoms: C_11  and  C_13
REMARK    6  A    between atoms: C_18  and  O_19
REMARK                            x       y       z     vdW  Elec       q    Type
REMARK                         _______ _______ _______ _____ _____    ______ ____
ROOT
ATOM      1  C   UNL     1       2.817   5.741  18.990  0.00  0.00    +0.000 A 
ATOM      2  C   UNL     1       3.372   5.485  17.785  0.00  0.00    +0.000 A 
ATOM      3  C   UNL     1       4.011   4.208  17.488  0.00  0.00    +0.000 A 
ATOM      4  C   UNL     1       4.038   3.284  18.463  0.00  0.00    +0.000 A 
ATOM      5  N   UNL     1       3.478   3.515  19.692  0.00  0.00    +0.000 N 
ATOM      6  C   UNL     1       2.857   4.681  20.051  0.00  0.00    +0.000 A 
ATOM      7  O   UNL     1       2.381   4.839  21.172  0.00  0.00    +0.000 OA
ATOM      8  H   UNL     1       3.523   2.793  20.403  0.00  0.00    +0.000 HD
ENDROOT
BRANCH   1  12
ATOM      9  C   UNL     1       1.062   9.571  19.723  0.00  0.00    +0.000 A 
ATOM     10  C   UNL     1       1.132   8.627  20.750  0.00  0.00    +0.000 A 
ATOM     11  C   UNL     1       1.732   7.381  20.532  0.00  0.00    +0.000 A 
ATOM     12  C   UNL     1       2.246   7.064  19.270  0.00  0.00    +0.000 A 
ATOM     13  C   UNL     1       2.174   8.013  18.244  0.00  0.00    +0.000 A 
ATOM     14  C   UNL     1       1.582   9.259  18.468  0.00  0.00    +0.000 A 
BRANCH   9  16
ATOM     15  C   UNL     1       0.174  11.616  18.948  0.00  0.00    +0.000 C 
ATOM     16  O   UNL     1       0.432  10.743  20.043  0.00  0.00    +0.000 OA
ENDBRANCH   9  16
ENDBRANCH   1  12
BRANCH   3  17
ATOM     17  N   UNL     1       4.566   4.042  16.234  0.00  0.00    +0.000 N 
ATOM     18  C   UNL     1       5.644   4.738  15.706  0.00  0.00    +0.000 C 
ATOM     19  O   UNL     1       6.284   5.599  16.309  0.00  0.00    +0.000 OA
ATOM     20  H   UNL     1       4.144   3.354  15.612  0.00  0.00    +0.000 HD
BRANCH  18  21
ATOM     21  C   UNL     1       6.052   4.439  14.299  0.00  0.00    +0.000 A 
ATOM     22  C   UNL     1       5.178   3.621  13.556  0.00  0.00    +0.000 A 
ATOM     23  C   UNL     1       5.492   3.220  12.259  0.00  0.00    +0.000 A 
ATOM     24  C   UNL     1       6.685   3.640  11.680  0.00  0.00    +0.000 A 
ATOM     25  C   UNL     1       7.553   4.472  12.389  0.00  0.00    +0.000 A 
ATOM     26  C   UNL     1       7.239   4.872  13.695  0.00  0.00    +0.000 A 
BRANCH  26  27
ATOM     27  O   UNL     1       8.118   5.678  14.371  0.00  0.00    +0.000 OA
ATOM     28  H   UNL     1       8.656   6.162  13.718  0.00  0.00    +0.000 HD
ENDBRANCH  26  27
ENDBRANCH  18  21
ENDBRANCH   3  17
TORSDOF 5
ENDMDL
MODEL 3
REMARK VINA RESULT:      -8.1      1.919      8.190
REMARK  Name = 
REMARK  6 active torsions:
REMARK  status: ('A' for Active; 'I' for Inactive)
REMARK    1  A    between atoms: C_1  and  O_2
REMARK    2  A    between atoms: O_2  and  C_3
REMARK    3  A    between atoms: C_6  and  C_7
REMARK    4  A    between atoms: C_9  and  N_10
REMARK    5  A    between atoms: C_11  and  C_13
REMARK    6  A    between atoms: C_18  and  O_19
REMARK                            x       y       z     vdW  Elec       q    Type
REMARK                         _______ _______ _______ _____ _____    ______ ____
ROOT
ATOM      1  C   UNL     1       2.831   5.718  18.938  0.00  0.00    +0.000 A 
ATOM      2  C   UNL     1       3.399   5.440  17.745  0.00  0.00    +0.000 A 
ATOM      3  C   UNL     1       4.093   4.181  17.497  0.00  0.00    +0.000 A 
ATOM      4  C   UNL     1       4.157   3.298  18.507  0.00  0.00    +0.000 A 
ATOM      5  N   UNL     1       3.584   3.551  19.725  0.00  0.00    +0.000 N 
ATOM      6  C   UNL     1       2.913   4.702  20.039  0.00  0.00    +0.000 A 
ATOM      7  O   UNL     1       2.428   4.881  21.152  0.00  0.00    +0.000 OA
ATOM      8  H   UNL     1       3.659   2.859  20.463  0.00  0.00    +0.000 HD
ENDROOT
BRANCH   1  12
ATOM      9  C   UNL     1       1.095   9.554  19.686  0.00  0.00    +0.000 A 
ATOM     10  C   UNL     1       1.556   9.233  18.406  0.00  0.00    +0.000 A 
ATOM     11  C   UNL     1       2.097   7.970  18.141  0.00  0.00    +0.000 A 
ATOM     12  C   UNL     1       2.203   7.024  19.167  0.00  0.00    +0.000 A 
ATOM     13  C   UNL     1       1.739   7.351  20.447  0.00  0.00    +0.000 A 
ATOM     14  C   UNL     1       1.192   8.610  20.706  0.00  0.00    +0.000 A 
BRANCH   9  16
ATOM     15  C   UNL     1      -0.320  11.003  20.898  0.00  0.00    +0.000 C 
ATOM     16  O   UNL     1       0.610  10.825  19.835  0.00  0.00    +0.000 OA
ENDBRANCH   9  16
ENDBRANCH   1  12
BRANCH   3  17
ATOM     17  N   UNL     1       4.659   3.992  16.251  0.00  0.00    +0.000 N 
ATOM     18  C   UNL     1       5.523   4.855  15.593  0.00  0.00    +0.000 C 
ATOM     19  O   UNL     1       5.933   5.921  16.054  0.00  0.00    +0.000 OA
ATOM     20  H   UNL     1       4.415   3.144  15.741  0.00  0.00    +0.000 HD
BRANCH  18  21
ATOM     21  C   UNL     1       5.976   4.481  14.218  0.00  0.00    +0.000 A 
ATOM     22  C   UNL     1       5.108   3.657  13.476  0.00  0.00    +0.000 A 
ATOM     23  C   UNL     1       5.461   3.189  12.212  0.00  0.00    +0.000 A 
ATOM     24  C   UNL     1       6.688   3.547  11.665  0.00  0.00    +0.000 A 
ATOM     25  C   UNL     1       7.553   4.384  12.373  0.00  0.00    +0.000 A 
ATOM     26  C   UNL     1       7.200   4.852  13.646  0.00  0.00    +0.000 A 
BRANCH  26  27
ATOM     27  O   UNL     1       8.076   5.661  14.321  0.00  0.00    +0.000 OA
ATOM     28  H   UNL     1       7.596   6.459  14.611  0.00  0.00    +0.000 HD
ENDBRANCH  26  27
ENDBRANCH  18  21
ENDBRANCH   3  17
TORSDOF 5
ENDMDL
MODEL 4
REMARK VINA RESULT:      -8.0      1.475      1.884
REMARK  Name = 
REMARK  6 active torsions:
REMARK  status: ('A' for Active; 'I' for Inactive)
REMARK    1  A    between atoms: C_1  and  O_2
REMARK    2  A    between atoms: O_2  and  C_3
REMARK    3  A    between atoms: C_6  and  C_7
REMARK    4  A    between atoms: C_9  and  N_10
REMARK    5  A    between atoms: C_11  and  C_13
REMARK    6  A    between atoms: C_18  and  O_19
REMARK                            x       y       z     vdW  Elec       q    Type
REMARK                         _______ _______ _______ _____ _____    ______ ____
ROOT
ATOM      1  C   UNL     1       3.836   5.403  18.924  0.00  0.00    +0.000 A 
ATOM      2  C   UNL     1       3.053   6.495  19.064  0.00  0.00    +0.000 A 
ATOM      3  C   UNL     1       1.984   6.553  20.054  0.00  0.00    +0.000 A 
ATOM      4  C   UNL     1       1.793   5.471  20.827  0.00  0.00    +0.000 A 
ATOM      5  N   UNL     1       2.576   4.353  20.710  0.00  0.00    +0.000 N 
ATOM      6  C   UNL     1       3.601   4.218  19.813  0.00  0.00    +0.000 A 
ATOM      7  O   UNL     1       4.264   3.187  19.743  0.00  0.00    +0.000 OA
ATOM      8  H   UNL     1       2.396   3.555  21.311  0.00  0.00    +0.000 HD
ENDROOT
BRANCH   1  12
ATOM      9  C   UNL     1       6.731   5.349  15.776  0.00  0.00    +0.000 A 
ATOM     10  C   UNL     1       7.044   5.939  17.004  0.00  0.00    +0.000 A 
ATOM     11  C   UNL     1       6.117   5.936  18.052  0.00  0.00    +0.000 A 
ATOM     12  C   UNL     1       4.855   5.360  17.868  0.00  0.00    +0.000 A 
ATOM     13  C   UNL     1       4.546   4.769  16.637  0.00  0.00    +0.000 A 
ATOM     14  C   UNL     1       5.478   4.767  15.596  0.00  0.00    +0.000 A 
BRANCH   9  16
ATOM     15  C   UNL     1       7.362   4.880  13.551  0.00  0.00    +0.000 C 
ATOM     16  O   UNL     1       7.703   5.435  14.817  0.00  0.00    +0.000 OA
ENDBRANCH   9  16
ENDBRANCH   1  12
BRANCH   3  17
ATOM     17  N   UNL     1       1.223   7.705  20.114  0.00  0.00    +0.000 N 
ATOM     18  C   UNL     1       1.189   8.621  21.155  0.00  0.00    +0.000 C 
ATOM     19  O   UNL     1       1.869   8.543  22.179  0.00  0.00    +0.000 OA
ATOM     20  H   UNL     1       0.606   7.911  19.330  0.00  0.00    +0.000 HD
BRANCH  18  21
ATOM     21  C   UNL     1       0.249   9.778  21.041  0.00  0.00    +0.000 A 
ATOM     22  C   UNL     1      -0.101  10.172  19.735  0.00  0.00    +0.000 A 
ATOM     23  C   UNL     1      -0.914  11.282  19.509  0.00  0.00    +0.000 A 
ATOM     24  C   UNL     1      -1.397  12.011  20.590  0.00  0.00    +0.000 A 
ATOM     25  C   UNL     1      -1.083  11.622  21.893  0.00  0.00    +0.000 A 
ATOM     26  C   UNL     1      -0.263  10.509  22.121  0.00  0.00    +0.000 A 
BRANCH  26  27
ATOM     27  O   UNL     1       0.038  10.160  23.412  0.00  0.00    +0.000 OA
ATOM     28  H   UNL     1      -0.061   9.194  23.500  0.00  0.00    +0.000 HD
ENDBRANCH  26  27
ENDBRANCH  18  21
ENDBRANCH   3  17
TORSDOF 5
ENDMDL
MODEL 5
REMARK VINA RESULT:      -7.9      1.105      1.762
REMARK  Name = 
REMARK  6 active torsions:
REMARK  status: ('A' for Active; 'I' for Inactive)
REMARK    1  A    between atoms: C_1  and  O_2
REMARK    2  A    between atoms: O_2  and  C_3
REMARK    3  A    between atoms: C_6  and  C_7
REMARK    4  A    between atoms: C_9  and  N_10
REMARK    5  A    between atoms: C_11  and  C_13
REMARK    6  A    between atoms: C_18  and  O_19
REMARK                            x       y       z     vdW  Elec       q    Type
REMARK                         _______ _______ _______ _____ _____    ______ ____
ROOT
ATOM      1  C   UNL     1       3.940   5.065  19.028  0.00  0.00    +0.000 A 
ATOM      2  C   UNL     1       3.194   6.131  19.389  0.00  0.00    +0.000 A 
ATOM      3  C   UNL     1       2.169   6.039  20.423  0.00  0.00    +0.000 A 
ATOM      4  C   UNL     1       1.982   4.844  21.008  0.00  0.00    +0.000 A 
ATOM      5  N   UNL     1       2.729   3.748  20.665  0.00  0.00    +0.000 N 
ATOM      6  C   UNL     1       3.711   3.750  19.711  0.00  0.00    +0.000 A 
ATOM      7  O   UNL     1       4.342   2.733  19.435  0.00  0.00    +0.000 OA
ATOM      8  H   UNL     1       2.553   2.862  21.128  0.00  0.00    +0.000 HD
ENDROOT
BRANCH   1  12
ATOM      9  C   UNL     1       6.846   5.329  15.901  0.00  0.00    +0.000 A 
ATOM     10  C   UNL     1       5.572   4.822  15.630  0.00  0.00    +0.000 A 
ATOM     11  C   UNL     1       4.602   4.759  16.637  0.00  0.00    +0.000 A 
ATOM     12  C   UNL     1       4.911   5.184  17.934  0.00  0.00    +0.000 A 
ATOM     13  C   UNL     1       6.188   5.693  18.200  0.00  0.00    +0.000 A 
ATOM     14  C   UNL     1       7.151   5.762  17.190  0.00  0.00    +0.000 A 
BRANCH   9  16
ATOM     15  C   UNL     1       7.216   4.754  13.642  0.00  0.00    +0.000 C 
ATOM     16  O   UNL     1       7.719   5.319  14.848  0.00  0.00    +0.000 OA
ENDBRANCH   9  16
ENDBRANCH   1  12
BRANCH   3  17
ATOM     17  N   UNL     1       1.444   7.178  20.715  0.00  0.00    +0.000 N 
ATOM     18  C   UNL     1       1.366   8.330  19.946  0.00  0.00    +0.000 C 
ATOM     19  O   UNL     1       1.924   8.486  18.860  0.00  0.00    +0.000 OA
ATOM     20  H   UNL     1       0.920   7.199  21.588  0.00  0.00    +0.000 HD
BRANCH  18  21
ATOM     21  C   UNL     1       0.564   9.475  20.476  0.00  0.00    +0.000 A 
ATOM     22  C   UNL     1      -0.296  10.113  19.560  0.00  0.00    +0.000 A 
ATOM     23  C   UNL     1      -1.037  11.235  19.926  0.00  0.00    +0.000 A 
ATOM     24  C   UNL     1      -0.937  11.732  21.221  0.00  0.00    +0.000 A 
ATOM     25  C   UNL     1      -0.110  11.099  22.152  0.00  0.00    +0.000 A 
ATOM     26  C   UNL     1       0.639   9.974  21.783  0.00  0.00    +0.000 A 
BRANCH  26  27
ATOM     27  O   UNL     1       1.451   9.383  22.715  0.00  0.00    +0.000 OA
ATOM     28  H   UNL     1       0.896   8.842  23.307  0.00  0.00    +0.000 HD
ENDBRANCH  26  27
ENDBRANCH  18  21
ENDBRANCH   3  17
TORSDOF 5
ENDMDL
MODEL 6
REMARK VINA RESULT:      -7.8      1.067      1.366
REMARK  Name = 
REMARK  6 active torsions:
REMARK  status: ('A' for Active; 'I' for Inactive)
REMARK    1  A    between atoms: C_1  and  O_2
REMARK    2  A    between atoms: O_2  and  C_3
REMARK    3  A    between atoms: C_6  and  C_7
REMARK    4  A    between atoms: C_9  and  N_10
REMARK    5  A    between atoms: C_11  and  C_13
REMARK    6  A    between atoms: C_18  and  O_19
REMARK                            x       y       z     vdW  Elec       q    Type
REMARK                         _______ _______ _______ _____ _____    ______ ____
ROOT
ATOM      1  C   UNL     1       3.975   4.830  19.032  0.00  0.00    +0.000 A 
ATOM      2  C   UNL     1       3.319   5.938  19.442  0.00  0.00    +0.000 A 
ATOM      3  C   UNL     1       2.277   5.882  20.461  0.00  0.00    +0.000 A 
ATOM      4  C   UNL     1       1.981   4.681  20.983  0.00  0.00    +0.000 A 
ATOM      5  N   UNL     1       2.634   3.542  20.591  0.00  0.00    +0.000 N 
ATOM      6  C   UNL     1       3.625   3.507  19.646  0.00  0.00    +0.000 A 
ATOM      7  O   UNL     1       4.170   2.455  19.324  0.00  0.00    +0.000 OA
ATOM      8  H   UNL     1       2.378   2.653  21.006  0.00  0.00    +0.000 HD
ENDROOT
BRANCH   1  12
ATOM      9  C   UNL     1       6.781   5.156  15.822  0.00  0.00    +0.000 A 
ATOM     10  C   UNL     1       7.056   5.757  17.054  0.00  0.00    +0.000 A 
ATOM     11  C   UNL     1       6.160   5.631  18.122  0.00  0.00    +0.000 A 
ATOM     12  C   UNL     1       4.967   4.920  17.954  0.00  0.00    +0.000 A 
ATOM     13  C   UNL     1       4.697   4.319  16.719  0.00  0.00    +0.000 A 
ATOM     14  C   UNL     1       5.597   4.439  15.658  0.00  0.00    +0.000 A 
BRANCH   9  16
ATOM     15  C   UNL     1       7.351   4.912  13.544  0.00  0.00    +0.000 C 
ATOM     16  O   UNL     1       7.715   5.366  14.844  0.00  0.00    +0.000 OA
ENDBRANCH   9  16
ENDBRANCH   1  12
BRANCH   3  17
ATOM     17  N   UNL     1       1.648   7.064  20.804  0.00  0.00    +0.000 N 
ATOM     18  C   UNL     1       1.476   8.177  19.994  0.00  0.00    +0.000 C 
ATOM     19  O   UNL     1       1.846   8.253  18.822  0.00  0.00    +0.000 OA
ATOM     20  H   UNL     1       1.282   7.152  21.751  0.00  0.00    +0.000 HD
BRANCH  18  21
ATOM     21  C   UNL     1       0.813   9.380  20.585  0.00  0.00    +0.000 A 
ATOM     22  C   UNL     1       1.260  10.632  20.119  0.00  0.00    +0.000 A 
ATOM     23  C   UNL     1       0.762  11.820  20.651  0.00  0.00    +0.000 A 
ATOM     24  C   UNL     1      -0.199  11.774  21.654  0.00  0.00    +0.000 A 
ATOM     25  C   UNL     1      -0.674  10.543  22.112  0.00  0.00    +0.000 A 
ATOM     26  C   UNL     1      -0.171   9.348  21.581  0.00  0.00    +0.000 A 
BRANCH  26  27
ATOM     27  O   UNL     1      -0.648   8.156  22.060  0.00  0.00    +0.000 OA
ATOM     28  H   UNL     1       0.096   7.529  22.119  0.00  0.00    +0.000 HD
ENDBRANCH  26  27
ENDBRANCH  18  21
ENDBRANCH   3  17
TORSDOF 5
ENDMDL
MODEL 7
REMARK VINA RESULT:      -7.7      1.383      1.765
REMARK  Name = 
REMARK  6 active torsions:
REMARK  status: ('A' for Active; 'I' for Inactive)
REMARK    1  A    between atoms: C_1  and  O_2
REMARK    2  A    between atoms: O_2  and  C_3
REMARK    3  A    between atoms: C_6  and  C_7
REMARK    4  A    between atoms: C_9  and  N_10
REMARK    5  A    between atoms: C_11  and  C_13
REMARK    6  A    between atoms: C_18  and  O_19
REMARK                            x       y       z     vdW  Elec       q    Type
REMARK                         _______ _______ _______ _____ _____    ______ ____
ROOT
ATOM      1  C   UNL     1       3.906   5.754  18.758  0.00  0.00    +0.000 A 
ATOM      2  C   UNL     1       3.171   6.887  18.783  0.00  0.00    +0.000 A 
ATOM      3  C   UNL     1       2.103   7.090  19.755  0.00  0.00    +0.000 A 
ATOM      4  C   UNL     1       1.864   6.101  20.632  0.00  0.00    +0.000 A 
ATOM      5  N   UNL     1       2.598   4.944  20.633  0.00  0.00    +0.000 N 
ATOM      6  C   UNL     1       3.618   4.676  19.760  0.00  0.00    +0.000 A 
ATOM      7  O   UNL     1       4.236   3.616  19.799  0.00  0.00    +0.000 OA
ATOM      8  H   UNL     1       2.383   4.220  21.310  0.00  0.00    +0.000 HD
ENDROOT
BRANCH   1  12
ATOM      9  C   UNL     1       6.796   5.247  15.646  0.00  0.00    +0.000 A 
ATOM     10  C   UNL     1       7.091   6.054  16.749  0.00  0.00    +0.000 A 
ATOM     11  C   UNL     1       6.166   6.203  17.789  0.00  0.00    +0.000 A 
ATOM     12  C   UNL     1       4.924   5.561  17.718  0.00  0.00    +0.000 A 
ATOM     13  C   UNL     1       4.634   4.753  16.612  0.00  0.00    +0.000 A 
ATOM     14  C   UNL     1       5.563   4.600  15.580  0.00  0.00    +0.000 A 
BRANCH   9  16
ATOM     15  C   UNL     1       7.301   4.888  13.368  0.00  0.00    +0.000 C 
ATOM     16  O   UNL     1       7.763   5.196  14.680  0.00  0.00    +0.000 OA
ENDBRANCH   9  16
ENDBRANCH   1  12
BRANCH   3  17
ATOM     17  N   UNL     1       1.393   8.274  19.694  0.00  0.00    +0.000 N 
ATOM     18  C   UNL     1       1.121   9.132  20.750  0.00  0.00    +0.000 C 
ATOM     19  O   UNL     1       1.507   8.962  21.907  0.00  0.00    +0.000 OA
ATOM     20  H   UNL     1       1.009   8.554  18.793  0.00  0.00    +0.000 HD
BRANCH  18  21
ATOM     21  C   UNL     1       0.283  10.339  20.476  0.00  0.00    +0.000 A 
ATOM     22  C   UNL     1      -0.499  10.813  21.547  0.00  0.00    +0.000 A 
ATOM     23  C   UNL     1      -1.372  11.888  21.384  0.00  0.00    +0.000 A 
ATOM     24  C   UNL     1      -1.468  12.513  20.146  0.00  0.00    +0.000 A 
ATOM     25  C   UNL     1      -0.683  12.075  19.077  0.00  0.00    +0.000 A 
ATOM     26  C   UNL     1       0.191  10.991  19.240  0.00  0.00    +0.000 A 
BRANCH  26  27
ATOM     27  O   UNL     1       0.939  10.576  18.169  0.00  0.00    +0.000 OA
ATOM     28  H   UNL     1       0.560  10.967  17.359  0.00  0.00    +0.000 HD
ENDBRANCH  26  27
ENDBRANCH  18  21
ENDBRANCH   3  17
TORSDOF 5
ENDMDL
MODEL 8
REMARK VINA RESULT:      -7.7      1.684      2.256
REMARK  Name = 
REMARK  6 active torsions:
REMARK  status: ('A' for Active; 'I' for Inactive)
REMARK    1  A    between atoms: C_1  and  O_2
REMARK    2  A    between atoms: O_2  and  C_3
REMARK    3  A    between atoms: C_6  and  C_7
REMARK    4  A    between atoms: C_9  and  N_10
REMARK    5  A    between atoms: C_11  and  C_13
REMARK    6  A    between atoms: C_18  and  O_19
REMARK                            x       y       z     vdW  Elec       q    Type
REMARK                         _______ _______ _______ _____ _____    ______ ____
ROOT
ATOM      1  C   UNL     1       3.936   5.932  18.633  0.00  0.00    +0.000 A 
ATOM      2  C   UNL     1       3.197   7.061  18.600  0.00  0.00    +0.000 A 
ATOM      3  C   UNL     1       2.131   7.312  19.564  0.00  0.00    +0.000 A 
ATOM      4  C   UNL     1       1.900   6.370  20.494  0.00  0.00    +0.000 A 
ATOM      5  N   UNL     1       2.639   5.219  20.554  0.00  0.00    +0.000 N 
ATOM      6  C   UNL     1       3.657   4.908  19.693  0.00  0.00    +0.000 A 
ATOM      7  O   UNL     1       4.280   3.854  19.786  0.00  0.00    +0.000 OA
ATOM      8  H   UNL     1       2.430   4.530  21.270  0.00  0.00    +0.000 HD
ENDROOT
BRANCH   1  12
ATOM      9  C   UNL     1       6.823   5.284  15.545  0.00  0.00    +0.000 A 
ATOM     10  C   UNL     1       7.163   6.038  16.671  0.00  0.00    +0.000 A 
ATOM     11  C   UNL     1       6.237   6.231  17.703  0.00  0.00    +0.000 A 
ATOM     12  C   UNL     1       4.952   5.687  17.601  0.00  0.00    +0.000 A 
ATOM     13  C   UNL     1       4.617   4.933  16.471  0.00  0.00    +0.000 A 
ATOM     14  C   UNL     1       5.546   4.735  15.446  0.00  0.00    +0.000 A 
BRANCH   9  16
ATOM     15  C   UNL     1       7.339   4.851  13.282  0.00  0.00    +0.000 C 
ATOM     16  O   UNL     1       7.797   5.183  14.589  0.00  0.00    +0.000 OA
ENDBRANCH   9  16
ENDBRANCH   1  12
BRANCH   3  17
ATOM     17  N   UNL     1       1.416   8.487  19.442  0.00  0.00    +0.000 N 
ATOM     18  C   UNL     1       0.999   9.315  20.476  0.00  0.00    +0.000 C 
ATOM     19  O   UNL     1       1.241   9.121  21.667  0.00  0.00    +0.000 OA
ATOM     20  H   UNL     1       1.143   8.786  18.507  0.00  0.00    +0.000 HD
BRANCH  18  21
ATOM     21  C   UNL     1       0.183  10.518  20.127  0.00  0.00    +0.000 A 
ATOM     22  C   UNL     1      -0.924  10.298  19.283  0.00  0.00    +0.000 A 
ATOM     23  C   UNL     1      -1.712  11.357  18.836  0.00  0.00    +0.000 A 
ATOM     24  C   UNL     1      -1.410  12.654  19.235  0.00  0.00    +0.000 A 
ATOM     25  C   UNL     1      -0.333  12.891  20.091  0.00  0.00    +0.000 A 
ATOM     26  C   UNL     1       0.463  11.827  20.537  0.00  0.00    +0.000 A 
BRANCH  26  27
ATOM     27  O   UNL     1       1.521  12.093  21.367  0.00  0.00    +0.000 OA
ATOM     28  H   UNL     1       2.134  12.691  20.901  0.00  0.00    +0.000 HD
ENDBRANCH  26  27
ENDBRANCH  18  21
ENDBRANCH   3  17
TORSDOF 5
ENDMDL
MODEL 9
REMARK VINA RESULT:      -7.6      3.785      9.507
REMARK  Name = 
REMARK  6 active torsions:
REMARK  status: ('A' for Active; 'I' for Inactive)
REMARK    1  A    between atoms: C_1  and  O_2
REMARK    2  A    between atoms: O_2  and  C_3
REMARK    3  A    between atoms: C_6  and  C_7
REMARK    4  A    between atoms: C_9  and  N_10
REMARK    5  A    between atoms: C_11  and  C_13
REMARK    6  A    between atoms: C_18  and  O_19
REMARK                            x       y       z     vdW  Elec       q    Type
REMARK                         _______ _______ _______ _____ _____    ______ ____
ROOT
ATOM      1  C   UNL     1      -0.786  11.300  18.202  0.00  0.00    +0.000 A 
ATOM      2  C   UNL     1      -0.160  10.104  18.163  0.00  0.00    +0.000 A 
ATOM      3  C   UNL     1       1.289   9.989  18.280  0.00  0.00    +0.000 A 
ATOM      4  C   UNL     1       1.993  11.124  18.423  0.00  0.00    +0.000 A 
ATOM      5  N   UNL     1       1.384  12.350  18.471  0.00  0.00    +0.000 N 
ATOM      6  C   UNL     1       0.032  12.545  18.373  0.00  0.00    +0.000 A 
ATOM      7  O   UNL     1      -0.460  13.669  18.412  0.00  0.00    +0.000 OA
ATOM      8  H   UNL     1       1.952  13.184  18.576  0.00  0.00    +0.000 HD
ENDROOT
BRANCH   1  12
ATOM      9  C   UNL     1      -5.023  11.396  17.632  0.00  0.00    +0.000 A 
ATOM     10  C   UNL     1      -4.470  11.835  18.838  0.00  0.00    +0.000 A 
ATOM     11  C   UNL     1      -3.083  11.838  19.026  0.00  0.00    +0.000 A 
ATOM     12  C   UNL     1      -2.239  11.376  18.010  0.00  0.00    +0.000 A 
ATOM     13  C   UNL     1      -2.797  10.939  16.803  0.00  0.00    +0.000 A 
ATOM     14  C   UNL     1      -4.182  10.945  16.616  0.00  0.00    +0.000 A 
BRANCH   9  16
ATOM     15  C   UNL     1      -7.036  12.208  18.560  0.00  0.00    +0.000 C 
ATOM     16  O   UNL     1      -6.390  11.413  17.570  0.00  0.00    +0.000 OA
ENDBRANCH   9  16
ENDBRANCH   1  12
BRANCH   3  17
ATOM     17  N   UNL     1       1.843   8.725  18.213  0.00  0.00    +0.000 N 
ATOM     18  C   UNL     1       2.079   7.866  19.278  0.00  0.00    +0.000 C 
ATOM     19  O   UNL     1       1.795   8.111  20.450  0.00  0.00    +0.000 OA
ATOM     20  H   UNL     1       2.128   8.377  17.299  0.00  0.00    +0.000 HD
BRANCH  18  21
ATOM     21  C   UNL     1       2.742   6.558  18.990  0.00  0.00    +0.000 A 
ATOM     22  C   UNL     1       3.379   6.442  17.738  0.00  0.00    +0.000 A 
ATOM     23  C   UNL     1       3.968   5.244  17.336  0.00  0.00    +0.000 A 
ATOM     24  C   UNL     1       3.936   4.144  18.185  0.00  0.00    +0.000 A 
ATOM     25  C   UNL     1       3.333   4.245  19.440  0.00  0.00    +0.000 A 
ATOM     26  C   UNL     1       2.738   5.448  19.844  0.00  0.00    +0.000 A 
BRANCH  26  27
ATOM     27  O   UNL     1       2.142   5.512  21.077  0.00  0.00    +0.000 OA
ATOM     28  H   UNL     1       1.746   6.397  21.181  0.00  0.00    +0.000 HD
ENDBRANCH  26  27
ENDBRANCH  18  21
ENDBRANCH   3  17
TORSDOF 5
ENDMDL
