MODEL 1
REMARK VINA RESULT:      -4.5      0.000      0.000
REMARK  Name = 
REMARK  9 active torsions:
REMARK  status: ('A' for Active; 'I' for Inactive)
REMARK    1  A    between atoms: C_1  and  C_2
REMARK    2  A    between atoms: C_2  and  C_3
REMARK    3  A    between atoms: C_3  and  C_4
REMARK    4  A    between atoms: C_4  and  C_5
REMARK    5  A    between atoms: C_5  and  C_6
REMARK    6  A    between atoms: C_6  and  O_7
REMARK    7  A    between atoms: C_6  and  C_8
REMARK    8  A    between atoms: C_8  and  C_9
REMARK    9  A    between atoms: C_9  and  O_10
REMARK                            x       y       z     vdW  Elec       q    Type
REMARK                         _______ _______ _______ _____ _____    ______ ____
ROOT
ATOM      1  C   UNL     1       4.427   3.764  18.960  0.00  0.00    +0.000 C 
ENDROOT
BRANCH   1   2
ATOM      2  O   UNL     1       5.151   2.608  19.387  0.00  0.00    +0.000 OA
ATOM      3  H   UNL     1       5.903   2.491  18.776  0.00  0.00    +0.000 HD
ENDBRANCH   1   2
BRANCH   1   4
ATOM      4  C   UNL     1       3.936   3.555  17.524  0.00  0.00    +0.000 C 
BRANCH   4   5
ATOM      5  C   UNL     1       2.558   2.887  17.487  0.00  0.00    +0.000 C 
BRANCH   5   6
ATOM      6  C   UNL     1       1.522   3.715  18.247  0.00  0.00    +0.000 C 
BRANCH   6   8
ATOM      7  C   UNL     1       1.130   3.424  20.716  0.00  0.00    +0.000 C 
ATOM      8  C   UNL     1       0.834   2.881  19.328  0.00  0.00    +0.000 C 
ENDBRANCH   6   8
ENDBRANCH   5   6
ENDBRANCH   4   5
ENDBRANCH   1   4
BRANCH   1   9
ATOM      9  C   UNL     1       5.315   5.014  19.077  0.00  0.00    +0.000 C 
BRANCH   9  10
ATOM     10  C   UNL     1       6.345   5.100  17.950  0.00  0.00    +0.000 C 
BRANCH  10  11
ATOM     11  O   UNL     1       7.433   4.208  18.160  0.00  0.00    +0.000 OA
ATOM     12  H   UNL     1       7.604   3.778  17.296  0.00  0.00    +0.000 HD
ENDBRANCH  10  11
ENDBRANCH   9  10
ENDBRANCH   1   9
TORSDOF 8
ENDMDL
MODEL 2
REMARK VINA RESULT:      -4.3      1.084      1.276
REMARK  Name = 
REMARK  9 active torsions:
REMARK  status: ('A' for Active; 'I' for Inactive)
REMARK    1  A    between atoms: C_1  and  C_2
REMARK    2  A    between atoms: C_2  and  C_3
REMARK    3  A    between atoms: C_3  and  C_4
REMARK    4  A    between atoms: C_4  and  C_5
REMARK    5  A    between atoms: C_5  and  C_6
REMARK    6  A    between atoms: C_6  and  O_7
REMARK    7  A    between atoms: C_6  and  C_8
REMARK    8  A    between atoms: C_8  and  C_9
REMARK    9  A    between atoms: C_9  and  O_10
REMARK                            x       y       z     vdW  Elec       q    Type
REMARK                         _______ _______ _______ _____ _____    ______ ____
ROOT
ATOM      1  C   UNL     1       4.711   4.003  17.956  0.00  0.00    +0.000 C 
ENDROOT
BRANCH   1   2
ATOM      2  O   UNL     1       5.656   3.537  18.922  0.00  0.00    +0.000 OA
ATOM      3  H   UNL     1       5.152   3.136  19.655  0.00  0.00    +0.000 HD
ENDBRANCH   1   2
BRANCH   1   4
ATOM      4  C   UNL     1       3.561   2.997  17.843  0.00  0.00    +0.000 C 
BRANCH   4   5
ATOM      5  C   UNL     1       2.200   3.695  17.780  0.00  0.00    +0.000 C 
BRANCH   5   6
ATOM      6  C   UNL     1       1.179   2.998  18.680  0.00  0.00    +0.000 C 
BRANCH   6   8
ATOM      7  C   UNL     1       1.339   2.817  21.185  0.00  0.00    +0.000 C 
ATOM      8  C   UNL     1       1.025   3.731  20.012  0.00  0.00    +0.000 C 
ENDBRANCH   6   8
ENDBRANCH   5   6
ENDBRANCH   4   5
ENDBRANCH   1   4
BRANCH   1   9
ATOM      9  C   UNL     1       5.406   4.222  16.603  0.00  0.00    +0.000 C 
BRANCH   9  10
ATOM     10  C   UNL     1       6.585   5.191  16.708  0.00  0.00    +0.000 C 
BRANCH  10  11
ATOM     11  O   UNL     1       7.780   4.528  17.102  0.00  0.00    +0.000 OA
ATOM     12  H   UNL     1       8.347   5.213  17.516  0.00  0.00    +0.000 HD
ENDBRANCH  10  11
ENDBRANCH   9  10
ENDBRANCH   1   9
TORSDOF 8
ENDMDL
MODEL 3
REMARK VINA RESULT:      -4.3      5.275      6.723
REMARK  Name = 
REMARK  9 active torsions:
REMARK  status: ('A' for Active; 'I' for Inactive)
REMARK    1  A    between atoms: C_1  and  C_2
REMARK    2  A    between atoms: C_2  and  C_3
REMARK    3  A    between atoms: C_3  and  C_4
REMARK    4  A    between atoms: C_4  and  C_5
REMARK    5  A    between atoms: C_5  and  C_6
REMARK    6  A    between atoms: C_6  and  O_7
REMARK    7  A    between atoms: C_6  and  C_8
REMARK    8  A    between atoms: C_8  and  C_9
REMARK    9  A    between atoms: C_9  and  O_10
REMARK                            x       y       z     vdW  Elec       q    Type
REMARK                         _______ _______ _______ _____ _____    ______ ____
ROOT
ATOM      1  C   UNL     1       7.217   4.241  13.568  0.00  0.00    +0.000 C 
ENDROOT
BRANCH   1   2
ATOM      2  O   UNL     1       7.553   5.629  13.627  0.00  0.00    +0.000 OA
ATOM      3  H   UNL     1       8.177   5.748  14.367  0.00  0.00    +0.000 HD
ENDBRANCH   1   2
BRANCH   1   4
ATOM      4  C   UNL     1       6.785   3.881  12.144  0.00  0.00    +0.000 C 
BRANCH   4   5
ATOM      5  C   UNL     1       5.514   3.028  12.133  0.00  0.00    +0.000 C 
BRANCH   5   6
ATOM      6  C   UNL     1       4.304   3.845  11.679  0.00  0.00    +0.000 C 
BRANCH   6   8
ATOM      7  C   UNL     1       2.924   4.091   9.588  0.00  0.00    +0.000 C 
ATOM      8  C   UNL     1       3.522   3.115  10.587  0.00  0.00    +0.000 C 
ENDBRANCH   6   8
ENDBRANCH   5   6
ENDBRANCH   4   5
ENDBRANCH   1   4
BRANCH   1   9
ATOM      9  C   UNL     1       6.113   3.923  14.590  0.00  0.00    +0.000 C 
BRANCH   9  10
ATOM     10  C   UNL     1       6.439   4.468  15.982  0.00  0.00    +0.000 C 
BRANCH  10  11
ATOM     11  O   UNL     1       7.838   4.462  16.237  0.00  0.00    +0.000 OA
ATOM     12  H   UNL     1       8.121   5.402  16.231  0.00  0.00    +0.000 HD
ENDBRANCH  10  11
ENDBRANCH   9  10
ENDBRANCH   1   9
TORSDOF 8
ENDMDL
MODEL 4
REMARK VINA RESULT:      -4.3      1.201      1.472
REMARK  Name = 
REMARK  9 active torsions:
REMARK  status: ('A' for Active; 'I' for Inactive)
REMARK    1  A    between atoms: C_1  and  C_2
REMARK    2  A    between atoms: C_2  and  C_3
REMARK    3  A    between atoms: C_3  and  C_4
REMARK    4  A    between atoms: C_4  and  C_5
REMARK    5  A    between atoms: C_5  and  C_6
REMARK    6  A    between atoms: C_6  and  O_7
REMARK    7  A    between atoms: C_6  and  C_8
REMARK    8  A    between atoms: C_8  and  C_9
REMARK    9  A    between atoms: C_9  and  O_10
REMARK                            x       y       z     vdW  Elec       q    Type
REMARK                         _______ _______ _______ _____ _____    ______ ____
ROOT
ATOM      1  C   UNL     1       4.805   4.327  18.016  0.00  0.00    +0.000 C 
ENDROOT
BRANCH   1   2
ATOM      2  O   UNL     1       5.506   3.441  18.893  0.00  0.00    +0.000 OA
ATOM      3  H   UNL     1       5.379   3.769  19.803  0.00  0.00    +0.000 HD
ENDBRANCH   1   2
BRANCH   1   4
ATOM      4  C   UNL     1       3.631   3.584  17.373  0.00  0.00    +0.000 C 
BRANCH   4   5
ATOM      5  C   UNL     1       2.282   4.114  17.869  0.00  0.00    +0.000 C 
BRANCH   5   6
ATOM      6  C   UNL     1       2.469   5.306  18.808  0.00  0.00    +0.000 C 
BRANCH   6   8
ATOM      7  C   UNL     1       0.947   3.840  20.175  0.00  0.00    +0.000 C 
ATOM      8  C   UNL     1       1.928   4.999  20.205  0.00  0.00    +0.000 C 
ENDBRANCH   6   8
ENDBRANCH   5   6
ENDBRANCH   4   5
ENDBRANCH   1   4
BRANCH   1   9
ATOM      9  C   UNL     1       5.767   4.889  16.957  0.00  0.00    +0.000 C 
BRANCH   9  10
ATOM     10  C   UNL     1       7.156   5.175  17.531  0.00  0.00    +0.000 C 
BRANCH  10  11
ATOM     11  O   UNL     1       8.061   4.107  17.281  0.00  0.00    +0.000 OA
ATOM     12  H   UNL     1       8.299   3.740  18.160  0.00  0.00    +0.000 HD
ENDBRANCH  10  11
ENDBRANCH   9  10
ENDBRANCH   1   9
TORSDOF 8
ENDMDL
MODEL 5
REMARK VINA RESULT:      -4.2      4.319      5.957
REMARK  Name = 
REMARK  9 active torsions:
REMARK  status: ('A' for Active; 'I' for Inactive)
REMARK    1  A    between atoms: C_1  and  C_2
REMARK    2  A    between atoms: C_2  and  C_3
REMARK    3  A    between atoms: C_3  and  C_4
REMARK    4  A    between atoms: C_4  and  C_5
REMARK    5  A    between atoms: C_5  and  C_6
REMARK    6  A    between atoms: C_6  and  O_7
REMARK    7  A    between atoms: C_6  and  C_8
REMARK    8  A    between atoms: C_8  and  C_9
REMARK    9  A    between atoms: C_9  and  O_10
REMARK                            x       y       z     vdW  Elec       q    Type
REMARK                         _______ _______ _______ _____ _____    ______ ____
ROOT
ATOM      1  C   UNL     1       5.605   4.379  15.896  0.00  0.00    +0.000 C 
ENDROOT
BRANCH   1   2
ATOM      2  O   UNL     1       6.335   4.010  17.068  0.00  0.00    +0.000 OA
ATOM      3  H   UNL     1       7.185   4.489  17.047  0.00  0.00    +0.000 HD
ENDBRANCH   1   2
BRANCH   1   4
ATOM      4  C   UNL     1       6.382   3.936  14.653  0.00  0.00    +0.000 C 
BRANCH   4   5
ATOM      5  C   UNL     1       5.477   3.844  13.420  0.00  0.00    +0.000 C 
BRANCH   5   6
ATOM      6  C   UNL     1       6.260   3.373  12.194  0.00  0.00    +0.000 C 
BRANCH   6   8
ATOM      7  C   UNL     1       6.570   1.162  11.032  0.00  0.00    +0.000 C 
ATOM      8  C   UNL     1       5.565   2.194  11.514  0.00  0.00    +0.000 C 
ENDBRANCH   6   8
ENDBRANCH   5   6
ENDBRANCH   4   5
ENDBRANCH   1   4
BRANCH   1   9
ATOM      9  C   UNL     1       5.347   5.895  15.892  0.00  0.00    +0.000 C 
BRANCH   9  10
ATOM     10  C   UNL     1       6.169   6.625  16.955  0.00  0.00    +0.000 C 
BRANCH  10  11
ATOM     11  O   UNL     1       7.541   6.716  16.592  0.00  0.00    +0.000 OA
ATOM     12  H   UNL     1       8.015   7.026  17.392  0.00  0.00    +0.000 HD
ENDBRANCH  10  11
ENDBRANCH   9  10
ENDBRANCH   1   9
TORSDOF 8
ENDMDL
MODEL 6
REMARK VINA RESULT:      -4.2      1.103      1.223
REMARK  Name = 
REMARK  9 active torsions:
REMARK  status: ('A' for Active; 'I' for Inactive)
REMARK    1  A    between atoms: C_1  and  C_2
REMARK    2  A    between atoms: C_2  and  C_3
REMARK    3  A    between atoms: C_3  and  C_4
REMARK    4  A    between atoms: C_4  and  C_5
REMARK    5  A    between atoms: C_5  and  C_6
REMARK    6  A    between atoms: C_6  and  O_7
REMARK    7  A    between atoms: C_6  and  C_8
REMARK    8  A    between atoms: C_8  and  C_9
REMARK    9  A    between atoms: C_9  and  O_10
REMARK                            x       y       z     vdW  Elec       q    Type
REMARK                         _______ _______ _______ _____ _____    ______ ____
ROOT
ATOM      1  C   UNL     1       4.328   3.773  18.012  0.00  0.00    +0.000 C 
ENDROOT
BRANCH   1   2
ATOM      2  O   UNL     1       5.163   3.332  16.939  0.00  0.00    +0.000 OA
ATOM      3  H   UNL     1       4.870   3.794  16.131  0.00  0.00    +0.000 HD
ENDBRANCH   1   2
BRANCH   1   4
ATOM      4  C   UNL     1       3.356   4.838  17.497  0.00  0.00    +0.000 C 
BRANCH   4   5
ATOM      5  C   UNL     1       1.909   4.526  17.889  0.00  0.00    +0.000 C 
BRANCH   5   6
ATOM      6  C   UNL     1       1.715   3.030  18.137  0.00  0.00    +0.000 C 
BRANCH   6   8
ATOM      7  C   UNL     1       1.018   4.059  20.325  0.00  0.00    +0.000 C 
ATOM      8  C   UNL     1       1.147   2.770  19.532  0.00  0.00    +0.000 C 
ENDBRANCH   6   8
ENDBRANCH   5   6
ENDBRANCH   4   5
ENDBRANCH   1   4
BRANCH   1   9
ATOM      9  C   UNL     1       5.192   4.306  19.167  0.00  0.00    +0.000 C 
BRANCH   9  10
ATOM     10  C   UNL     1       6.408   5.087  18.666  0.00  0.00    +0.000 C 
BRANCH  10  11
ATOM     11  O   UNL     1       7.435   4.221  18.198  0.00  0.00    +0.000 OA
ATOM     12  H   UNL     1       8.169   4.294  18.844  0.00  0.00    +0.000 HD
ENDBRANCH  10  11
ENDBRANCH   9  10
ENDBRANCH   1   9
TORSDOF 8
ENDMDL
MODEL 7
REMARK VINA RESULT:      -4.2      1.648      2.201
REMARK  Name = 
REMARK  9 active torsions:
REMARK  status: ('A' for Active; 'I' for Inactive)
REMARK    1  A    between atoms: C_1  and  C_2
REMARK    2  A    between atoms: C_2  and  C_3
REMARK    3  A    between atoms: C_3  and  C_4
REMARK    4  A    between atoms: C_4  and  C_5
REMARK    5  A    between atoms: C_5  and  C_6
REMARK    6  A    between atoms: C_6  and  O_7
REMARK    7  A    between atoms: C_6  and  C_8
REMARK    8  A    between atoms: C_8  and  C_9
REMARK    9  A    between atoms: C_9  and  O_10
REMARK                            x       y       z     vdW  Elec       q    Type
REMARK                         _______ _______ _______ _____ _____    ______ ____
ROOT
ATOM      1  C   UNL     1       5.861   4.557  17.414  0.00  0.00    +0.000 C 
ENDROOT
BRANCH   1   2
ATOM      2  O   UNL     1       7.137   4.194  17.945  0.00  0.00    +0.000 OA
ATOM      3  H   UNL     1       7.817   4.533  17.332  0.00  0.00    +0.000 HD
ENDBRANCH   1   2
BRANCH   1   4
ATOM      4  C   UNL     1       4.757   3.907  18.253  0.00  0.00    +0.000 C 
BRANCH   4   5
ATOM      5  C   UNL     1       3.507   3.614  17.419  0.00  0.00    +0.000 C 
BRANCH   5   6
ATOM      6  C   UNL     1       2.309   4.426  17.915  0.00  0.00    +0.000 C 
BRANCH   6   8
ATOM      7  C   UNL     1       1.020   3.605  19.914  0.00  0.00    +0.000 C 
ATOM      8  C   UNL     1       1.188   3.511  18.407  0.00  0.00    +0.000 C 
ENDBRANCH   6   8
ENDBRANCH   5   6
ENDBRANCH   4   5
ENDBRANCH   1   4
BRANCH   1   9
ATOM      9  C   UNL     1       5.767   4.142  15.937  0.00  0.00    +0.000 C 
BRANCH   9  10
ATOM     10  C   UNL     1       6.944   4.668  15.113  0.00  0.00    +0.000 C 
BRANCH  10  11
ATOM     11  O   UNL     1       7.428   5.907  15.615  0.00  0.00    +0.000 OA
ATOM     12  H   UNL     1       6.653   6.506  15.657  0.00  0.00    +0.000 HD
ENDBRANCH  10  11
ENDBRANCH   9  10
ENDBRANCH   1   9
TORSDOF 8
ENDMDL
MODEL 8
REMARK VINA RESULT:      -4.2      1.570      2.851
REMARK  Name = 
REMARK  9 active torsions:
REMARK  status: ('A' for Active; 'I' for Inactive)
REMARK    1  A    between atoms: C_1  and  C_2
REMARK    2  A    between atoms: C_2  and  C_3
REMARK    3  A    between atoms: C_3  and  C_4
REMARK    4  A    between atoms: C_4  and  C_5
REMARK    5  A    between atoms: C_5  and  C_6
REMARK    6  A    between atoms: C_6  and  O_7
REMARK    7  A    between atoms: C_6  and  C_8
REMARK    8  A    between atoms: C_8  and  C_9
REMARK    9  A    between atoms: C_9  and  O_10
REMARK                            x       y       z     vdW  Elec       q    Type
REMARK                         _______ _______ _______ _____ _____    ______ ____
ROOT
ATOM      1  C   UNL     1       4.201   4.272  17.714  0.00  0.00    +0.000 C 
ENDROOT
BRANCH   1   2
ATOM      2  O   UNL     1       5.484   3.643  17.691  0.00  0.00    +0.000 OA
ATOM      3  H   UNL     1       5.344   2.701  17.477  0.00  0.00    +0.000 HD
ENDBRANCH   1   2
BRANCH   1   4
ATOM      4  C   UNL     1       3.958   4.884  19.097  0.00  0.00    +0.000 C 
BRANCH   4   5
ATOM      5  C   UNL     1       2.580   5.546  19.191  0.00  0.00    +0.000 C 
BRANCH   5   6
ATOM      6  C   UNL     1       1.902   5.223  20.523  0.00  0.00    +0.000 C 
BRANCH   6   8
ATOM      7  C   UNL     1       1.368   2.903  21.340  0.00  0.00    +0.000 C 
ATOM      8  C   UNL     1       0.969   4.020  20.390  0.00  0.00    +0.000 C 
ENDBRANCH   6   8
ENDBRANCH   5   6
ENDBRANCH   4   5
ENDBRANCH   1   4
BRANCH   1   9
ATOM      9  C   UNL     1       3.109   3.255  17.345  0.00  0.00    +0.000 C 
BRANCH   9  10
ATOM     10  C   UNL     1       3.144   2.017  18.243  0.00  0.00    +0.000 C 
BRANCH  10  11
ATOM     11  O   UNL     1       4.231   1.159  17.917  0.00  0.00    +0.000 OA
ATOM     12  H   UNL     1       3.835   0.362  17.506  0.00  0.00    +0.000 HD
ENDBRANCH  10  11
ENDBRANCH   9  10
ENDBRANCH   1   9
TORSDOF 8
ENDMDL
MODEL 9
REMARK VINA RESULT:      -4.2      1.364      1.506
REMARK  Name = 
REMARK  9 active torsions:
REMARK  status: ('A' for Active; 'I' for Inactive)
REMARK    1  A    between atoms: C_1  and  C_2
REMARK    2  A    between atoms: C_2  and  C_3
REMARK    3  A    between atoms: C_3  and  C_4
REMARK    4  A    between atoms: C_4  and  C_5
REMARK    5  A    between atoms: C_5  and  C_6
REMARK    6  A    between atoms: C_6  and  O_7
REMARK    7  A    between atoms: C_6  and  C_8
REMARK    8  A    between atoms: C_8  and  C_9
REMARK    9  A    between atoms: C_9  and  O_10
REMARK                            x       y       z     vdW  Elec       q    Type
REMARK                         _______ _______ _______ _____ _____    ______ ____
ROOT
ATOM      1  C   UNL     1       4.471   4.252  18.592  0.00  0.00    +0.000 C 
ENDROOT
BRANCH   1   2
ATOM      2  O   UNL     1       5.241   3.117  18.995  0.00  0.00    +0.000 OA
ATOM      3  H   UNL     1       6.146   3.241  18.653  0.00  0.00    +0.000 HD
ENDBRANCH   1   2
BRANCH   1   4
ATOM      4  C   UNL     1       3.116   3.783  18.055  0.00  0.00    +0.000 C 
BRANCH   4   5
ATOM      5  C   UNL     1       2.746   2.393  18.581  0.00  0.00    +0.000 C 
BRANCH   5   6
ATOM      6  C   UNL     1       1.264   2.318  18.951  0.00  0.00    +0.000 C 
BRANCH   6   8
ATOM      7  C   UNL     1       1.511   2.747  21.419  0.00  0.00    +0.000 C 
ATOM      8  C   UNL     1       0.937   3.260  20.110  0.00  0.00    +0.000 C 
ENDBRANCH   6   8
ENDBRANCH   5   6
ENDBRANCH   4   5
ENDBRANCH   1   4
BRANCH   1   9
ATOM      9  C   UNL     1       5.244   5.066  17.542  0.00  0.00    +0.000 C 
BRANCH   9  10
ATOM     10  C   UNL     1       5.161   4.441  16.148  0.00  0.00    +0.000 C 
BRANCH  10  11
ATOM     11  O   UNL     1       5.937   3.253  16.056  0.00  0.00    +0.000 OA
ATOM     12  H   UNL     1       6.805   3.462  16.462  0.00  0.00    +0.000 HD
ENDBRANCH  10  11
ENDBRANCH   9  10
ENDBRANCH   1   9
TORSDOF 8
ENDMDL
