MODEL 1
REMARK VINA RESULT:      -7.8      0.000      0.000
REMARK  Name = 
REMARK  4 active torsions:
REMARK  status: ('A' for Active; 'I' for Inactive)
REMARK    1  A    between atoms: C_1  and  C_2
REMARK    2  A    between atoms: C_2  and  C_3
REMARK    3  A    between atoms: C_10  and  C_11
REMARK    4  A    between atoms: C_10  and  C_12
REMARK                            x       y       z     vdW  Elec       q    Type
REMARK                         _______ _______ _______ _____ _____    ______ ____
ROOT
ATOM      1  C   UNL     1      -6.846  12.600  17.199  0.00  0.00    +0.000 C 
ATOM      2  C   UNL     1      -5.979  12.231  18.430  0.00  0.00    +0.000 C 
ATOM      3  C   UNL     1      -5.901  13.502  19.343  0.00  0.00    +0.000 C 
ATOM      4  C   UNL     1      -4.895  13.414  20.531  0.00  0.00    +0.000 C 
ATOM      5  C   UNL     1      -4.790  14.841  21.124  0.00  0.00    +0.000 C 
ATOM      6  C   UNL     1      -5.368  12.502  21.678  0.00  0.00    +0.000 C 
ATOM      7  N   UNL     1      -3.598  12.954  20.028  0.00  0.00    +0.000 N 
ATOM      8  C   UNL     1      -2.384  12.990  20.697  0.00  0.00    +0.000 C 
ATOM      9  O   UNL     1      -2.177  13.412  21.818  0.00  0.00    +0.000 OA
ATOM     10  C   UNL     1      -1.380  12.361  19.746  0.00  0.00    +0.000 C 
ATOM     11  C   UNL     1      -0.055  12.415  19.972  0.00  0.00    +0.000 C 
ATOM     12  S   UNL     1       0.724  13.351  21.224  0.00  0.00    +0.000 S 
ATOM     13  C   UNL     1       2.222  13.441  20.354  0.00  0.00    +0.000 C 
ATOM     14  S   UNL     1       3.514  14.413  20.695  0.00  0.00    +0.000 S 
ATOM     15  N   UNL     1       2.182  12.574  19.307  0.00  0.00    +0.000 N 
ATOM     16  C   UNL     1       1.029  11.866  19.108  0.00  0.00    +0.000 C 
ATOM     17  O   UNL     1       0.969  10.897  18.368  0.00  0.00    +0.000 OA
ATOM     18  C   UNL     1      -2.156  11.858  18.594  0.00  0.00    +0.000 A 
ATOM     19  C   UNL     1      -1.860  11.173  17.429  0.00  0.00    +0.000 A 
ATOM     20  C   UNL     1      -2.896  10.854  16.541  0.00  0.00    +0.000 A 
ATOM     21  C   UNL     1      -4.222  11.210  16.819  0.00  0.00    +0.000 A 
ATOM     22  C   UNL     1      -4.546  11.913  17.988  0.00  0.00    +0.000 A 
ATOM     23  C   UNL     1      -3.483  12.235  18.831  0.00  0.00    +0.000 A 
ATOM     24  H   UNL     1       3.003  12.373  18.761  0.00  0.00    +0.000 HD
ENDROOT
BRANCH   2  25
ATOM     25  C   UNL     1      -6.656  11.065  19.188  0.00  0.00    +0.000 A 
ATOM     26  C   UNL     1      -6.408   9.716  18.868  0.00  0.00    +0.000 A 
ATOM     27  C   UNL     1      -6.862   8.680  19.691  0.00  0.00    +0.000 A 
ATOM     28  C   UNL     1      -7.599   8.969  20.832  0.00  0.00    +0.000 A 
ATOM     29  C   UNL     1      -7.916  10.289  21.133  0.00  0.00    +0.000 A 
ATOM     30  C   UNL     1      -7.464  11.325  20.311  0.00  0.00    +0.000 A 
ENDBRANCH   2  25
TORSDOF 1
ENDMDL
MODEL 2
REMARK VINA RESULT:      -7.7      6.917     12.408
REMARK  Name = 
REMARK  4 active torsions:
REMARK  status: ('A' for Active; 'I' for Inactive)
REMARK    1  A    between atoms: C_1  and  C_2
REMARK    2  A    between atoms: C_2  and  C_3
REMARK    3  A    between atoms: C_10  and  C_11
REMARK    4  A    between atoms: C_10  and  C_12
REMARK                            x       y       z     vdW  Elec       q    Type
REMARK                         _______ _______ _______ _____ _____    ______ ____
ROOT
ATOM      1  C   UNL     1      10.082  15.390  22.583  0.00  0.00    +0.000 C 
ATOM      2  C   UNL     1       9.218  14.811  21.435  0.00  0.00    +0.000 C 
ATOM      3  C   UNL     1       9.203  15.872  20.282  0.00  0.00    +0.000 C 
ATOM      4  C   UNL     1       8.210  15.581  19.115  0.00  0.00    +0.000 C 
ATOM      5  C   UNL     1       8.169  16.860  18.243  0.00  0.00    +0.000 C 
ATOM      6  C   UNL     1       8.662  14.439  18.186  0.00  0.00    +0.000 C 
ATOM      7  N   UNL     1       6.888  15.279  19.673  0.00  0.00    +0.000 N 
ATOM      8  C   UNL     1       5.686  15.223  18.985  0.00  0.00    +0.000 C 
ATOM      9  O   UNL     1       5.510  15.416  17.798  0.00  0.00    +0.000 OA
ATOM     10  C   UNL     1       4.645  14.837  20.023  0.00  0.00    +0.000 C 
ATOM     11  C   UNL     1       3.327  14.891  19.763  0.00  0.00    +0.000 C 
ATOM     12  S   UNL     1       2.602  15.582  18.331  0.00  0.00    +0.000 S 
ATOM     13  C   UNL     1       1.098  15.899  19.133  0.00  0.00    +0.000 C 
ATOM     14  S   UNL     1      -0.151  16.828  18.575  0.00  0.00    +0.000 S 
ATOM     15  N   UNL     1       1.090  15.262  20.334  0.00  0.00    +0.000 N 
ATOM     16  C   UNL     1       2.210  14.569  20.697  0.00  0.00    +0.000 C 
ATOM     17  O   UNL     1       2.222  13.769  21.619  0.00  0.00    +0.000 OA
ATOM     18  C   UNL     1       5.385  14.550  21.269  0.00  0.00    +0.000 A 
ATOM     19  C   UNL     1       5.047  14.127  22.542  0.00  0.00    +0.000 A 
ATOM     20  C   UNL     1       6.058  13.959  23.497  0.00  0.00    +0.000 A 
ATOM     21  C   UNL     1       7.401  14.203  23.181  0.00  0.00    +0.000 A 
ATOM     22  C   UNL     1       7.767  14.641  21.901  0.00  0.00    +0.000 A 
ATOM     23  C   UNL     1       6.730  14.823  20.988  0.00  0.00    +0.000 A 
ATOM     24  H   UNL     1       0.254  15.207  20.892  0.00  0.00    +0.000 HD
ENDROOT
BRANCH   2  25
ATOM     25  C   UNL     1       9.858  13.491  20.942  0.00  0.00    +0.000 A 
ATOM     26  C   UNL     1       9.164  12.266  20.963  0.00  0.00    +0.000 A 
ATOM     27  C   UNL     1       9.678  11.131  20.326  0.00  0.00    +0.000 A 
ATOM     28  C   UNL     1      10.908  11.189  19.685  0.00  0.00    +0.000 A 
ATOM     29  C   UNL     1      11.645  12.369  19.710  0.00  0.00    +0.000 A 
ATOM     30  C   UNL     1      11.133  13.503  20.346  0.00  0.00    +0.000 A 
ENDBRANCH   2  25
TORSDOF 1
ENDMDL
MODEL 3
REMARK VINA RESULT:      -7.6      3.402      5.930
REMARK  Name = 
REMARK  4 active torsions:
REMARK  status: ('A' for Active; 'I' for Inactive)
REMARK    1  A    between atoms: C_1  and  C_2
REMARK    2  A    between atoms: C_2  and  C_3
REMARK    3  A    between atoms: C_10  and  C_11
REMARK    4  A    between atoms: C_10  and  C_12
REMARK                            x       y       z     vdW  Elec       q    Type
REMARK                         _______ _______ _______ _____ _____    ______ ____
ROOT
ATOM      1  C   UNL     1       0.673   9.339  19.590  0.00  0.00    +0.000 C 
ATOM      2  C   UNL     1       0.041  10.752  19.523  0.00  0.00    +0.000 C 
ATOM      3  C   UNL     1       1.153  11.737  19.024  0.00  0.00    +0.000 C 
ATOM      4  C   UNL     1       0.788  13.252  19.092  0.00  0.00    +0.000 C 
ATOM      5  C   UNL     1       2.096  14.032  18.811  0.00  0.00    +0.000 C 
ATOM      6  C   UNL     1      -0.220  13.696  18.017  0.00  0.00    +0.000 C 
ATOM      7  N   UNL     1       0.266  13.560  20.427  0.00  0.00    +0.000 N 
ATOM      8  C   UNL     1       0.074  14.818  20.977  0.00  0.00    +0.000 C 
ATOM      9  O   UNL     1       0.308  15.890  20.454  0.00  0.00    +0.000 OA
ATOM     10  C   UNL     1      -0.518  14.570  22.354  0.00  0.00    +0.000 C 
ATOM     11  C   UNL     1      -0.642  15.553  23.262  0.00  0.00    +0.000 C 
ATOM     12  S   UNL     1       0.017  17.165  23.112  0.00  0.00    +0.000 S 
ATOM     13  C   UNL     1       0.065  17.406  24.828  0.00  0.00    +0.000 C 
ATOM     14  S   UNL     1       0.833  18.624  25.641  0.00  0.00    +0.000 S 
ATOM     15  N   UNL     1      -0.634  16.412  25.438  0.00  0.00    +0.000 N 
ATOM     16  C   UNL     1      -1.177  15.437  24.650  0.00  0.00    +0.000 C 
ATOM     17  O   UNL     1      -2.018  14.651  25.056  0.00  0.00    +0.000 OA
ATOM     18  C   UNL     1      -0.765  13.116  22.446  0.00  0.00    +0.000 A 
ATOM     19  C   UNL     1      -1.305  12.266  23.394  0.00  0.00    +0.000 A 
ATOM     20  C   UNL     1      -1.380  10.894  23.118  0.00  0.00    +0.000 A 
ATOM     21  C   UNL     1      -0.925  10.375  21.899  0.00  0.00    +0.000 A 
ATOM     22  C   UNL     1      -0.365  11.216  20.927  0.00  0.00    +0.000 A 
ATOM     23  C   UNL     1      -0.284  12.569  21.250  0.00  0.00    +0.000 A 
ATOM     24  H   UNL     1      -0.843  16.446  26.422  0.00  0.00    +0.000 HD
ENDROOT
BRANCH   2  25
ATOM     25  C   UNL     1      -1.140  10.725  18.525  0.00  0.00    +0.000 A 
ATOM     26  C   UNL     1      -1.102   9.970  17.336  0.00  0.00    +0.000 A 
ATOM     27  C   UNL     1      -2.248   9.791  16.554  0.00  0.00    +0.000 A 
ATOM     28  C   UNL     1      -3.445  10.390  16.925  0.00  0.00    +0.000 A 
ATOM     29  C   UNL     1      -3.492  11.197  18.057  0.00  0.00    +0.000 A 
ATOM     30  C   UNL     1      -2.349  11.376  18.840  0.00  0.00    +0.000 A 
ENDBRANCH   2  25
TORSDOF 1
ENDMDL
MODEL 4
REMARK VINA RESULT:      -7.4      6.812     12.576
REMARK  Name = 
REMARK  4 active torsions:
REMARK  status: ('A' for Active; 'I' for Inactive)
REMARK    1  A    between atoms: C_1  and  C_2
REMARK    2  A    between atoms: C_2  and  C_3
REMARK    3  A    between atoms: C_10  and  C_11
REMARK    4  A    between atoms: C_10  and  C_12
REMARK                            x       y       z     vdW  Elec       q    Type
REMARK                         _______ _______ _______ _____ _____    ______ ____
ROOT
ATOM      1  C   UNL     1      10.107  15.791  22.631  0.00  0.00    +0.000 C 
ATOM      2  C   UNL     1       9.269  15.267  21.437  0.00  0.00    +0.000 C 
ATOM      3  C   UNL     1       9.113  16.451  20.423  0.00  0.00    +0.000 C 
ATOM      4  C   UNL     1       8.119  16.201  19.247  0.00  0.00    +0.000 C 
ATOM      5  C   UNL     1       7.924  17.565  18.539  0.00  0.00    +0.000 C 
ATOM      6  C   UNL     1       8.654  15.231  18.178  0.00  0.00    +0.000 C 
ATOM      7  N   UNL     1       6.852  15.701  19.789  0.00  0.00    +0.000 N 
ATOM      8  C   UNL     1       5.641  15.604  19.121  0.00  0.00    +0.000 C 
ATOM      9  O   UNL     1       5.410  15.918  17.970  0.00  0.00    +0.000 OA
ATOM     10  C   UNL     1       4.676  14.992  20.123  0.00  0.00    +0.000 C 
ATOM     11  C   UNL     1       3.351  14.941  19.896  0.00  0.00    +0.000 C 
ATOM     12  S   UNL     1       2.517  15.719  18.573  0.00  0.00    +0.000 S 
ATOM     13  C   UNL     1       1.014  15.783  19.435  0.00  0.00    +0.000 C 
ATOM     14  S   UNL     1      -0.337  16.639  19.018  0.00  0.00    +0.000 S 
ATOM     15  N   UNL     1       1.107  15.009  20.550  0.00  0.00    +0.000 N 
ATOM     16  C   UNL     1       2.301  14.396  20.804  0.00  0.00    +0.000 C 
ATOM     17  O   UNL     1       2.422  13.497  21.622  0.00  0.00    +0.000 OA
ATOM     18  C   UNL     1       5.479  14.636  21.311  0.00  0.00    +0.000 A 
ATOM     19  C   UNL     1       5.224  14.031  22.529  0.00  0.00    +0.000 A 
ATOM     20  C   UNL     1       6.276  13.855  23.438  0.00  0.00    +0.000 A 
ATOM     21  C   UNL     1       7.577  14.271  23.129  0.00  0.00    +0.000 A 
ATOM     22  C   UNL     1       7.858  14.895  21.905  0.00  0.00    +0.000 A 
ATOM     23  C   UNL     1       6.780  15.077  21.041  0.00  0.00    +0.000 A 
ATOM     24  H   UNL     1       0.298  14.802  21.112  0.00  0.00    +0.000 HD
ENDROOT
BRANCH   2  25
ATOM     25  C   UNL     1      10.023  14.089  20.776  0.00  0.00    +0.000 A 
ATOM     26  C   UNL     1      11.248  14.263  20.103  0.00  0.00    +0.000 A 
ATOM     27  C   UNL     1      12.014  13.166  19.696  0.00  0.00    +0.000 A 
ATOM     28  C   UNL     1      11.557  11.875  19.922  0.00  0.00    +0.000 A 
ATOM     29  C   UNL     1      10.318  11.676  20.523  0.00  0.00    +0.000 A 
ATOM     30  C   UNL     1       9.551  12.771  20.931  0.00  0.00    +0.000 A 
ENDBRANCH   2  25
TORSDOF 1
ENDMDL
MODEL 5
REMARK VINA RESULT:      -7.4      2.518      5.028
REMARK  Name = 
REMARK  4 active torsions:
REMARK  status: ('A' for Active; 'I' for Inactive)
REMARK    1  A    between atoms: C_1  and  C_2
REMARK    2  A    between atoms: C_2  and  C_3
REMARK    3  A    between atoms: C_10  and  C_11
REMARK    4  A    between atoms: C_10  and  C_12
REMARK                            x       y       z     vdW  Elec       q    Type
REMARK                         _______ _______ _______ _____ _____    ______ ____
ROOT
ATOM      1  C   UNL     1      -6.723  13.396  24.098  0.00  0.00    +0.000 C 
ATOM      2  C   UNL     1      -6.000  13.687  22.758  0.00  0.00    +0.000 C 
ATOM      3  C   UNL     1      -6.548  12.668  21.702  0.00  0.00    +0.000 C 
ATOM      4  C   UNL     1      -5.794  12.645  20.337  0.00  0.00    +0.000 C 
ATOM      5  C   UNL     1      -6.320  11.410  19.564  0.00  0.00    +0.000 C 
ATOM      6  C   UNL     1      -6.085  13.868  19.447  0.00  0.00    +0.000 C 
ATOM      7  N   UNL     1      -4.353  12.539  20.586  0.00  0.00    +0.000 N 
ATOM      8  C   UNL     1      -3.368  12.231  19.660  0.00  0.00    +0.000 C 
ATOM      9  O   UNL     1      -3.521  11.992  18.479  0.00  0.00    +0.000 OA
ATOM     10  C   UNL     1      -2.059  12.290  20.430  0.00  0.00    +0.000 C 
ATOM     11  C   UNL     1      -0.904  11.843  19.905  0.00  0.00    +0.000 C 
ATOM     12  S   UNL     1      -0.744  10.964  18.404  0.00  0.00    +0.000 S 
ATOM     13  C   UNL     1       0.740  10.213  18.895  0.00  0.00    +0.000 C 
ATOM     14  S   UNL     1       1.509   8.951  18.153  0.00  0.00    +0.000 S 
ATOM     15  N   UNL     1       1.196  10.821  20.022  0.00  0.00    +0.000 N 
ATOM     16  C   UNL     1       0.434  11.819  20.562  0.00  0.00    +0.000 C 
ATOM     17  O   UNL     1       0.858  12.588  21.411  0.00  0.00    +0.000 OA
ATOM     18  C   UNL     1      -2.392  12.788  21.780  0.00  0.00    +0.000 A 
ATOM     19  C   UNL     1      -1.675  13.093  22.924  0.00  0.00    +0.000 A 
ATOM     20  C   UNL     1      -2.358  13.559  24.055  0.00  0.00    +0.000 A 
ATOM     21  C   UNL     1      -3.749  13.728  24.042  0.00  0.00    +0.000 A 
ATOM     22  C   UNL     1      -4.498  13.416  22.899  0.00  0.00    +0.000 A 
ATOM     23  C   UNL     1      -3.785  12.929  21.805  0.00  0.00    +0.000 A 
ATOM     24  H   UNL     1       2.112  10.625  20.389  0.00  0.00    +0.000 HD
ENDROOT
BRANCH   2  25
ATOM     25  C   UNL     1      -6.319  15.137  22.322  0.00  0.00    +0.000 A 
ATOM     26  C   UNL     1      -7.640  15.606  22.185  0.00  0.00    +0.000 A 
ATOM     27  C   UNL     1      -7.911  16.965  21.995  0.00  0.00    +0.000 A 
ATOM     28  C   UNL     1      -6.867  17.877  21.905  0.00  0.00    +0.000 A 
ATOM     29  C   UNL     1      -5.552  17.430  21.968  0.00  0.00    +0.000 A 
ATOM     30  C   UNL     1      -5.280  16.072  22.158  0.00  0.00    +0.000 A 
ENDBRANCH   2  25
TORSDOF 1
ENDMDL
MODEL 6
REMARK VINA RESULT:      -7.3      3.247      5.863
REMARK  Name = 
REMARK  4 active torsions:
REMARK  status: ('A' for Active; 'I' for Inactive)
REMARK    1  A    between atoms: C_1  and  C_2
REMARK    2  A    between atoms: C_2  and  C_3
REMARK    3  A    between atoms: C_10  and  C_11
REMARK    4  A    between atoms: C_10  and  C_12
REMARK                            x       y       z     vdW  Elec       q    Type
REMARK                         _______ _______ _______ _____ _____    ______ ____
ROOT
ATOM      1  C   UNL     1      -4.551  12.656  25.123  0.00  0.00    +0.000 C 
ATOM      2  C   UNL     1      -4.601  13.304  23.716  0.00  0.00    +0.000 C 
ATOM      3  C   UNL     1      -5.979  12.921  23.076  0.00  0.00    +0.000 C 
ATOM      4  C   UNL     1      -6.146  13.292  21.570  0.00  0.00    +0.000 C 
ATOM      5  C   UNL     1      -7.444  12.598  21.088  0.00  0.00    +0.000 C 
ATOM      6  C   UNL     1      -6.341  14.798  21.320  0.00  0.00    +0.000 C 
ATOM      7  N   UNL     1      -4.980  12.808  20.825  0.00  0.00    +0.000 N 
ATOM      8  C   UNL     1      -4.855  12.702  19.448  0.00  0.00    +0.000 C 
ATOM      9  O   UNL     1      -5.690  12.988  18.612  0.00  0.00    +0.000 OA
ATOM     10  C   UNL     1      -3.446  12.186  19.209  0.00  0.00    +0.000 C 
ATOM     11  C   UNL     1      -3.040  11.762  17.999  0.00  0.00    +0.000 C 
ATOM     12  S   UNL     1      -4.067  11.539  16.603  0.00  0.00    +0.000 S 
ATOM     13  C   UNL     1      -3.000  10.373  15.889  0.00  0.00    +0.000 C 
ATOM     14  S   UNL     1      -3.324   9.383  14.605  0.00  0.00    +0.000 S 
ATOM     15  N   UNL     1      -1.819  10.378  16.562  0.00  0.00    +0.000 N 
ATOM     16  C   UNL     1      -1.702  11.210  17.640  0.00  0.00    +0.000 C 
ATOM     17  O   UNL     1      -0.627  11.477  18.155  0.00  0.00    +0.000 OA
ATOM     18  C   UNL     1      -2.781  12.162  20.528  0.00  0.00    +0.000 A 
ATOM     19  C   UNL     1      -1.518  11.838  20.990  0.00  0.00    +0.000 A 
ATOM     20  C   UNL     1      -1.244  11.943  22.360  0.00  0.00    +0.000 A 
ATOM     21  C   UNL     1      -2.223  12.378  23.263  0.00  0.00    +0.000 A 
ATOM     22  C   UNL     1      -3.513  12.704  22.820  0.00  0.00    +0.000 A 
ATOM     23  C   UNL     1      -3.753  12.559  21.454  0.00  0.00    +0.000 A 
ATOM     24  H   UNL     1      -1.018   9.873  16.220  0.00  0.00    +0.000 HD
ENDROOT
BRANCH   2  25
ATOM     25  C   UNL     1      -4.488  14.840  23.868  0.00  0.00    +0.000 A 
ATOM     26  C   UNL     1      -5.510  15.615  24.449  0.00  0.00    +0.000 A 
ATOM     27  C   UNL     1      -5.307  16.962  24.767  0.00  0.00    +0.000 A 
ATOM     28  C   UNL     1      -4.092  17.569  24.480  0.00  0.00    +0.000 A 
ATOM     29  C   UNL     1      -3.090  16.844  23.844  0.00  0.00    +0.000 A 
ATOM     30  C   UNL     1      -3.291  15.498  23.526  0.00  0.00    +0.000 A 
ENDBRANCH   2  25
TORSDOF 1
ENDMDL
MODEL 7
REMARK VINA RESULT:      -7.1      3.599      6.806
REMARK  Name = 
REMARK  4 active torsions:
REMARK  status: ('A' for Active; 'I' for Inactive)
REMARK    1  A    between atoms: C_1  and  C_2
REMARK    2  A    between atoms: C_2  and  C_3
REMARK    3  A    between atoms: C_10  and  C_11
REMARK    4  A    between atoms: C_10  and  C_12
REMARK                            x       y       z     vdW  Elec       q    Type
REMARK                         _______ _______ _______ _____ _____    ______ ____
ROOT
ATOM      1  C   UNL     1       1.952  12.128  18.487  0.00  0.00    +0.000 C 
ATOM      2  C   UNL     1       0.594  11.601  19.018  0.00  0.00    +0.000 C 
ATOM      3  C   UNL     1      -0.397  11.563  17.806  0.00  0.00    +0.000 C 
ATOM      4  C   UNL     1      -1.886  11.267  18.165  0.00  0.00    +0.000 C 
ATOM      5  C   UNL     1      -2.710  11.537  16.881  0.00  0.00    +0.000 C 
ATOM      6  C   UNL     1      -2.151   9.799  18.549  0.00  0.00    +0.000 C 
ATOM      7  N   UNL     1      -2.301  12.153  19.256  0.00  0.00    +0.000 N 
ATOM      8  C   UNL     1      -3.597  12.391  19.689  0.00  0.00    +0.000 C 
ATOM      9  O   UNL     1      -4.620  11.912  19.240  0.00  0.00    +0.000 OA
ATOM     10  C   UNL     1      -3.461  13.350  20.860  0.00  0.00    +0.000 C 
ATOM     11  C   UNL     1      -4.527  13.967  21.401  0.00  0.00    +0.000 C 
ATOM     12  S   UNL     1      -6.150  13.946  20.755  0.00  0.00    +0.000 S 
ATOM     13  C   UNL     1      -6.574  15.441  21.523  0.00  0.00    +0.000 C 
ATOM     14  S   UNL     1      -7.917  16.362  21.233  0.00  0.00    +0.000 S 
ATOM     15  N   UNL     1      -5.611  15.770  22.424  0.00  0.00    +0.000 N 
ATOM     16  C   UNL     1      -4.525  14.945  22.527  0.00  0.00    +0.000 C 
ATOM     17  O   UNL     1      -3.737  15.004  23.458  0.00  0.00    +0.000 OA
ATOM     18  C   UNL     1      -2.013  13.493  21.116  0.00  0.00    +0.000 A 
ATOM     19  C   UNL     1      -1.237  14.174  22.037  0.00  0.00    +0.000 A 
ATOM     20  C   UNL     1       0.158  14.065  21.967  0.00  0.00    +0.000 A 
ATOM     21  C   UNL     1       0.775  13.275  20.989  0.00  0.00    +0.000 A 
ATOM     22  C   UNL     1       0.010  12.583  20.040  0.00  0.00    +0.000 A 
ATOM     23  C   UNL     1      -1.372  12.739  20.126  0.00  0.00    +0.000 A 
ATOM     24  H   UNL     1      -5.736  16.529  23.072  0.00  0.00    +0.000 HD
ENDROOT
BRANCH   2  25
ATOM     25  C   UNL     1       0.799  10.177  19.589  0.00  0.00    +0.000 A 
ATOM     26  C   UNL     1       1.460   9.166  18.865  0.00  0.00    +0.000 A 
ATOM     27  C   UNL     1       1.819   7.957  19.471  0.00  0.00    +0.000 A 
ATOM     28  C   UNL     1       1.496   7.722  20.801  0.00  0.00    +0.000 A 
ATOM     29  C   UNL     1       0.783   8.677  21.518  0.00  0.00    +0.000 A 
ATOM     30  C   UNL     1       0.424   9.885  20.914  0.00  0.00    +0.000 A 
ENDBRANCH   2  25
TORSDOF 1
ENDMDL
MODEL 8
REMARK VINA RESULT:      -7.1      2.402      4.564
REMARK  Name = 
REMARK  4 active torsions:
REMARK  status: ('A' for Active; 'I' for Inactive)
REMARK    1  A    between atoms: C_1  and  C_2
REMARK    2  A    between atoms: C_2  and  C_3
REMARK    3  A    between atoms: C_10  and  C_11
REMARK    4  A    between atoms: C_10  and  C_12
REMARK                            x       y       z     vdW  Elec       q    Type
REMARK                         _______ _______ _______ _____ _____    ______ ____
ROOT
ATOM      1  C   UNL     1      -7.138  13.540  22.159  0.00  0.00    +0.000 C 
ATOM      2  C   UNL     1      -6.247  13.562  20.890  0.00  0.00    +0.000 C 
ATOM      3  C   UNL     1      -6.629  12.307  20.032  0.00  0.00    +0.000 C 
ATOM      4  C   UNL     1      -5.698  12.019  18.814  0.00  0.00    +0.000 C 
ATOM      5  C   UNL     1      -6.092  10.619  18.281  0.00  0.00    +0.000 C 
ATOM      6  C   UNL     1      -5.891  12.998  17.641  0.00  0.00    +0.000 C 
ATOM      7  N   UNL     1      -4.302  12.042  19.261  0.00  0.00    +0.000 N 
ATOM      8  C   UNL     1      -3.196  11.586  18.561  0.00  0.00    +0.000 C 
ATOM      9  O   UNL     1      -3.184  11.082  17.455  0.00  0.00    +0.000 OA
ATOM     10  C   UNL     1      -2.003  11.878  19.456  0.00  0.00    +0.000 C 
ATOM     11  C   UNL     1      -0.780  11.384  19.196  0.00  0.00    +0.000 C 
ATOM     12  S   UNL     1      -0.403  10.202  17.966  0.00  0.00    +0.000 S 
ATOM     13  C   UNL     1       1.016   9.653  18.798  0.00  0.00    +0.000 C 
ATOM     14  S   UNL     1       1.903   8.298  18.465  0.00  0.00    +0.000 S 
ATOM     15  N   UNL     1       1.305  10.518  19.806  0.00  0.00    +0.000 N 
ATOM     16  C   UNL     1       0.458  11.572  20.006  0.00  0.00    +0.000 C 
ATOM     17  O   UNL     1       0.749  12.530  20.704  0.00  0.00    +0.000 OA
ATOM     18  C   UNL     1      -2.524  12.647  20.605  0.00  0.00    +0.000 A 
ATOM     19  C   UNL     1      -1.973  13.233  21.731  0.00  0.00    +0.000 A 
ATOM     20  C   UNL     1      -2.811  13.905  22.631  0.00  0.00    +0.000 A 
ATOM     21  C   UNL     1      -4.190  13.997  22.405  0.00  0.00    +0.000 A 
ATOM     22  C   UNL     1      -4.773  13.403  21.277  0.00  0.00    +0.000 A 
ATOM     23  C   UNL     1      -3.910  12.721  20.421  0.00  0.00    +0.000 A 
ATOM     24  H   UNL     1       2.168  10.454  20.321  0.00  0.00    +0.000 HD
ENDROOT
BRANCH   2  25
ATOM     25  C   UNL     1      -6.534  14.860  20.100  0.00  0.00    +0.000 A 
ATOM     26  C   UNL     1      -5.588  15.898  19.992  0.00  0.00    +0.000 A 
ATOM     27  C   UNL     1      -5.780  16.966  19.108  0.00  0.00    +0.000 A 
ATOM     28  C   UNL     1      -6.935  17.034  18.340  0.00  0.00    +0.000 A 
ATOM     29  C   UNL     1      -7.916  16.058  18.478  0.00  0.00    +0.000 A 
ATOM     30  C   UNL     1      -7.725  14.991  19.361  0.00  0.00    +0.000 A 
ENDBRANCH   2  25
TORSDOF 1
ENDMDL
MODEL 9
REMARK VINA RESULT:      -7.0      3.650      6.904
REMARK  Name = 
REMARK  4 active torsions:
REMARK  status: ('A' for Active; 'I' for Inactive)
REMARK    1  A    between atoms: C_1  and  C_2
REMARK    2  A    between atoms: C_2  and  C_3
REMARK    3  A    between atoms: C_10  and  C_11
REMARK    4  A    between atoms: C_10  and  C_12
REMARK                            x       y       z     vdW  Elec       q    Type
REMARK                         _______ _______ _______ _____ _____    ______ ____
ROOT
ATOM      1  C   UNL     1       1.588  13.052  18.196  0.00  0.00    +0.000 C 
ATOM      2  C   UNL     1       0.469  12.265  18.925  0.00  0.00    +0.000 C 
ATOM      3  C   UNL     1      -0.751  12.177  17.946  0.00  0.00    +0.000 C 
ATOM      4  C   UNL     1      -2.067  11.611  18.564  0.00  0.00    +0.000 C 
ATOM      5  C   UNL     1      -3.184  11.859  17.520  0.00  0.00    +0.000 C 
ATOM      6  C   UNL     1      -2.033  10.091  18.809  0.00  0.00    +0.000 C 
ATOM      7  N   UNL     1      -2.350  12.315  19.818  0.00  0.00    +0.000 N 
ATOM      8  C   UNL     1      -3.537  12.299  20.534  0.00  0.00    +0.000 C 
ATOM      9  O   UNL     1      -4.557  11.702  20.249  0.00  0.00    +0.000 OA
ATOM     10  C   UNL     1      -3.280  13.157  21.761  0.00  0.00    +0.000 C 
ATOM     11  C   UNL     1      -4.274  13.541  22.582  0.00  0.00    +0.000 C 
ATOM     12  S   UNL     1      -5.981  13.315  22.285  0.00  0.00    +0.000 S 
ATOM     13  C   UNL     1      -6.429  14.646  23.302  0.00  0.00    +0.000 C 
ATOM     14  S   UNL     1      -7.917  15.359  23.411  0.00  0.00    +0.000 S 
ATOM     15  N   UNL     1      -5.345  15.043  24.020  0.00  0.00    +0.000 N 
ATOM     16  C   UNL     1      -4.160  14.400  23.795  0.00  0.00    +0.000 C 
ATOM     17  O   UNL     1      -3.201  14.501  24.545  0.00  0.00    +0.000 OA
ATOM     18  C   UNL     1      -1.846  13.509  21.730  0.00  0.00    +0.000 A 
ATOM     19  C   UNL     1      -0.987  14.221  22.549  0.00  0.00    +0.000 A 
ATOM     20  C   UNL     1       0.359  14.348  22.182  0.00  0.00    +0.000 A 
ATOM     21  C   UNL     1       0.848  13.760  21.008  0.00  0.00    +0.000 A 
ATOM     22  C   UNL     1      -0.005  13.042  20.158  0.00  0.00    +0.000 A 
ATOM     23  C   UNL     1      -1.342  12.963  20.544  0.00  0.00    +0.000 A 
ATOM     24  H   UNL     1      -5.428  15.710  24.769  0.00  0.00    +0.000 HD
ENDROOT
BRANCH   2  25
ATOM     25  C   UNL     1       0.992  10.848  19.261  0.00  0.00    +0.000 A 
ATOM     26  C   UNL     1       0.833  10.272  20.536  0.00  0.00    +0.000 A 
ATOM     27  C   UNL     1       1.121   8.922  20.763  0.00  0.00    +0.000 A 
ATOM     28  C   UNL     1       1.604   8.130  19.729  0.00  0.00    +0.000 A 
ATOM     29  C   UNL     1       1.834   8.692  18.478  0.00  0.00    +0.000 A 
ATOM     30  C   UNL     1       1.547  10.040  18.250  0.00  0.00    +0.000 A 
ENDBRANCH   2  25
TORSDOF 1
ENDMDL
