MODEL 1
REMARK VINA RESULT:      -8.3      0.000      0.000
REMARK  Name = 
REMARK  5 active torsions:
REMARK  status: ('A' for Active; 'I' for Inactive)
REMARK    1  A    between atoms: C_1  and  C_2
REMARK    2  A    between atoms: C_5  and  N_6
REMARK    3  A    between atoms: C_10  and  N_11
REMARK    4  A    between atoms: C_14  and  C_15
REMARK    5  A    between atoms: C_26  and  C_27
REMARK                            x       y       z     vdW  Elec       q    Type
REMARK                         _______ _______ _______ _____ _____    ______ ____
ROOT
ATOM      1  N   UNL     1       4.772   4.921  18.342  0.00  0.00    +0.000 N 
ATOM      2  C   UNL     1       4.142   6.112  18.673  0.00  0.00    +0.000 C 
ATOM      3  O   UNL     1       4.552   7.242  18.402  0.00  0.00    +0.000 OA
ATOM      4  C   UNL     1       2.804   5.915  19.322  0.00  0.00    +0.000 C 
ATOM      5  C   UNL     1       1.890   6.877  19.079  0.00  0.00    +0.000 C 
ATOM      6  C   UNL     1       2.513   4.648  20.018  0.00  0.00    +0.000 A 
ATOM      7  C   UNL     1       1.346   4.425  20.777  0.00  0.00    +0.000 A 
ATOM      8  C   UNL     1       1.118   3.197  21.408  0.00  0.00    +0.000 A 
ATOM      9  C   UNL     1       2.070   2.185  21.338  0.00  0.00    +0.000 A 
ATOM     10  C   UNL     1       3.238   2.395  20.613  0.00  0.00    +0.000 A 
ATOM     11  C   UNL     1       3.447   3.612  19.943  0.00  0.00    +0.000 A 
ATOM     12  C   UNL     1       4.618   3.725  19.046  0.00  0.00    +0.000 C 
ATOM     13  O   UNL     1       5.385   2.768  18.956  0.00  0.00    +0.000 OA
ENDROOT
BRANCH   1  18
ATOM     14  C   UNL     1       7.288   4.554  13.206  0.00  0.00    +0.000 C 
ATOM     15  C   UNL     1       6.633   4.703  14.546  0.00  0.00    +0.000 A 
ATOM     16  C   UNL     1       5.284   4.404  14.715  0.00  0.00    +0.000 A 
ATOM     17  C   UNL     1       4.713   4.478  15.981  0.00  0.00    +0.000 A 
ATOM     18  C   UNL     1       5.475   4.857  17.104  0.00  0.00    +0.000 A 
ATOM     19  C   UNL     1       6.828   5.185  16.948  0.00  0.00    +0.000 A 
ATOM     20  C   UNL     1       7.741   5.550  18.083  0.00  0.00    +0.000 C 
ATOM     21  C   UNL     1       7.390   5.105  15.659  0.00  0.00    +0.000 A 
ENDBRANCH   1  18
BRANCH   5  22
ATOM     22  N   UNL     1       2.046   8.047  18.358  0.00  0.00    +0.000 N 
ATOM     23  C   UNL     1       1.694   9.298  18.738  0.00  0.00    +0.000 A 
ATOM     24  C   UNL     1       1.862  10.417  17.888  0.00  0.00    +0.000 A 
ATOM     25  C   UNL     1       1.403  11.479  18.626  0.00  0.00    +0.000 A 
ATOM     26  C   UNL     1       1.287  12.928  18.393  0.00  0.00    +0.000 C 
ATOM     27  O   UNL     1       0.977  11.032  19.835  0.00  0.00    +0.000 OA
ATOM     28  N   UNL     1       1.152   9.664  19.905  0.00  0.00    +0.000 NA
ATOM     29  H   UNL     1       2.494   7.903  17.447  0.00  0.00    +0.000 HD
ENDBRANCH   5  22
TORSDOF 2
ENDMDL
MODEL 2
REMARK VINA RESULT:      -7.3      2.041      5.229
REMARK  Name = 
REMARK  5 active torsions:
REMARK  status: ('A' for Active; 'I' for Inactive)
REMARK    1  A    between atoms: C_1  and  C_2
REMARK    2  A    between atoms: C_5  and  N_6
REMARK    3  A    between atoms: C_10  and  N_11
REMARK    4  A    between atoms: C_14  and  C_15
REMARK    5  A    between atoms: C_26  and  C_27
REMARK                            x       y       z     vdW  Elec       q    Type
REMARK                         _______ _______ _______ _____ _____    ______ ____
ROOT
ATOM      1  N   UNL     1       3.684   4.868  18.523  0.00  0.00    +0.000 N 
ATOM      2  C   UNL     1       3.011   5.875  17.845  0.00  0.00    +0.000 C 
ATOM      3  O   UNL     1       1.835   5.833  17.480  0.00  0.00    +0.000 OA
ATOM      4  C   UNL     1       3.825   7.123  17.675  0.00  0.00    +0.000 C 
ATOM      5  C   UNL     1       3.127   8.278  17.660  0.00  0.00    +0.000 C 
ATOM      6  C   UNL     1       5.297   7.042  17.706  0.00  0.00    +0.000 A 
ATOM      7  C   UNL     1       6.145   8.129  17.414  0.00  0.00    +0.000 A 
ATOM      8  C   UNL     1       7.537   7.995  17.470  0.00  0.00    +0.000 A 
ATOM      9  C   UNL     1       8.111   6.764  17.768  0.00  0.00    +0.000 A 
ATOM     10  C   UNL     1       7.291   5.674  18.037  0.00  0.00    +0.000 A 
ATOM     11  C   UNL     1       5.894   5.819  18.024  0.00  0.00    +0.000 A 
ATOM     12  C   UNL     1       5.067   4.681  18.484  0.00  0.00    +0.000 C 
ATOM     13  O   UNL     1       5.632   3.641  18.818  0.00  0.00    +0.000 OA
ENDROOT
BRANCH   1  18
ATOM     14  C   UNL     1       0.815   1.981  22.556  0.00  0.00    +0.000 C 
ATOM     15  C   UNL     1       1.518   2.749  21.478  0.00  0.00    +0.000 A 
ATOM     16  C   UNL     1       2.145   3.960  21.762  0.00  0.00    +0.000 A 
ATOM     17  C   UNL     1       2.856   4.619  20.765  0.00  0.00    +0.000 A 
ATOM     18  C   UNL     1       2.951   4.088  19.462  0.00  0.00    +0.000 A 
ATOM     19  C   UNL     1       2.306   2.883  19.154  0.00  0.00    +0.000 A 
ATOM     20  C   UNL     1       2.386   2.205  17.817  0.00  0.00    +0.000 C 
ATOM     21  C   UNL     1       1.591   2.229  20.176  0.00  0.00    +0.000 A 
ENDBRANCH   1  18
BRANCH   5  22
ATOM     22  N   UNL     1       1.757   8.453  17.724  0.00  0.00    +0.000 N 
ATOM     23  C   UNL     1       1.088   9.576  18.082  0.00  0.00    +0.000 A 
ATOM     24  C   UNL     1      -0.324   9.619  18.155  0.00  0.00    +0.000 A 
ATOM     25  C   UNL     1      -0.608  10.906  18.537  0.00  0.00    +0.000 A 
ATOM     26  C   UNL     1      -1.845  11.660  18.794  0.00  0.00    +0.000 C 
ATOM     27  O   UNL     1       0.554  11.591  18.694  0.00  0.00    +0.000 OA
ATOM     28  N   UNL     1       1.619  10.757  18.415  0.00  0.00    +0.000 NA
ATOM     29  H   UNL     1       1.229   7.618  17.449  0.00  0.00    +0.000 HD
ENDBRANCH   5  22
TORSDOF 2
ENDMDL
MODEL 3
REMARK VINA RESULT:      -7.0      8.898     11.132
REMARK  Name = 
REMARK  5 active torsions:
REMARK  status: ('A' for Active; 'I' for Inactive)
REMARK    1  A    between atoms: C_1  and  C_2
REMARK    2  A    between atoms: C_5  and  N_6
REMARK    3  A    between atoms: C_10  and  N_11
REMARK    4  A    between atoms: C_14  and  C_15
REMARK    5  A    between atoms: C_26  and  C_27
REMARK                            x       y       z     vdW  Elec       q    Type
REMARK                         _______ _______ _______ _____ _____    ______ ____
ROOT
ATOM      1  N   UNL     1       8.098  14.794  19.743  0.00  0.00    +0.000 N 
ATOM      2  C   UNL     1       8.059  14.136  20.965  0.00  0.00    +0.000 C 
ATOM      3  O   UNL     1       7.313  14.411  21.906  0.00  0.00    +0.000 OA
ATOM      4  C   UNL     1       8.957  12.935  21.020  0.00  0.00    +0.000 C 
ATOM      5  C   UNL     1       8.531  11.924  21.806  0.00  0.00    +0.000 C 
ATOM      6  C   UNL     1      10.120  12.855  20.118  0.00  0.00    +0.000 A 
ATOM      7  C   UNL     1      11.098  11.842  20.194  0.00  0.00    +0.000 A 
ATOM      8  C   UNL     1      12.177  11.811  19.304  0.00  0.00    +0.000 A 
ATOM      9  C   UNL     1      12.330  12.814  18.353  0.00  0.00    +0.000 A 
ATOM     10  C   UNL     1      11.387  13.834  18.277  0.00  0.00    +0.000 A 
ATOM     11  C   UNL     1      10.281  13.842  19.142  0.00  0.00    +0.000 A 
ATOM     12  C   UNL     1       9.218  14.844  18.911  0.00  0.00    +0.000 C 
ATOM     13  O   UNL     1       9.365  15.658  18.001  0.00  0.00    +0.000 OA
ENDROOT
BRANCH   1  18
ATOM     14  C   UNL     1       3.141  16.499  17.427  0.00  0.00    +0.000 C 
ATOM     15  C   UNL     1       4.413  16.048  18.081  0.00  0.00    +0.000 A 
ATOM     16  C   UNL     1       4.949  14.793  17.803  0.00  0.00    +0.000 A 
ATOM     17  C   UNL     1       6.168  14.424  18.361  0.00  0.00    +0.000 A 
ATOM     18  C   UNL     1       6.875  15.296  19.213  0.00  0.00    +0.000 A 
ATOM     19  C   UNL     1       6.338  16.552  19.523  0.00  0.00    +0.000 A 
ATOM     20  C   UNL     1       7.031  17.576  20.375  0.00  0.00    +0.000 C 
ATOM     21  C   UNL     1       5.102  16.910  18.948  0.00  0.00    +0.000 A 
ENDBRANCH   1  18
BRANCH   5  22
ATOM     22  N   UNL     1       7.405  11.876  22.608  0.00  0.00    +0.000 N 
ATOM     23  C   UNL     1       7.357  11.949  23.959  0.00  0.00    +0.000 A 
ATOM     24  C   UNL     1       6.141  11.840  24.675  0.00  0.00    +0.000 A 
ATOM     25  C   UNL     1       6.506  11.971  25.991  0.00  0.00    +0.000 A 
ATOM     26  C   UNL     1       5.779  11.973  27.271  0.00  0.00    +0.000 C 
ATOM     27  O   UNL     1       7.851  12.138  26.067  0.00  0.00    +0.000 OA
ATOM     28  N   UNL     1       8.387  12.118  24.795  0.00  0.00    +0.000 NA
ATOM     29  H   UNL     1       6.533  11.786  22.075  0.00  0.00    +0.000 HD
ENDBRANCH   5  22
TORSDOF 2
ENDMDL
MODEL 4
REMARK VINA RESULT:      -6.8      0.382      1.348
REMARK  Name = 
REMARK  5 active torsions:
REMARK  status: ('A' for Active; 'I' for Inactive)
REMARK    1  A    between atoms: C_1  and  C_2
REMARK    2  A    between atoms: C_5  and  N_6
REMARK    3  A    between atoms: C_10  and  N_11
REMARK    4  A    between atoms: C_14  and  C_15
REMARK    5  A    between atoms: C_26  and  C_27
REMARK                            x       y       z     vdW  Elec       q    Type
REMARK                         _______ _______ _______ _____ _____    ______ ____
ROOT
ATOM      1  N   UNL     1       4.780   4.948  18.377  0.00  0.00    +0.000 N 
ATOM      2  C   UNL     1       4.153   6.132  18.740  0.00  0.00    +0.000 C 
ATOM      3  O   UNL     1       4.527   7.266  18.434  0.00  0.00    +0.000 OA
ATOM      4  C   UNL     1       2.863   5.920  19.476  0.00  0.00    +0.000 C 
ATOM      5  C   UNL     1       1.920   6.866  19.285  0.00  0.00    +0.000 C 
ATOM      6  C   UNL     1       2.638   4.655  20.199  0.00  0.00    +0.000 A 
ATOM      7  C   UNL     1       1.526   4.421  21.034  0.00  0.00    +0.000 A 
ATOM      8  C   UNL     1       1.359   3.195  21.688  0.00  0.00    +0.000 A 
ATOM      9  C   UNL     1       2.321   2.198  21.564  0.00  0.00    +0.000 A 
ATOM     10  C   UNL     1       3.436   2.419  20.763  0.00  0.00    +0.000 A 
ATOM     11  C   UNL     1       3.582   3.633  20.072  0.00  0.00    +0.000 A 
ATOM     12  C   UNL     1       4.690   3.756  19.100  0.00  0.00    +0.000 C 
ATOM     13  O   UNL     1       5.464   2.810  18.967  0.00  0.00    +0.000 OA
ENDROOT
BRANCH   1  18
ATOM     14  C   UNL     1       7.562   4.880  13.368  0.00  0.00    +0.000 C 
ATOM     15  C   UNL     1       6.844   4.845  14.684  0.00  0.00    +0.000 A 
ATOM     16  C   UNL     1       7.394   5.454  15.809  0.00  0.00    +0.000 A 
ATOM     17  C   UNL     1       6.677   5.475  17.001  0.00  0.00    +0.000 A 
ATOM     18  C   UNL     1       5.401   4.884  17.098  0.00  0.00    +0.000 A 
ATOM     19  C   UNL     1       4.845   4.246  15.981  0.00  0.00    +0.000 A 
ATOM     20  C   UNL     1       3.475   3.632  15.960  0.00  0.00    +0.000 C 
ATOM     21  C   UNL     1       5.584   4.234  14.782  0.00  0.00    +0.000 A 
ENDBRANCH   1  18
BRANCH   5  22
ATOM     22  N   UNL     1       2.011   8.032  18.547  0.00  0.00    +0.000 N 
ATOM     23  C   UNL     1       1.585   9.267  18.906  0.00  0.00    +0.000 A 
ATOM     24  C   UNL     1       1.691  10.380  18.040  0.00  0.00    +0.000 A 
ATOM     25  C   UNL     1       1.167  11.425  18.759  0.00  0.00    +0.000 A 
ATOM     26  C   UNL     1       0.967  12.860  18.503  0.00  0.00    +0.000 C 
ATOM     27  O   UNL     1       0.762  10.971  19.973  0.00  0.00    +0.000 OA
ATOM     28  N   UNL     1       1.017   9.617  20.065  0.00  0.00    +0.000 NA
ATOM     29  H   UNL     1       2.472   7.901  17.639  0.00  0.00    +0.000 HD
ENDBRANCH   5  22
TORSDOF 2
ENDMDL
MODEL 5
REMARK VINA RESULT:      -6.7      7.889     12.059
REMARK  Name = 
REMARK  5 active torsions:
REMARK  status: ('A' for Active; 'I' for Inactive)
REMARK    1  A    between atoms: C_1  and  C_2
REMARK    2  A    between atoms: C_5  and  N_6
REMARK    3  A    between atoms: C_10  and  N_11
REMARK    4  A    between atoms: C_14  and  C_15
REMARK    5  A    between atoms: C_26  and  C_27
REMARK                            x       y       z     vdW  Elec       q    Type
REMARK                         _______ _______ _______ _____ _____    ______ ____
ROOT
ATOM      1  N   UNL     1      -1.944  14.109  22.273  0.00  0.00    +0.000 N 
ATOM      2  C   UNL     1      -3.082  14.230  21.488  0.00  0.00    +0.000 C 
ATOM      3  O   UNL     1      -3.237  13.740  20.368  0.00  0.00    +0.000 OA
ATOM      4  C   UNL     1      -4.207  14.941  22.180  0.00  0.00    +0.000 C 
ATOM      5  C   UNL     1      -5.449  14.548  21.828  0.00  0.00    +0.000 C 
ATOM      6  C   UNL     1      -3.910  15.871  23.285  0.00  0.00    +0.000 A 
ATOM      7  C   UNL     1      -4.880  16.690  23.898  0.00  0.00    +0.000 A 
ATOM      8  C   UNL     1      -4.542  17.546  24.951  0.00  0.00    +0.000 A 
ATOM      9  C   UNL     1      -3.222  17.640  25.382  0.00  0.00    +0.000 A 
ATOM     10  C   UNL     1      -2.248  16.856  24.775  0.00  0.00    +0.000 A 
ATOM     11  C   UNL     1      -2.595  15.965  23.747  0.00  0.00    +0.000 A 
ATOM     12  C   UNL     1      -1.561  15.029  23.252  0.00  0.00    +0.000 C 
ATOM     13  O   UNL     1      -0.429  15.099  23.728  0.00  0.00    +0.000 OA
ENDROOT
BRANCH   1  18
ATOM     14  C   UNL     1       0.778   9.066  22.309  0.00  0.00    +0.000 C 
ATOM     15  C   UNL     1       0.043  10.372  22.253  0.00  0.00    +0.000 A 
ATOM     16  C   UNL     1      -1.004  10.636  23.132  0.00  0.00    +0.000 A 
ATOM     17  C   UNL     1      -1.623  11.881  23.114  0.00  0.00    +0.000 A 
ATOM     18  C   UNL     1      -1.216  12.887  22.214  0.00  0.00    +0.000 A 
ATOM     19  C   UNL     1      -0.180  12.629  21.307  0.00  0.00    +0.000 A 
ATOM     20  C   UNL     1       0.366  13.643  20.344  0.00  0.00    +0.000 C 
ATOM     21  C   UNL     1       0.436  11.362  21.339  0.00  0.00    +0.000 A 
ENDBRANCH   1  18
BRANCH   5  22
ATOM     22  N   UNL     1      -5.817  13.617  20.875  0.00  0.00    +0.000 N 
ATOM     23  C   UNL     1      -6.434  12.429  21.082  0.00  0.00    +0.000 A 
ATOM     24  C   UNL     1      -6.719  11.535  20.024  0.00  0.00    +0.000 A 
ATOM     25  C   UNL     1      -7.341  10.472  20.631  0.00  0.00    +0.000 A 
ATOM     26  C   UNL     1      -7.916   9.203  20.160  0.00  0.00    +0.000 C 
ATOM     27  O   UNL     1      -7.418  10.705  21.967  0.00  0.00    +0.000 OA
ATOM     28  N   UNL     1      -6.844  11.928  22.253  0.00  0.00    +0.000 NA
ATOM     29  H   UNL     1      -5.590  13.907  19.917  0.00  0.00    +0.000 HD
ENDBRANCH   5  22
TORSDOF 2
ENDMDL
MODEL 6
REMARK VINA RESULT:      -6.6      6.355     10.721
REMARK  Name = 
REMARK  5 active torsions:
REMARK  status: ('A' for Active; 'I' for Inactive)
REMARK    1  A    between atoms: C_1  and  C_2
REMARK    2  A    between atoms: C_5  and  N_6
REMARK    3  A    between atoms: C_10  and  N_11
REMARK    4  A    between atoms: C_14  and  C_15
REMARK    5  A    between atoms: C_26  and  C_27
REMARK                            x       y       z     vdW  Elec       q    Type
REMARK                         _______ _______ _______ _____ _____    ______ ____
ROOT
ATOM      1  N   UNL     1      -0.493  13.143  20.983  0.00  0.00    +0.000 N 
ATOM      2  C   UNL     1      -1.676  13.471  20.335  0.00  0.00    +0.000 C 
ATOM      3  O   UNL     1      -2.150  12.881  19.363  0.00  0.00    +0.000 OA
ATOM      4  C   UNL     1      -2.430  14.582  21.004  0.00  0.00    +0.000 C 
ATOM      5  C   UNL     1      -3.774  14.525  20.893  0.00  0.00    +0.000 C 
ATOM      6  C   UNL     1      -1.706  15.542  21.857  0.00  0.00    +0.000 A 
ATOM      7  C   UNL     1      -2.298  16.697  22.408  0.00  0.00    +0.000 A 
ATOM      8  C   UNL     1      -1.563  17.568  23.221  0.00  0.00    +0.000 A 
ATOM      9  C   UNL     1      -0.213  17.333  23.459  0.00  0.00    +0.000 A 
ATOM     10  C   UNL     1       0.394  16.211  22.905  0.00  0.00    +0.000 A 
ATOM     11  C   UNL     1      -0.354  15.314  22.126  0.00  0.00    +0.000 A 
ATOM     12  C   UNL     1       0.288  14.049  21.704  0.00  0.00    +0.000 C 
ATOM     13  O   UNL     1       1.462  13.854  22.014  0.00  0.00    +0.000 OA
ENDROOT
BRANCH   1  18
ATOM     14  C   UNL     1       1.108   7.641  21.062  0.00  0.00    +0.000 C 
ATOM     15  C   UNL     1       0.722   9.090  21.083  0.00  0.00    +0.000 A 
ATOM     16  C   UNL     1       1.136   9.950  20.069  0.00  0.00    +0.000 A 
ATOM     17  C   UNL     1       0.705  11.273  20.067  0.00  0.00    +0.000 A 
ATOM     18  C   UNL     1      -0.142  11.766  21.080  0.00  0.00    +0.000 A 
ATOM     19  C   UNL     1      -0.548  10.920  22.120  0.00  0.00    +0.000 A 
ATOM     20  C   UNL     1      -1.489  11.328  23.217  0.00  0.00    +0.000 C 
ATOM     21  C   UNL     1      -0.103   9.584  22.106  0.00  0.00    +0.000 A 
ENDBRANCH   1  18
BRANCH   5  22
ATOM     22  N   UNL     1      -4.539  13.607  20.196  0.00  0.00    +0.000 N 
ATOM     23  C   UNL     1      -5.434  12.728  20.707  0.00  0.00    +0.000 A 
ATOM     24  C   UNL     1      -6.126  11.801  19.893  0.00  0.00    +0.000 A 
ATOM     25  C   UNL     1      -6.927  11.110  20.767  0.00  0.00    +0.000 A 
ATOM     26  C   UNL     1      -7.912  10.025  20.631  0.00  0.00    +0.000 C 
ATOM     27  O   UNL     1      -6.726  11.581  22.025  0.00  0.00    +0.000 OA
ATOM     28  N   UNL     1      -5.785  12.591  21.990  0.00  0.00    +0.000 NA
ATOM     29  H   UNL     1      -4.388  13.642  19.182  0.00  0.00    +0.000 HD
ENDBRANCH   5  22
TORSDOF 2
ENDMDL
MODEL 7
REMARK VINA RESULT:      -6.6      3.288      9.923
REMARK  Name = 
REMARK  5 active torsions:
REMARK  status: ('A' for Active; 'I' for Inactive)
REMARK    1  A    between atoms: C_1  and  C_2
REMARK    2  A    between atoms: C_5  and  N_6
REMARK    3  A    between atoms: C_10  and  N_11
REMARK    4  A    between atoms: C_14  and  C_15
REMARK    5  A    between atoms: C_26  and  C_27
REMARK                            x       y       z     vdW  Elec       q    Type
REMARK                         _______ _______ _______ _____ _____    ______ ____
ROOT
ATOM      1  N   UNL     1      -0.549  12.345  19.201  0.00  0.00    +0.000 N 
ATOM      2  C   UNL     1       0.281  11.242  19.338  0.00  0.00    +0.000 C 
ATOM      3  O   UNL     1      -0.033  10.165  19.846  0.00  0.00    +0.000 OA
ATOM      4  C   UNL     1       1.623  11.426  18.692  0.00  0.00    +0.000 C 
ATOM      5  C   UNL     1       2.192  10.305  18.200  0.00  0.00    +0.000 C 
ATOM      6  C   UNL     1       2.148  12.787  18.481  0.00  0.00    +0.000 A 
ATOM      7  C   UNL     1       3.451  13.057  18.016  0.00  0.00    +0.000 A 
ATOM      8  C   UNL     1       3.893  14.371  17.825  0.00  0.00    +0.000 A 
ATOM      9  C   UNL     1       3.063  15.442  18.139  0.00  0.00    +0.000 A 
ATOM     10  C   UNL     1       1.781  15.196  18.619  0.00  0.00    +0.000 A 
ATOM     11  C   UNL     1       1.323  13.877  18.771  0.00  0.00    +0.000 A 
ATOM     12  C   UNL     1      -0.100  13.665  19.118  0.00  0.00    +0.000 C 
ATOM     13  O   UNL     1      -0.813  14.650  19.303  0.00  0.00    +0.000 OA
ENDROOT
BRANCH   1  18
ATOM     14  C   UNL     1      -6.020  11.336  17.825  0.00  0.00    +0.000 C 
ATOM     15  C   UNL     1      -4.589  11.555  18.214  0.00  0.00    +0.000 A 
ATOM     16  C   UNL     1      -3.567  11.404  17.280  0.00  0.00    +0.000 A 
ATOM     17  C   UNL     1      -2.254  11.685  17.642  0.00  0.00    +0.000 A 
ATOM     18  C   UNL     1      -1.931  12.115  18.945  0.00  0.00    +0.000 A 
ATOM     19  C   UNL     1      -2.944  12.248  19.903  0.00  0.00    +0.000 A 
ATOM     20  C   UNL     1      -2.718  12.748  21.301  0.00  0.00    +0.000 C 
ATOM     21  C   UNL     1      -4.269  11.960  19.520  0.00  0.00    +0.000 A 
ENDBRANCH   1  18
BRANCH   5  22
ATOM     22  N   UNL     1       1.725   9.006  18.267  0.00  0.00    +0.000 N 
ATOM     23  C   UNL     1       2.436   7.868  18.080  0.00  0.00    +0.000 A 
ATOM     24  C   UNL     1       1.833   6.589  18.127  0.00  0.00    +0.000 A 
ATOM     25  C   UNL     1       2.867   5.714  17.901  0.00  0.00    +0.000 A 
ATOM     26  C   UNL     1       2.985   4.250  17.824  0.00  0.00    +0.000 C 
ATOM     27  O   UNL     1       4.014   6.418  17.720  0.00  0.00    +0.000 OA
ATOM     28  N   UNL     1       3.745   7.768  17.825  0.00  0.00    +0.000 NA
ATOM     29  H   UNL     1       0.728   8.945  18.499  0.00  0.00    +0.000 HD
ENDBRANCH   5  22
TORSDOF 2
ENDMDL
MODEL 8
REMARK VINA RESULT:      -6.5      5.102      9.310
REMARK  Name = 
REMARK  5 active torsions:
REMARK  status: ('A' for Active; 'I' for Inactive)
REMARK    1  A    between atoms: C_1  and  C_2
REMARK    2  A    between atoms: C_5  and  N_6
REMARK    3  A    between atoms: C_10  and  N_11
REMARK    4  A    between atoms: C_14  and  C_15
REMARK    5  A    between atoms: C_26  and  C_27
REMARK                            x       y       z     vdW  Elec       q    Type
REMARK                         _______ _______ _______ _____ _____    ______ ____
ROOT
ATOM      1  N   UNL     1       0.809  12.107  18.782  0.00  0.00    +0.000 N 
ATOM      2  C   UNL     1      -0.442  12.690  18.928  0.00  0.00    +0.000 C 
ATOM      3  O   UNL     1      -1.521  12.095  18.899  0.00  0.00    +0.000 OA
ATOM      4  C   UNL     1      -0.380  14.155  19.249  0.00  0.00    +0.000 C 
ATOM      5  C   UNL     1      -1.383  14.626  20.019  0.00  0.00    +0.000 C 
ATOM      6  C   UNL     1       0.813  14.933  18.869  0.00  0.00    +0.000 A 
ATOM      7  C   UNL     1       0.905  16.333  18.998  0.00  0.00    +0.000 A 
ATOM      8  C   UNL     1       2.068  17.018  18.631  0.00  0.00    +0.000 A 
ATOM      9  C   UNL     1       3.144  16.329  18.082  0.00  0.00    +0.000 A 
ATOM     10  C   UNL     1       3.064  14.949  17.926  0.00  0.00    +0.000 A 
ATOM     11  C   UNL     1       1.913  14.256  18.335  0.00  0.00    +0.000 A 
ATOM     12  C   UNL     1       1.940  12.777  18.311  0.00  0.00    +0.000 C 
ATOM     13  O   UNL     1       2.951  12.214  17.894  0.00  0.00    +0.000 OA
ENDROOT
BRANCH   1  18
ATOM     14  C   UNL     1       1.687   6.739  20.585  0.00  0.00    +0.000 C 
ATOM     15  C   UNL     1       1.502   8.158  20.139  0.00  0.00    +0.000 A 
ATOM     16  C   UNL     1       1.699   8.517  18.808  0.00  0.00    +0.000 A 
ATOM     17  C   UNL     1       1.449   9.823  18.401  0.00  0.00    +0.000 A 
ATOM     18  C   UNL     1       1.004  10.800  19.313  0.00  0.00    +0.000 A 
ATOM     19  C   UNL     1       0.824  10.462  20.661  0.00  0.00    +0.000 A 
ATOM     20  C   UNL     1       0.305  11.410  21.703  0.00  0.00    +0.000 C 
ATOM     21  C   UNL     1       1.082   9.135  21.056  0.00  0.00    +0.000 A 
ENDBRANCH   1  18
BRANCH   5  22
ATOM     22  N   UNL     1      -2.488  13.947  20.500  0.00  0.00    +0.000 N 
ATOM     23  C   UNL     1      -2.786  13.677  21.794  0.00  0.00    +0.000 A 
ATOM     24  C   UNL     1      -3.928  12.928  22.161  0.00  0.00    +0.000 A 
ATOM     25  C   UNL     1      -3.881  12.882  23.532  0.00  0.00    +0.000 A 
ATOM     26  C   UNL     1      -4.734  12.295  24.577  0.00  0.00    +0.000 C 
ATOM     27  O   UNL     1      -2.780  13.549  23.963  0.00  0.00    +0.000 OA
ATOM     28  N   UNL     1      -2.088  14.042  22.874  0.00  0.00    +0.000 NA
ATOM     29  H   UNL     1      -3.131  13.645  19.760  0.00  0.00    +0.000 HD
ENDBRANCH   5  22
TORSDOF 2
ENDMDL
MODEL 9
REMARK VINA RESULT:      -6.5      4.165     10.164
REMARK  Name = 
REMARK  5 active torsions:
REMARK  status: ('A' for Active; 'I' for Inactive)
REMARK    1  A    between atoms: C_1  and  C_2
REMARK    2  A    between atoms: C_5  and  N_6
REMARK    3  A    between atoms: C_10  and  N_11
REMARK    4  A    between atoms: C_14  and  C_15
REMARK    5  A    between atoms: C_26  and  C_27
REMARK                            x       y       z     vdW  Elec       q    Type
REMARK                         _______ _______ _______ _____ _____    ______ ____
ROOT
ATOM      1  N   UNL     1      -0.135  14.668  20.172  0.00  0.00    +0.000 N 
ATOM      2  C   UNL     1      -0.481  13.488  19.529  0.00  0.00    +0.000 C 
ATOM      3  O   UNL     1      -0.223  13.205  18.357  0.00  0.00    +0.000 OA
ATOM      4  C   UNL     1      -1.125  12.484  20.438  0.00  0.00    +0.000 C 
ATOM      5  C   UNL     1      -0.893  11.189  20.136  0.00  0.00    +0.000 C 
ATOM      6  C   UNL     1      -1.806  12.943  21.662  0.00  0.00    +0.000 A 
ATOM      7  C   UNL     1      -2.561  12.097  22.500  0.00  0.00    +0.000 A 
ATOM      8  C   UNL     1      -3.177  12.587  23.657  0.00  0.00    +0.000 A 
ATOM      9  C   UNL     1      -3.096  13.939  23.975  0.00  0.00    +0.000 A 
ATOM     10  C   UNL     1      -2.375  14.794  23.149  0.00  0.00    +0.000 A 
ATOM     11  C   UNL     1      -1.720  14.294  22.011  0.00  0.00    +0.000 A 
ATOM     12  C   UNL     1      -0.825  15.203  21.262  0.00  0.00    +0.000 C 
ATOM     13  O   UNL     1      -0.724  16.370  21.637  0.00  0.00    +0.000 OA
ENDROOT
BRANCH   1  18
ATOM     14  C   UNL     1       5.007  16.916  19.012  0.00  0.00    +0.000 C 
ATOM     15  C   UNL     1       3.662  16.305  19.267  0.00  0.00    +0.000 A 
ATOM     16  C   UNL     1       3.515  15.268  20.184  0.00  0.00    +0.000 A 
ATOM     17  C   UNL     1       2.248  14.766  20.462  0.00  0.00    +0.000 A 
ATOM     18  C   UNL     1       1.102  15.283  19.824  0.00  0.00    +0.000 A 
ATOM     19  C   UNL     1       1.235  16.309  18.880  0.00  0.00    +0.000 A 
ATOM     20  C   UNL     1       0.078  16.966  18.183  0.00  0.00    +0.000 C 
ATOM     21  C   UNL     1       2.526  16.806  18.612  0.00  0.00    +0.000 A 
ENDBRANCH   1  18
BRANCH   5  22
ATOM     22  N   UNL     1      -0.186  10.671  19.067  0.00  0.00    +0.000 N 
ATOM     23  C   UNL     1       0.729   9.673  19.094  0.00  0.00    +0.000 A 
ATOM     24  C   UNL     1       1.425   9.260  17.934  0.00  0.00    +0.000 A 
ATOM     25  C   UNL     1       2.239   8.243  18.367  0.00  0.00    +0.000 A 
ATOM     26  C   UNL     1       3.214   7.351  17.719  0.00  0.00    +0.000 C 
ATOM     27  O   UNL     1       2.054   8.061  19.699  0.00  0.00    +0.000 OA
ATOM     28  N   UNL     1       1.113   8.961  20.159  0.00  0.00    +0.000 NA
ATOM     29  H   UNL     1      -0.425  11.113  18.172  0.00  0.00    +0.000 HD
ENDBRANCH   5  22
TORSDOF 2
ENDMDL
