MODEL 1
REMARK VINA RESULT:      -6.8      0.000      0.000
REMARK  Name = 
REMARK  9 active torsions:
REMARK  status: ('A' for Active; 'I' for Inactive)
REMARK    1  A    between atoms: C_1  and  C_2
REMARK    2  A    between atoms: C_2  and  O_3
REMARK    3  A    between atoms: O_3  and  C_4
REMARK    4  A    between atoms: C_4  and  C_5
REMARK    5  A    between atoms: C_5  and  C_6
REMARK    6  A    between atoms: C_6  and  N_7
REMARK    7  A    between atoms: N_7  and  C_18
REMARK    8  A    between atoms: N_10  and  C_11
REMARK    9  A    between atoms: C_22  and  C_23
REMARK                            x       y       z     vdW  Elec       q    Type
REMARK                         _______ _______ _______ _____ _____    ______ ____
ROOT
ATOM      1  N   UNL     1       2.851   6.993  17.909  0.00  0.00    +0.000 N 
ATOM      2  C   UNL     1       2.471   8.353  18.045  0.00  0.00    +0.000 C 
ATOM      3  O   UNL     1       3.045   9.267  17.461  0.00  0.00    +0.000 OA
ATOM      4  N   UNL     1       1.420   8.540  18.921  0.00  0.00    +0.000 N 
ATOM      5  H   UNL     1       1.192   7.758  19.505  0.00  0.00    +0.000 HD
ENDROOT
BRANCH   1   6
ATOM      6  C   UNL     1       2.101   5.897  18.596  0.00  0.00    +0.000 C 
ATOM      7  C   UNL     1       2.607   5.447  19.970  0.00  0.00    +0.000 C 
ATOM      8  C   UNL     1       3.803   4.512  19.862  0.00  0.00    +0.000 C 
ATOM      9  N   UNL     1       3.492   3.352  19.033  0.00  0.00    +0.000 N 
ATOM     10  C   UNL     1       3.948   2.060  19.258  0.00  0.00    +0.000 C 
ATOM     11  C   UNL     1       4.787   1.773  20.474  0.00  0.00    +0.000 C 
ATOM     12  O   UNL     1       3.672   1.126  18.493  0.00  0.00    +0.000 OA
ATOM     13  C   UNL     1       2.981   3.641  17.705  0.00  0.00    +0.000 C 
ATOM     14  C   UNL     1       1.832   4.633  17.738  0.00  0.00    +0.000 C 
ENDBRANCH   1   6
BRANCH   4  15
ATOM     15  C   UNL     1       0.723   9.686  19.291  0.00  0.00    +0.000 A 
ATOM     16  C   UNL     1       0.925  10.389  20.486  0.00  0.00    +0.000 A 
ATOM     17  C   UNL     1       0.076  11.436  20.807  0.00  0.00    +0.000 A 
ATOM     18  C   UNL     1      -0.950  11.813  19.952  0.00  0.00    +0.000 A 
ATOM     19 CL   UNL     1      -2.048  13.048  20.410  0.00  0.00    +0.000 Cl
ATOM     20  C   UNL     1      -1.116  11.176  18.721  0.00  0.00    +0.000 A 
ATOM     21  C   UNL     1      -0.261  10.131  18.389  0.00  0.00    +0.000 A 
ENDBRANCH   4  15
BRANCH   1  22
ATOM     22  C   UNL     1       4.018   6.641  17.059  0.00  0.00    +0.000 C 
BRANCH  22  23
ATOM     23  C   UNL     1       5.428   6.562  17.664  0.00  0.00    +0.000 C 
BRANCH  23  24
ATOM     24  C   UNL     1       6.472   6.064  16.680  0.00  0.00    +0.000 C 
BRANCH  24  25
ATOM     25  O   UNL     1       7.573   6.970  16.733  0.00  0.00    +0.000 OA
BRANCH  25  27
ATOM     26  C   UNL     1       8.225   8.887  17.938  0.00  0.00    +0.000 C 
ATOM     27  C   UNL     1       7.860   7.420  18.051  0.00  0.00    +0.000 C 
ENDBRANCH  25  27
ENDBRANCH  24  25
ENDBRANCH  23  24
ENDBRANCH  22  23
ENDBRANCH   1  22
TORSDOF 7
ENDMDL
MODEL 2
REMARK VINA RESULT:      -6.7      1.182      1.781
REMARK  Name = 
REMARK  9 active torsions:
REMARK  status: ('A' for Active; 'I' for Inactive)
REMARK    1  A    between atoms: C_1  and  C_2
REMARK    2  A    between atoms: C_2  and  O_3
REMARK    3  A    between atoms: O_3  and  C_4
REMARK    4  A    between atoms: C_4  and  C_5
REMARK    5  A    between atoms: C_5  and  C_6
REMARK    6  A    between atoms: C_6  and  N_7
REMARK    7  A    between atoms: N_7  and  C_18
REMARK    8  A    between atoms: N_10  and  C_11
REMARK    9  A    between atoms: C_22  and  C_23
REMARK                            x       y       z     vdW  Elec       q    Type
REMARK                         _______ _______ _______ _____ _____    ______ ____
ROOT
ATOM      1  N   UNL     1       3.354   7.138  18.153  0.00  0.00    +0.000 N 
ATOM      2  C   UNL     1       2.577   8.320  18.031  0.00  0.00    +0.000 C 
ATOM      3  O   UNL     1       2.629   9.053  17.049  0.00  0.00    +0.000 OA
ATOM      4  N   UNL     1       1.792   8.571  19.138  0.00  0.00    +0.000 N 
ATOM      5  H   UNL     1       2.007   8.038  19.959  0.00  0.00    +0.000 HD
ENDROOT
BRANCH   1   6
ATOM      6  C   UNL     1       3.232   6.240  19.342  0.00  0.00    +0.000 C 
ATOM      7  C   UNL     1       4.349   5.218  19.573  0.00  0.00    +0.000 C 
ATOM      8  C   UNL     1       4.202   3.995  18.679  0.00  0.00    +0.000 C 
ATOM      9  N   UNL     1       2.897   3.367  18.857  0.00  0.00    +0.000 N 
ATOM     10  C   UNL     1       2.655   2.000  18.831  0.00  0.00    +0.000 C 
ATOM     11  C   UNL     1       3.809   1.048  18.668  0.00  0.00    +0.000 C 
ATOM     12  O   UNL     1       1.515   1.534  18.956  0.00  0.00    +0.000 OA
ATOM     13  C   UNL     1       1.746   4.235  18.684  0.00  0.00    +0.000 C 
ATOM     14  C   UNL     1       1.869   5.514  19.492  0.00  0.00    +0.000 C 
ENDBRANCH   1   6
BRANCH   4  15
ATOM     15  C   UNL     1       0.864   9.575  19.399  0.00  0.00    +0.000 A 
ATOM     16  C   UNL     1       0.736  10.242  20.625  0.00  0.00    +0.000 A 
ATOM     17  C   UNL     1      -0.314  11.126  20.808  0.00  0.00    +0.000 A 
ATOM     18  C   UNL     1      -1.222  11.379  19.790  0.00  0.00    +0.000 A 
ATOM     19 CL   UNL     1      -2.570  12.404  20.066  0.00  0.00    +0.000 Cl
ATOM     20  C   UNL     1      -1.064  10.785  18.537  0.00  0.00    +0.000 A 
ATOM     21  C   UNL     1      -0.006   9.904  18.343  0.00  0.00    +0.000 A 
ENDBRANCH   4  15
BRANCH   1  22
ATOM     22  C   UNL     1       4.308   6.775  17.072  0.00  0.00    +0.000 C 
BRANCH  22  23
ATOM     23  C   UNL     1       5.731   7.355  17.062  0.00  0.00    +0.000 C 
BRANCH  23  24
ATOM     24  C   UNL     1       6.806   6.295  17.228  0.00  0.00    +0.000 C 
BRANCH  24  25
ATOM     25  O   UNL     1       7.247   5.929  15.920  0.00  0.00    +0.000 OA
BRANCH  25  27
ATOM     26  C   UNL     1       5.966   4.542  14.511  0.00  0.00    +0.000 C 
ATOM     27  C   UNL     1       7.005   4.562  15.616  0.00  0.00    +0.000 C 
ENDBRANCH  25  27
ENDBRANCH  24  25
ENDBRANCH  23  24
ENDBRANCH  22  23
ENDBRANCH   1  22
TORSDOF 7
ENDMDL
MODEL 3
REMARK VINA RESULT:      -6.7      2.318      4.805
REMARK  Name = 
REMARK  9 active torsions:
REMARK  status: ('A' for Active; 'I' for Inactive)
REMARK    1  A    between atoms: C_1  and  C_2
REMARK    2  A    between atoms: C_2  and  O_3
REMARK    3  A    between atoms: O_3  and  C_4
REMARK    4  A    between atoms: C_4  and  C_5
REMARK    5  A    between atoms: C_5  and  C_6
REMARK    6  A    between atoms: C_6  and  N_7
REMARK    7  A    between atoms: N_7  and  C_18
REMARK    8  A    between atoms: N_10  and  C_11
REMARK    9  A    between atoms: C_22  and  C_23
REMARK                            x       y       z     vdW  Elec       q    Type
REMARK                         _______ _______ _______ _____ _____    ______ ____
ROOT
ATOM      1  N   UNL     1       3.144   5.582  19.379  0.00  0.00    +0.000 N 
ATOM      2  C   UNL     1       2.041   6.216  20.007  0.00  0.00    +0.000 C 
ATOM      3  O   UNL     1       1.082   5.595  20.455  0.00  0.00    +0.000 OA
ATOM      4  N   UNL     1       2.144   7.592  20.029  0.00  0.00    +0.000 N 
ATOM      5  H   UNL     1       2.847   7.989  19.434  0.00  0.00    +0.000 HD
ENDROOT
BRANCH   1   6
ATOM      6  C   UNL     1       4.320   6.363  18.886  0.00  0.00    +0.000 C 
ATOM      7  C   UNL     1       4.326   6.776  17.411  0.00  0.00    +0.000 C 
ATOM      8  C   UNL     1       4.746   5.634  16.497  0.00  0.00    +0.000 C 
ATOM      9  N   UNL     1       6.052   5.106  16.879  0.00  0.00    +0.000 N 
ATOM     10  C   UNL     1       7.024   4.656  15.997  0.00  0.00    +0.000 C 
ATOM     11  C   UNL     1       6.780   4.754  14.515  0.00  0.00    +0.000 C 
ATOM     12  O   UNL     1       8.101   4.188  16.391  0.00  0.00    +0.000 OA
ATOM     13  C   UNL     1       6.188   4.693  18.265  0.00  0.00    +0.000 C 
ATOM     14  C   UNL     1       5.709   5.764  19.229  0.00  0.00    +0.000 C 
ENDBRANCH   1   6
BRANCH   4  15
ATOM     15  C   UNL     1       1.322   8.569  20.583  0.00  0.00    +0.000 A 
ATOM     16  C   UNL     1       0.719   9.606  19.860  0.00  0.00    +0.000 A 
ATOM     17  C   UNL     1       0.033  10.597  20.543  0.00  0.00    +0.000 A 
ATOM     18  C   UNL     1      -0.087  10.562  21.925  0.00  0.00    +0.000 A 
ATOM     19 CL   UNL     1      -0.858  11.847  22.760  0.00  0.00    +0.000 Cl
ATOM     20  C   UNL     1       0.438   9.494  22.654  0.00  0.00    +0.000 A 
ATOM     21  C   UNL     1       1.119   8.491  21.974  0.00  0.00    +0.000 A 
ENDBRANCH   4  15
BRANCH   1  22
ATOM     22  C   UNL     1       3.141   4.105  19.211  0.00  0.00    +0.000 C 
BRANCH  22  23
ATOM     23  C   UNL     1       2.279   3.447  18.122  0.00  0.00    +0.000 C 
BRANCH  23  24
ATOM     24  C   UNL     1       1.111   2.656  18.685  0.00  0.00    +0.000 C 
BRANCH  24  25
ATOM     25  O   UNL     1       1.586   1.956  19.834  0.00  0.00    +0.000 OA
BRANCH  25  27
ATOM     26  C   UNL     1       2.244   2.640  21.990  0.00  0.00    +0.000 C 
ATOM     27  C   UNL     1       1.065   2.472  21.052  0.00  0.00    +0.000 C 
ENDBRANCH  25  27
ENDBRANCH  24  25
ENDBRANCH  23  24
ENDBRANCH  22  23
ENDBRANCH   1  22
TORSDOF 7
ENDMDL
MODEL 4
REMARK VINA RESULT:      -6.7      1.851      4.352
REMARK  Name = 
REMARK  9 active torsions:
REMARK  status: ('A' for Active; 'I' for Inactive)
REMARK    1  A    between atoms: C_1  and  C_2
REMARK    2  A    between atoms: C_2  and  O_3
REMARK    3  A    between atoms: O_3  and  C_4
REMARK    4  A    between atoms: C_4  and  C_5
REMARK    5  A    between atoms: C_5  and  C_6
REMARK    6  A    between atoms: C_6  and  N_7
REMARK    7  A    between atoms: N_7  and  C_18
REMARK    8  A    between atoms: N_10  and  C_11
REMARK    9  A    between atoms: C_22  and  C_23
REMARK                            x       y       z     vdW  Elec       q    Type
REMARK                         _______ _______ _______ _____ _____    ______ ____
ROOT
ATOM      1  N   UNL     1       2.368   6.622  19.359  0.00  0.00    +0.000 N 
ATOM      2  C   UNL     1       1.821   7.871  19.752  0.00  0.00    +0.000 C 
ATOM      3  O   UNL     1       1.497   8.122  20.909  0.00  0.00    +0.000 OA
ATOM      4  N   UNL     1       1.661   8.751  18.701  0.00  0.00    +0.000 N 
ATOM      5  H   UNL     1       1.740   8.357  17.783  0.00  0.00    +0.000 HD
ENDROOT
BRANCH   1   6
ATOM      6  C   UNL     1       2.796   6.365  17.950  0.00  0.00    +0.000 C 
ATOM      7  C   UNL     1       3.387   4.988  17.631  0.00  0.00    +0.000 C 
ATOM      8  C   UNL     1       4.844   4.876  18.057  0.00  0.00    +0.000 C 
ATOM      9  N   UNL     1       5.653   5.927  17.448  0.00  0.00    +0.000 N 
ATOM     10  C   UNL     1       6.959   5.776  17.002  0.00  0.00    +0.000 C 
ATOM     11  C   UNL     1       7.616   4.424  17.080  0.00  0.00    +0.000 C 
ATOM     12  O   UNL     1       7.601   6.721  16.524  0.00  0.00    +0.000 OA
ATOM     13  C   UNL     1       5.189   7.287  17.658  0.00  0.00    +0.000 C 
ATOM     14  C   UNL     1       3.717   7.446  17.325  0.00  0.00    +0.000 C 
ENDBRANCH   1   6
BRANCH   4  15
ATOM     15  C   UNL     1       1.216  10.070  18.664  0.00  0.00    +0.000 A 
ATOM     16  C   UNL     1       2.033  11.179  18.409  0.00  0.00    +0.000 A 
ATOM     17  C   UNL     1       1.503  12.453  18.533  0.00  0.00    +0.000 A 
ATOM     18  C   UNL     1       0.173  12.644  18.880  0.00  0.00    +0.000 A 
ATOM     19 CL   UNL     1      -0.439  14.227  19.121  0.00  0.00    +0.000 Cl
ATOM     20  C   UNL     1      -0.675  11.551  19.060  0.00  0.00    +0.000 A 
ATOM     21  C   UNL     1      -0.152  10.269  18.926  0.00  0.00    +0.000 A 
ENDBRANCH   4  15
BRANCH   1  22
ATOM     22  C   UNL     1       2.528   5.543  20.368  0.00  0.00    +0.000 C 
BRANCH  22  23
ATOM     23  C   UNL     1       1.371   4.575  20.664  0.00  0.00    +0.000 C 
BRANCH  23  24
ATOM     24  C   UNL     1       1.841   3.215  21.149  0.00  0.00    +0.000 C 
BRANCH  24  25
ATOM     25  O   UNL     1       2.854   2.769  20.247  0.00  0.00    +0.000 OA
BRANCH  25  27
ATOM     26  C   UNL     1       3.537   1.386  18.467  0.00  0.00    +0.000 C 
ATOM     27  C   UNL     1       2.340   1.981  19.182  0.00  0.00    +0.000 C 
ENDBRANCH  25  27
ENDBRANCH  24  25
ENDBRANCH  23  24
ENDBRANCH  22  23
ENDBRANCH   1  22
TORSDOF 7
ENDMDL
MODEL 5
REMARK VINA RESULT:      -6.7      1.562      2.089
REMARK  Name = 
REMARK  9 active torsions:
REMARK  status: ('A' for Active; 'I' for Inactive)
REMARK    1  A    between atoms: C_1  and  C_2
REMARK    2  A    between atoms: C_2  and  O_3
REMARK    3  A    between atoms: O_3  and  C_4
REMARK    4  A    between atoms: C_4  and  C_5
REMARK    5  A    between atoms: C_5  and  C_6
REMARK    6  A    between atoms: C_6  and  N_7
REMARK    7  A    between atoms: N_7  and  C_18
REMARK    8  A    between atoms: N_10  and  C_11
REMARK    9  A    between atoms: C_22  and  C_23
REMARK                            x       y       z     vdW  Elec       q    Type
REMARK                         _______ _______ _______ _____ _____    ______ ____
ROOT
ATOM      1  N   UNL     1       2.747   7.210  18.677  0.00  0.00    +0.000 N 
ATOM      2  C   UNL     1       1.964   8.372  18.900  0.00  0.00    +0.000 C 
ATOM      3  O   UNL     1       1.731   9.197  18.022  0.00  0.00    +0.000 OA
ATOM      4  N   UNL     1       1.526   8.491  20.203  0.00  0.00    +0.000 N 
ATOM      5  H   UNL     1       1.967   7.889  20.872  0.00  0.00    +0.000 HD
ENDROOT
BRANCH   1   6
ATOM      6  C   UNL     1       2.973   6.199  19.755  0.00  0.00    +0.000 C 
ATOM      7  C   UNL     1       4.183   5.270  19.612  0.00  0.00    +0.000 C 
ATOM      8  C   UNL     1       3.916   4.126  18.644  0.00  0.00    +0.000 C 
ATOM      9  N   UNL     1       2.738   3.363  19.043  0.00  0.00    +0.000 N 
ATOM     10  C   UNL     1       2.594   1.988  18.921  0.00  0.00    +0.000 C 
ATOM     11  C   UNL     1       3.741   1.168  18.395  0.00  0.00    +0.000 C 
ATOM     12  O   UNL     1       1.551   1.406  19.249  0.00  0.00    +0.000 OA
ATOM     13  C   UNL     1       1.520   4.131  19.233  0.00  0.00    +0.000 C 
ATOM     14  C   UNL     1       1.739   5.337  20.129  0.00  0.00    +0.000 C 
ENDBRANCH   1   6
BRANCH   4  15
ATOM     15  C   UNL     1       0.707   9.435  20.816  0.00  0.00    +0.000 A 
ATOM     16  C   UNL     1       0.284  10.630  20.219  0.00  0.00    +0.000 A 
ATOM     17  C   UNL     1      -0.416  11.555  20.977  0.00  0.00    +0.000 A 
ATOM     18  C   UNL     1      -0.726  11.303  22.306  0.00  0.00    +0.000 A 
ATOM     19 CL   UNL     1      -1.511  12.498  23.253  0.00  0.00    +0.000 Cl
ATOM     20  C   UNL     1      -0.384  10.085  22.893  0.00  0.00    +0.000 A 
ATOM     21  C   UNL     1       0.311   9.148  22.136  0.00  0.00    +0.000 A 
ENDBRANCH   4  15
BRANCH   1  22
ATOM     22  C   UNL     1       3.355   6.982  17.340  0.00  0.00    +0.000 C 
BRANCH  22  23
ATOM     23  C   UNL     1       4.857   7.220  17.116  0.00  0.00    +0.000 C 
BRANCH  23  24
ATOM     24  C   UNL     1       5.433   6.374  15.994  0.00  0.00    +0.000 C 
BRANCH  24  25
ATOM     25  O   UNL     1       6.842   6.291  16.205  0.00  0.00    +0.000 OA
BRANCH  25  27
ATOM     26  C   UNL     1       7.614   4.682  17.742  0.00  0.00    +0.000 C 
ATOM     27  C   UNL     1       7.190   6.127  17.573  0.00  0.00    +0.000 C 
ENDBRANCH  25  27
ENDBRANCH  24  25
ENDBRANCH  23  24
ENDBRANCH  22  23
ENDBRANCH   1  22
TORSDOF 7
ENDMDL
MODEL 6
REMARK VINA RESULT:      -6.7      2.328      4.757
REMARK  Name = 
REMARK  9 active torsions:
REMARK  status: ('A' for Active; 'I' for Inactive)
REMARK    1  A    between atoms: C_1  and  C_2
REMARK    2  A    between atoms: C_2  and  O_3
REMARK    3  A    between atoms: O_3  and  C_4
REMARK    4  A    between atoms: C_4  and  C_5
REMARK    5  A    between atoms: C_5  and  C_6
REMARK    6  A    between atoms: C_6  and  N_7
REMARK    7  A    between atoms: N_7  and  C_18
REMARK    8  A    between atoms: N_10  and  C_11
REMARK    9  A    between atoms: C_22  and  C_23
REMARK                            x       y       z     vdW  Elec       q    Type
REMARK                         _______ _______ _______ _____ _____    ______ ____
ROOT
ATOM      1  N   UNL     1       3.160   5.432  19.503  0.00  0.00    +0.000 N 
ATOM      2  C   UNL     1       2.051   6.041  20.145  0.00  0.00    +0.000 C 
ATOM      3  O   UNL     1       1.129   5.398  20.637  0.00  0.00    +0.000 OA
ATOM      4  N   UNL     1       2.103   7.421  20.128  0.00  0.00    +0.000 N 
ATOM      5  H   UNL     1       2.773   7.827  19.503  0.00  0.00    +0.000 HD
ENDROOT
BRANCH   1   6
ATOM      6  C   UNL     1       4.291   6.242  18.956  0.00  0.00    +0.000 C 
ATOM      7  C   UNL     1       4.235   6.624  17.474  0.00  0.00    +0.000 C 
ATOM      8  C   UNL     1       4.665   5.479  16.569  0.00  0.00    +0.000 C 
ATOM      9  N   UNL     1       6.000   5.005  16.918  0.00  0.00    +0.000 N 
ATOM     10  C   UNL     1       6.959   4.569  16.013  0.00  0.00    +0.000 C 
ATOM     11  C   UNL     1       6.664   4.628  14.539  0.00  0.00    +0.000 C 
ATOM     12  O   UNL     1       8.063   4.147  16.381  0.00  0.00    +0.000 OA
ATOM     13  C   UNL     1       6.195   4.626  18.307  0.00  0.00    +0.000 C 
ATOM     14  C   UNL     1       5.710   5.699  19.265  0.00  0.00    +0.000 C 
ENDBRANCH   1   6
BRANCH   4  15
ATOM     15  C   UNL     1       1.259   8.381  20.680  0.00  0.00    +0.000 A 
ATOM     16  C   UNL     1       0.573   9.355  19.944  0.00  0.00    +0.000 A 
ATOM     17  C   UNL     1      -0.128  10.342  20.617  0.00  0.00    +0.000 A 
ATOM     18  C   UNL     1      -0.183  10.362  22.004  0.00  0.00    +0.000 A 
ATOM     19 CL   UNL     1      -0.977  11.645  22.820  0.00  0.00    +0.000 Cl
ATOM     20  C   UNL     1       0.428   9.354  22.750  0.00  0.00    +0.000 A 
ATOM     21  C   UNL     1       1.125   8.355  22.081  0.00  0.00    +0.000 A 
ENDBRANCH   4  15
BRANCH   1  22
ATOM     22  C   UNL     1       3.207   3.952  19.373  0.00  0.00    +0.000 C 
BRANCH  22  23
ATOM     23  C   UNL     1       3.648   3.079  20.559  0.00  0.00    +0.000 C 
BRANCH  23  24
ATOM     24  C   UNL     1       4.588   1.957  20.155  0.00  0.00    +0.000 C 
BRANCH  24  25
ATOM     25  O   UNL     1       5.067   1.351  21.356  0.00  0.00    +0.000 OA
BRANCH  25  27
ATOM     26  C   UNL     1       6.509  -0.196  22.392  0.00  0.00    +0.000 C 
ATOM     27  C   UNL     1       5.736   0.119  21.127  0.00  0.00    +0.000 C 
ENDBRANCH  25  27
ENDBRANCH  24  25
ENDBRANCH  23  24
ENDBRANCH  22  23
ENDBRANCH   1  22
TORSDOF 7
ENDMDL
MODEL 7
REMARK VINA RESULT:      -6.6      0.917      1.528
REMARK  Name = 
REMARK  9 active torsions:
REMARK  status: ('A' for Active; 'I' for Inactive)
REMARK    1  A    between atoms: C_1  and  C_2
REMARK    2  A    between atoms: C_2  and  O_3
REMARK    3  A    between atoms: O_3  and  C_4
REMARK    4  A    between atoms: C_4  and  C_5
REMARK    5  A    between atoms: C_5  and  C_6
REMARK    6  A    between atoms: C_6  and  N_7
REMARK    7  A    between atoms: N_7  and  C_18
REMARK    8  A    between atoms: N_10  and  C_11
REMARK    9  A    between atoms: C_22  and  C_23
REMARK                            x       y       z     vdW  Elec       q    Type
REMARK                         _______ _______ _______ _____ _____    ______ ____
ROOT
ATOM      1  N   UNL     1       2.847   7.064  17.895  0.00  0.00    +0.000 N 
ATOM      2  C   UNL     1       2.440   8.421  17.983  0.00  0.00    +0.000 C 
ATOM      3  O   UNL     1       3.005   9.326  17.377  0.00  0.00    +0.000 OA
ATOM      4  N   UNL     1       1.374   8.616  18.838  0.00  0.00    +0.000 N 
ATOM      5  H   UNL     1       1.153   7.849  19.445  0.00  0.00    +0.000 HD
ENDROOT
BRANCH   1   6
ATOM      6  C   UNL     1       2.107   5.978  18.608  0.00  0.00    +0.000 C 
ATOM      7  C   UNL     1       2.653   5.523  19.965  0.00  0.00    +0.000 C 
ATOM      8  C   UNL     1       3.835   4.576  19.820  0.00  0.00    +0.000 C 
ATOM      9  N   UNL     1       3.485   3.418  19.004  0.00  0.00    +0.000 N 
ATOM     10  C   UNL     1       3.935   2.122  19.216  0.00  0.00    +0.000 C 
ATOM     11  C   UNL     1       4.810   1.828  20.404  0.00  0.00    +0.000 C 
ATOM     12  O   UNL     1       3.625   1.190  18.462  0.00  0.00    +0.000 OA
ATOM     13  C   UNL     1       2.935   3.711  17.692  0.00  0.00    +0.000 C 
ATOM     14  C   UNL     1       1.799   4.715  17.761  0.00  0.00    +0.000 C 
ENDBRANCH   1   6
BRANCH   4  15
ATOM     15  C   UNL     1       0.652   9.760  19.163  0.00  0.00    +0.000 A 
ATOM     16  C   UNL     1       0.875  10.547  20.300  0.00  0.00    +0.000 A 
ATOM     17  C   UNL     1       0.003  11.584  20.588  0.00  0.00    +0.000 A 
ATOM     18  C   UNL     1      -1.070  11.869  19.754  0.00  0.00    +0.000 A 
ATOM     19 CL   UNL     1      -2.193  13.094  20.177  0.00  0.00    +0.000 Cl
ATOM     20  C   UNL     1      -1.261  11.146  18.576  0.00  0.00    +0.000 A 
ATOM     21  C   UNL     1      -0.383  10.111  18.276  0.00  0.00    +0.000 A 
ENDBRANCH   4  15
BRANCH   1  22
ATOM     22  C   UNL     1       4.031   6.707  17.072  0.00  0.00    +0.000 C 
BRANCH  22  23
ATOM     23  C   UNL     1       5.450   6.840  17.647  0.00  0.00    +0.000 C 
BRANCH  23  24
ATOM     24  C   UNL     1       6.462   5.950  16.948  0.00  0.00    +0.000 C 
BRANCH  24  25
ATOM     25  O   UNL     1       6.252   6.090  15.543  0.00  0.00    +0.000 OA
BRANCH  25  27
ATOM     26  C   UNL     1       5.904   3.764  15.415  0.00  0.00    +0.000 C 
ATOM     27  C   UNL     1       6.643   4.939  14.806  0.00  0.00    +0.000 C 
ENDBRANCH  25  27
ENDBRANCH  24  25
ENDBRANCH  23  24
ENDBRANCH  22  23
ENDBRANCH   1  22
TORSDOF 7
ENDMDL
MODEL 8
REMARK VINA RESULT:      -6.6      1.077      1.309
REMARK  Name = 
REMARK  9 active torsions:
REMARK  status: ('A' for Active; 'I' for Inactive)
REMARK    1  A    between atoms: C_1  and  C_2
REMARK    2  A    between atoms: C_2  and  O_3
REMARK    3  A    between atoms: O_3  and  C_4
REMARK    4  A    between atoms: C_4  and  C_5
REMARK    5  A    between atoms: C_5  and  C_6
REMARK    6  A    between atoms: C_6  and  N_7
REMARK    7  A    between atoms: N_7  and  C_18
REMARK    8  A    between atoms: N_10  and  C_11
REMARK    9  A    between atoms: C_22  and  C_23
REMARK                            x       y       z     vdW  Elec       q    Type
REMARK                         _______ _______ _______ _____ _____    ______ ____
ROOT
ATOM      1  N   UNL     1       3.098   7.187  18.248  0.00  0.00    +0.000 N 
ATOM      2  C   UNL     1       2.343   8.388  18.239  0.00  0.00    +0.000 C 
ATOM      3  O   UNL     1       2.299   9.140  17.271  0.00  0.00    +0.000 OA
ATOM      4  N   UNL     1       1.699   8.634  19.435  0.00  0.00    +0.000 N 
ATOM      5  H   UNL     1       1.994   8.079  20.215  0.00  0.00    +0.000 HD
ENDROOT
BRANCH   1   6
ATOM      6  C   UNL     1       3.094   6.267  19.427  0.00  0.00    +0.000 C 
ATOM      7  C   UNL     1       4.260   5.282  19.560  0.00  0.00    +0.000 C 
ATOM      8  C   UNL     1       4.092   4.069  18.657  0.00  0.00    +0.000 C 
ATOM      9  N   UNL     1       2.826   3.391  18.916  0.00  0.00    +0.000 N 
ATOM     10  C   UNL     1       2.631   2.017  18.884  0.00  0.00    +0.000 C 
ATOM     11  C   UNL     1       3.803   1.110  18.623  0.00  0.00    +0.000 C 
ATOM     12  O   UNL     1       1.519   1.508  19.081  0.00  0.00    +0.000 OA
ATOM     13  C   UNL     1       1.636   4.220  18.840  0.00  0.00    +0.000 C 
ATOM     14  C   UNL     1       1.771   5.490  19.660  0.00  0.00    +0.000 C 
ENDBRANCH   1   6
BRANCH   4  15
ATOM     15  C   UNL     1       0.833   9.654  19.821  0.00  0.00    +0.000 A 
ATOM     16  C   UNL     1       0.868  10.299  21.064  0.00  0.00    +0.000 A 
ATOM     17  C   UNL     1      -0.132  11.203  21.385  0.00  0.00    +0.000 A 
ATOM     18  C   UNL     1      -1.147  11.496  20.486  0.00  0.00    +0.000 A 
ATOM     19 CL   UNL     1      -2.427  12.546  20.937  0.00  0.00    +0.000 Cl
ATOM     20  C   UNL     1      -1.153  10.923  19.214  0.00  0.00    +0.000 A 
ATOM     21  C   UNL     1      -0.147  10.023  18.881  0.00  0.00    +0.000 A 
ENDBRANCH   4  15
BRANCH   1  22
ATOM     22  C   UNL     1       3.911   6.824  17.057  0.00  0.00    +0.000 C 
BRANCH  22  23
ATOM     23  C   UNL     1       5.423   7.098  17.032  0.00  0.00    +0.000 C 
BRANCH  23  24
ATOM     24  C   UNL     1       6.212   6.012  16.322  0.00  0.00    +0.000 C 
BRANCH  24  25
ATOM     25  O   UNL     1       7.504   5.961  16.928  0.00  0.00    +0.000 OA
BRANCH  25  27
ATOM     26  C   UNL     1       7.940   5.783  19.236  0.00  0.00    +0.000 C 
ATOM     27  C   UNL     1       7.592   6.740  18.113  0.00  0.00    +0.000 C 
ENDBRANCH  25  27
ENDBRANCH  24  25
ENDBRANCH  23  24
ENDBRANCH  22  23
ENDBRANCH   1  22
TORSDOF 7
ENDMDL
MODEL 9
REMARK VINA RESULT:      -6.5      1.262      2.100
REMARK  Name = 
REMARK  9 active torsions:
REMARK  status: ('A' for Active; 'I' for Inactive)
REMARK    1  A    between atoms: C_1  and  C_2
REMARK    2  A    between atoms: C_2  and  O_3
REMARK    3  A    between atoms: O_3  and  C_4
REMARK    4  A    between atoms: C_4  and  C_5
REMARK    5  A    between atoms: C_5  and  C_6
REMARK    6  A    between atoms: C_6  and  N_7
REMARK    7  A    between atoms: N_7  and  C_18
REMARK    8  A    between atoms: N_10  and  C_11
REMARK    9  A    between atoms: C_22  and  C_23
REMARK                            x       y       z     vdW  Elec       q    Type
REMARK                         _______ _______ _______ _____ _____    ______ ____
ROOT
ATOM      1  N   UNL     1       3.276   7.144  18.213  0.00  0.00    +0.000 N 
ATOM      2  C   UNL     1       2.454   8.300  18.175  0.00  0.00    +0.000 C 
ATOM      3  O   UNL     1       2.413   9.057  17.209  0.00  0.00    +0.000 OA
ATOM      4  N   UNL     1       1.739   8.499  19.339  0.00  0.00    +0.000 N 
ATOM      5  H   UNL     1       2.028   7.956  20.129  0.00  0.00    +0.000 HD
ENDROOT
BRANCH   1   6
ATOM      6  C   UNL     1       3.267   6.216  19.385  0.00  0.00    +0.000 C 
ATOM      7  C   UNL     1       4.405   5.196  19.488  0.00  0.00    +0.000 C 
ATOM      8  C   UNL     1       4.182   3.995  18.580  0.00  0.00    +0.000 C 
ATOM      9  N   UNL     1       2.902   3.353  18.860  0.00  0.00    +0.000 N 
ATOM     10  C   UNL     1       2.665   1.986  18.822  0.00  0.00    +0.000 C 
ATOM     11  C   UNL     1       3.803   1.046  18.531  0.00  0.00    +0.000 C 
ATOM     12  O   UNL     1       1.543   1.509  19.038  0.00  0.00    +0.000 OA
ATOM     13  C   UNL     1       1.736   4.218  18.815  0.00  0.00    +0.000 C 
ATOM     14  C   UNL     1       1.927   5.477  19.641  0.00  0.00    +0.000 C 
ENDBRANCH   1   6
BRANCH   4  15
ATOM     15  C   UNL     1       0.799   9.464  19.688  0.00  0.00    +0.000 A 
ATOM     16  C   UNL     1       0.058  10.222  18.771  0.00  0.00    +0.000 A 
ATOM     17  C   UNL     1      -0.748  11.248  19.236  0.00  0.00    +0.000 A 
ATOM     18  C   UNL     1      -0.852  11.517  20.594  0.00  0.00    +0.000 A 
ATOM     19 CL   UNL     1      -1.780  12.851  21.144  0.00  0.00    +0.000 Cl
ATOM     20  C   UNL     1      -0.184  10.722  21.526  0.00  0.00    +0.000 A 
ATOM     21  C   UNL     1       0.619   9.684  21.066  0.00  0.00    +0.000 A 
ENDBRANCH   4  15
BRANCH   1  22
ATOM     22  C   UNL     1       4.164   6.839  17.062  0.00  0.00    +0.000 C 
BRANCH  22  23
ATOM     23  C   UNL     1       5.591   7.406  17.006  0.00  0.00    +0.000 C 
BRANCH  23  24
ATOM     24  C   UNL     1       6.661   6.329  17.031  0.00  0.00    +0.000 C 
BRANCH  24  25
ATOM     25  O   UNL     1       6.847   5.884  15.687  0.00  0.00    +0.000 OA
BRANCH  25  27
ATOM     26  C   UNL     1       6.006   4.169  14.309  0.00  0.00    +0.000 C 
ATOM     27  C   UNL     1       6.805   4.469  15.561  0.00  0.00    +0.000 C 
ENDBRANCH  25  27
ENDBRANCH  24  25
ENDBRANCH  23  24
ENDBRANCH  22  23
ENDBRANCH   1  22
TORSDOF 7
ENDMDL
