MODEL 1
REMARK VINA RESULT:      -7.7      0.000      0.000
REMARK  Name = 
REMARK  7 active torsions:
REMARK  status: ('A' for Active; 'I' for Inactive)
REMARK    1  A    between atoms: C_1  and  O_2
REMARK    2  A    between atoms: O_2  and  C_3
REMARK    3  A    between atoms: C_7  and  N_8
REMARK    4  A    between atoms: C_12  and  S_13
REMARK    5  A    between atoms: S_13  and  C_14
REMARK    6  A    between atoms: C_14  and  C_15
REMARK    7  A    between atoms: N_17  and  C_18
REMARK                            x       y       z     vdW  Elec       q    Type
REMARK                         _______ _______ _______ _____ _____    ______ ____
ROOT
ATOM      1  N   UNL     1       6.876   4.688  16.221  0.00  0.00    +0.000 N 
ATOM      2  N   UNL     1       7.938   4.247  16.949  0.00  0.00    +0.000 NA
ATOM      3  N   UNL     1       7.751   4.688  18.187  0.00  0.00    +0.000 NA
ATOM      4  N   UNL     1       6.535   5.314  18.306  0.00  0.00    +0.000 NA
ATOM      5  C   UNL     1       5.975   5.242  17.119  0.00  0.00    +0.000 A 
ENDROOT
BRANCH   1  10
ATOM      6  C   UNL     1       6.187   3.579  12.740  0.00  0.00    +0.000 A 
ATOM      7  C   UNL     1       7.096   4.367  12.031  0.00  0.00    +0.000 A 
ATOM      8  C   UNL     1       7.897   5.294  12.692  0.00  0.00    +0.000 A 
ATOM      9  C   UNL     1       7.803   5.437  14.074  0.00  0.00    +0.000 A 
ATOM     10  C   UNL     1       6.904   4.649  14.802  0.00  0.00    +0.000 A 
ATOM     11  C   UNL     1       6.087   3.724  14.126  0.00  0.00    +0.000 A 
BRANCH   6  13
ATOM     12  C   UNL     1       4.283   3.177  11.368  0.00  0.00    +0.000 C 
ATOM     13  O   UNL     1       5.480   2.700  11.968  0.00  0.00    +0.000 OA
ENDBRANCH   6  13
ENDBRANCH   1  10
BRANCH   5  14
ATOM     14  S   UNL     1       4.300   5.549  16.801  0.00  0.00    +0.000 S 
BRANCH  14  15
ATOM     15  C   UNL     1       3.938   6.862  17.994  0.00  0.00    +0.000 C 
BRANCH  15  16
ATOM     16  C   UNL     1       3.140   6.324  19.171  0.00  0.00    +0.000 C 
ATOM     17  O   UNL     1       2.432   7.043  19.864  0.00  0.00    +0.000 OA
ATOM     18  N   UNL     1       3.298   4.973  19.399  0.00  0.00    +0.000 N 
ATOM     19  H   UNL     1       4.041   4.479  18.912  0.00  0.00    +0.000 HD
BRANCH  18  20
ATOM     20  C   UNL     1       2.559   4.267  20.442  0.00  0.00    +0.000 C 
ATOM     21  C   UNL     1       1.074   4.181  20.084  0.00  0.00    +0.000 C 
ATOM     22  C   UNL     1       0.804   3.238  18.913  0.00  0.00    +0.000 C 
ATOM     23  C   UNL     1       1.428   1.858  19.093  0.00  0.00    +0.000 C 
ATOM     24  C   UNL     1       2.868   1.873  19.603  0.00  0.00    +0.000 C 
ATOM     25  C   UNL     1       3.113   2.869  20.734  0.00  0.00    +0.000 C 
ENDBRANCH  18  20
ENDBRANCH  15  16
ENDBRANCH  14  15
ENDBRANCH   5  14
TORSDOF 6
ENDMDL
MODEL 2
REMARK VINA RESULT:      -7.6      0.957      1.429
REMARK  Name = 
REMARK  7 active torsions:
REMARK  status: ('A' for Active; 'I' for Inactive)
REMARK    1  A    between atoms: C_1  and  O_2
REMARK    2  A    between atoms: O_2  and  C_3
REMARK    3  A    between atoms: C_7  and  N_8
REMARK    4  A    between atoms: C_12  and  S_13
REMARK    5  A    between atoms: S_13  and  C_14
REMARK    6  A    between atoms: C_14  and  C_15
REMARK    7  A    between atoms: N_17  and  C_18
REMARK                            x       y       z     vdW  Elec       q    Type
REMARK                         _______ _______ _______ _____ _____    ______ ____
ROOT
ATOM      1  N   UNL     1       6.958   4.916  15.815  0.00  0.00    +0.000 N 
ATOM      2  N   UNL     1       7.831   4.221  16.595  0.00  0.00    +0.000 NA
ATOM      3  N   UNL     1       7.842   4.827  17.776  0.00  0.00    +0.000 NA
ATOM      4  N   UNL     1       6.913   5.836  17.817  0.00  0.00    +0.000 NA
ATOM      5  C   UNL     1       6.325   5.833  16.641  0.00  0.00    +0.000 A 
ENDROOT
BRANCH   1  10
ATOM      6  C   UNL     1       6.130   3.432  12.509  0.00  0.00    +0.000 A 
ATOM      7  C   UNL     1       7.006   4.136  11.681  0.00  0.00    +0.000 A 
ATOM      8  C   UNL     1       7.831   5.130  12.202  0.00  0.00    +0.000 A 
ATOM      9  C   UNL     1       7.793   5.424  13.563  0.00  0.00    +0.000 A 
ATOM     10  C   UNL     1       6.927   4.721  14.410  0.00  0.00    +0.000 A 
ATOM     11  C   UNL     1       6.086   3.728  13.874  0.00  0.00    +0.000 A 
BRANCH   6  13
ATOM     12  C   UNL     1       6.110   1.419  11.238  0.00  0.00    +0.000 C 
ATOM     13  O   UNL     1       5.395   2.474  11.869  0.00  0.00    +0.000 OA
ENDBRANCH   6  13
ENDBRANCH   1  10
BRANCH   5  14
ATOM     14  S   UNL     1       4.843   6.655  16.281  0.00  0.00    +0.000 S 
BRANCH  14  15
ATOM     15  C   UNL     1       4.295   7.159  17.931  0.00  0.00    +0.000 C 
BRANCH  15  16
ATOM     16  C   UNL     1       2.919   6.594  18.245  0.00  0.00    +0.000 C 
ATOM     17  O   UNL     1       1.897   7.258  18.126  0.00  0.00    +0.000 OA
ATOM     18  N   UNL     1       2.925   5.288  18.688  0.00  0.00    +0.000 N 
ATOM     19  H   UNL     1       3.812   4.864  18.944  0.00  0.00    +0.000 HD
BRANCH  18  20
ATOM     20  C   UNL     1       1.693   4.557  18.972  0.00  0.00    +0.000 C 
ATOM     21  C   UNL     1       1.848   3.080  18.602  0.00  0.00    +0.000 C 
ATOM     22  C   UNL     1       2.797   2.334  19.537  0.00  0.00    +0.000 C 
ATOM     23  C   UNL     1       2.459   2.519  21.013  0.00  0.00    +0.000 C 
ATOM     24  C   UNL     1       2.138   3.957  21.416  0.00  0.00    +0.000 C 
ATOM     25  C   UNL     1       1.235   4.690  20.428  0.00  0.00    +0.000 C 
ENDBRANCH  18  20
ENDBRANCH  15  16
ENDBRANCH  14  15
ENDBRANCH   5  14
TORSDOF 6
ENDMDL
MODEL 3
REMARK VINA RESULT:      -7.5      2.181      3.112
REMARK  Name = 
REMARK  7 active torsions:
REMARK  status: ('A' for Active; 'I' for Inactive)
REMARK    1  A    between atoms: C_1  and  O_2
REMARK    2  A    between atoms: O_2  and  C_3
REMARK    3  A    between atoms: C_7  and  N_8
REMARK    4  A    between atoms: C_12  and  S_13
REMARK    5  A    between atoms: S_13  and  C_14
REMARK    6  A    between atoms: C_14  and  C_15
REMARK    7  A    between atoms: N_17  and  C_18
REMARK                            x       y       z     vdW  Elec       q    Type
REMARK                         _______ _______ _______ _____ _____    ______ ____
ROOT
ATOM      1  N   UNL     1       6.919   4.304  13.389  0.00  0.00    +0.000 N 
ATOM      2  N   UNL     1       7.974   4.949  12.820  0.00  0.00    +0.000 NA
ATOM      3  N   UNL     1       8.394   5.837  13.713  0.00  0.00    +0.000 NA
ATOM      4  N   UNL     1       7.705   5.709  14.893  0.00  0.00    +0.000 NA
ATOM      5  C   UNL     1       6.859   4.719  14.711  0.00  0.00    +0.000 A 
ENDROOT
BRANCH   1  10
ATOM      6  C   UNL     1       5.731   1.532  11.215  0.00  0.00    +0.000 A 
ATOM      7  C   UNL     1       4.467   2.005  10.858  0.00  0.00    +0.000 A 
ATOM      8  C   UNL     1       3.988   3.208  11.371  0.00  0.00    +0.000 A 
ATOM      9  C   UNL     1       4.776   3.957  12.242  0.00  0.00    +0.000 A 
ATOM     10  C   UNL     1       6.050   3.503  12.603  0.00  0.00    +0.000 A 
ATOM     11  C   UNL     1       6.522   2.279  12.092  0.00  0.00    +0.000 A 
BRANCH   6  13
ATOM     12  C   UNL     1       5.919  -0.834  11.393  0.00  0.00    +0.000 C 
ATOM     13  O   UNL     1       6.079   0.351  10.623  0.00  0.00    +0.000 OA
ENDBRANCH   6  13
ENDBRANCH   1  10
BRANCH   5  14
ATOM     14  S   UNL     1       6.007   3.908  15.982  0.00  0.00    +0.000 S 
BRANCH  14  15
ATOM     15  C   UNL     1       6.893   4.493  17.448  0.00  0.00    +0.000 C 
BRANCH  15  16
ATOM     16  C   UNL     1       5.940   4.704  18.613  0.00  0.00    +0.000 C 
ATOM     17  O   UNL     1       6.333   5.007  19.732  0.00  0.00    +0.000 OA
ATOM     18  N   UNL     1       4.610   4.509  18.306  0.00  0.00    +0.000 N 
ATOM     19  H   UNL     1       4.372   4.076  17.418  0.00  0.00    +0.000 HD
BRANCH  18  20
ATOM     20  C   UNL     1       3.545   4.734  19.280  0.00  0.00    +0.000 C 
ATOM     21  C   UNL     1       2.311   5.330  18.599  0.00  0.00    +0.000 C 
ATOM     22  C   UNL     1       1.601   4.332  17.686  0.00  0.00    +0.000 C 
ATOM     23  C   UNL     1       1.289   3.005  18.370  0.00  0.00    +0.000 C 
ATOM     24  C   UNL     1       2.437   2.432  19.200  0.00  0.00    +0.000 C 
ATOM     25  C   UNL     1       3.159   3.470  20.055  0.00  0.00    +0.000 C 
ENDBRANCH  18  20
ENDBRANCH  15  16
ENDBRANCH  14  15
ENDBRANCH   5  14
TORSDOF 6
ENDMDL
MODEL 4
REMARK VINA RESULT:      -7.5      1.920      2.865
REMARK  Name = 
REMARK  7 active torsions:
REMARK  status: ('A' for Active; 'I' for Inactive)
REMARK    1  A    between atoms: C_1  and  O_2
REMARK    2  A    between atoms: O_2  and  C_3
REMARK    3  A    between atoms: C_7  and  N_8
REMARK    4  A    between atoms: C_12  and  S_13
REMARK    5  A    between atoms: S_13  and  C_14
REMARK    6  A    between atoms: C_14  and  C_15
REMARK    7  A    between atoms: N_17  and  C_18
REMARK                            x       y       z     vdW  Elec       q    Type
REMARK                         _______ _______ _______ _____ _____    ______ ____
ROOT
ATOM      1  N   UNL     1       6.744   4.368  13.638  0.00  0.00    +0.000 N 
ATOM      2  N   UNL     1       7.796   5.100  13.180  0.00  0.00    +0.000 NA
ATOM      3  N   UNL     1       8.106   5.955  14.147  0.00  0.00    +0.000 NA
ATOM      4  N   UNL     1       7.350   5.720  15.269  0.00  0.00    +0.000 NA
ATOM      5  C   UNL     1       6.574   4.700  14.974  0.00  0.00    +0.000 A 
ENDROOT
BRANCH   1  10
ATOM      6  C   UNL     1       5.848   1.643  11.273  0.00  0.00    +0.000 A 
ATOM      7  C   UNL     1       4.604   2.089  10.822  0.00  0.00    +0.000 A 
ATOM      8  C   UNL     1       4.041   3.256  11.332  0.00  0.00    +0.000 A 
ATOM      9  C   UNL     1       4.723   3.996  12.294  0.00  0.00    +0.000 A 
ATOM     10  C   UNL     1       5.976   3.569  12.751  0.00  0.00    +0.000 A 
ATOM     11  C   UNL     1       6.533   2.381  12.242  0.00  0.00    +0.000 A 
BRANCH   6  13
ATOM     12  C   UNL     1       5.975  -0.734  11.316  0.00  0.00    +0.000 C 
ATOM     13  O   UNL     1       6.287   0.495  10.675  0.00  0.00    +0.000 OA
ENDBRANCH   6  13
ENDBRANCH   1  10
BRANCH   5  14
ATOM     14  S   UNL     1       5.689   3.770  16.137  0.00  0.00    +0.000 S 
BRANCH  14  15
ATOM     15  C   UNL     1       5.709   4.868  17.575  0.00  0.00    +0.000 C 
BRANCH  15  16
ATOM     16  C   UNL     1       4.316   5.395  17.879  0.00  0.00    +0.000 C 
ATOM     17  O   UNL     1       3.899   6.448  17.412  0.00  0.00    +0.000 OA
ATOM     18  N   UNL     1       3.578   4.601  18.731  0.00  0.00    +0.000 N 
ATOM     19  H   UNL     1       4.048   3.849  19.228  0.00  0.00    +0.000 HD
BRANCH  18  20
ATOM     20  C   UNL     1       2.194   4.910  19.082  0.00  0.00    +0.000 C 
ATOM     21  C   UNL     1       1.257   3.803  18.598  0.00  0.00    +0.000 C 
ATOM     22  C   UNL     1       1.423   2.504  19.383  0.00  0.00    +0.000 C 
ATOM     23  C   UNL     1       1.343   2.698  20.894  0.00  0.00    +0.000 C 
ATOM     24  C   UNL     1       2.137   3.891  21.424  0.00  0.00    +0.000 C 
ATOM     25  C   UNL     1       1.992   5.155  20.581  0.00  0.00    +0.000 C 
ENDBRANCH  18  20
ENDBRANCH  15  16
ENDBRANCH  14  15
ENDBRANCH   5  14
TORSDOF 6
ENDMDL
MODEL 5
REMARK VINA RESULT:      -7.5      2.674      4.583
REMARK  Name = 
REMARK  7 active torsions:
REMARK  status: ('A' for Active; 'I' for Inactive)
REMARK    1  A    between atoms: C_1  and  O_2
REMARK    2  A    between atoms: O_2  and  C_3
REMARK    3  A    between atoms: C_7  and  N_8
REMARK    4  A    between atoms: C_12  and  S_13
REMARK    5  A    between atoms: S_13  and  C_14
REMARK    6  A    between atoms: C_14  and  C_15
REMARK    7  A    between atoms: N_17  and  C_18
REMARK                            x       y       z     vdW  Elec       q    Type
REMARK                         _______ _______ _______ _____ _____    ______ ____
ROOT
ATOM      1  N   UNL     1       6.833   5.273  15.742  0.00  0.00    +0.000 N 
ATOM      2  N   UNL     1       7.493   5.421  14.561  0.00  0.00    +0.000 NA
ATOM      3  N   UNL     1       7.069   4.442  13.771  0.00  0.00    +0.000 NA
ATOM      4  N   UNL     1       6.064   3.726  14.374  0.00  0.00    +0.000 NA
ATOM      5  C   UNL     1       5.875   4.289  15.547  0.00  0.00    +0.000 A 
ENDROOT
BRANCH   1  10
ATOM      6  C   UNL     1       7.980   8.049  17.933  0.00  0.00    +0.000 A 
ATOM      7  C   UNL     1       8.332   7.343  19.084  0.00  0.00    +0.000 A 
ATOM      8  C   UNL     1       8.145   5.965  19.157  0.00  0.00    +0.000 A 
ATOM      9  C   UNL     1       7.612   5.276  18.070  0.00  0.00    +0.000 A 
ATOM     10  C   UNL     1       7.262   5.967  16.903  0.00  0.00    +0.000 A 
ATOM     11  C   UNL     1       7.440   7.361  16.843  0.00  0.00    +0.000 A 
BRANCH   6  13
ATOM     12  C   UNL     1       9.069   9.847  19.050  0.00  0.00    +0.000 C 
ATOM     13  O   UNL     1       8.235   9.390  17.994  0.00  0.00    +0.000 OA
ENDBRANCH   6  13
ENDBRANCH   1  10
BRANCH   5  14
ATOM     14  S   UNL     1       4.496   4.015  16.558  0.00  0.00    +0.000 S 
BRANCH  14  15
ATOM     15  C   UNL     1       4.161   5.681  17.179  0.00  0.00    +0.000 C 
BRANCH  15  16
ATOM     16  C   UNL     1       2.862   5.719  17.968  0.00  0.00    +0.000 C 
ATOM     17  O   UNL     1       2.200   6.742  18.089  0.00  0.00    +0.000 OA
ATOM     18  N   UNL     1       2.508   4.517  18.544  0.00  0.00    +0.000 N 
ATOM     19  H   UNL     1       3.193   3.766  18.566  0.00  0.00    +0.000 HD
BRANCH  18  20
ATOM     20  C   UNL     1       1.260   4.344  19.281  0.00  0.00    +0.000 C 
ATOM     21  C   UNL     1       0.800   2.886  19.225  0.00  0.00    +0.000 C 
ATOM     22  C   UNL     1       1.695   1.953  20.039  0.00  0.00    +0.000 C 
ATOM     23  C   UNL     1       1.914   2.427  21.472  0.00  0.00    +0.000 C 
ATOM     24  C   UNL     1       2.223   3.917  21.609  0.00  0.00    +0.000 C 
ATOM     25  C   UNL     1       1.347   4.813  20.737  0.00  0.00    +0.000 C 
ENDBRANCH  18  20
ENDBRANCH  15  16
ENDBRANCH  14  15
ENDBRANCH   5  14
TORSDOF 6
ENDMDL
MODEL 6
REMARK VINA RESULT:      -7.3      2.803      7.319
REMARK  Name = 
REMARK  7 active torsions:
REMARK  status: ('A' for Active; 'I' for Inactive)
REMARK    1  A    between atoms: C_1  and  O_2
REMARK    2  A    between atoms: O_2  and  C_3
REMARK    3  A    between atoms: C_7  and  N_8
REMARK    4  A    between atoms: C_12  and  S_13
REMARK    5  A    between atoms: S_13  and  C_14
REMARK    6  A    between atoms: C_14  and  C_15
REMARK    7  A    between atoms: N_17  and  C_18
REMARK                            x       y       z     vdW  Elec       q    Type
REMARK                         _______ _______ _______ _____ _____    ______ ____
ROOT
ATOM      1  N   UNL     1       2.032   4.648  20.580  0.00  0.00    +0.000 N 
ATOM      2  N   UNL     1       2.420   4.375  21.855  0.00  0.00    +0.000 NA
ATOM      3  N   UNL     1       2.022   3.134  22.109  0.00  0.00    +0.000 NA
ATOM      4  N   UNL     1       1.482   2.554  20.988  0.00  0.00    +0.000 NA
ATOM      5  C   UNL     1       1.562   3.460  20.039  0.00  0.00    +0.000 A 
ENDROOT
BRANCH   1  10
ATOM      6  C   UNL     1       1.364   8.300  20.380  0.00  0.00    +0.000 A 
ATOM      7  C   UNL     1       1.798   8.573  19.082  0.00  0.00    +0.000 A 
ATOM      8  C   UNL     1       2.353   7.569  18.293  0.00  0.00    +0.000 A 
ATOM      9  C   UNL     1       2.473   6.275  18.794  0.00  0.00    +0.000 A 
ATOM     10  C   UNL     1       2.034   5.981  20.091  0.00  0.00    +0.000 A 
ATOM     11  C   UNL     1       1.487   7.004  20.888  0.00  0.00    +0.000 A 
BRANCH   6  13
ATOM     12  C   UNL     1       0.802  10.613  20.337  0.00  0.00    +0.000 C 
ATOM     13  O   UNL     1       0.823   9.373  21.032  0.00  0.00    +0.000 OA
ENDBRANCH   6  13
ENDBRANCH   1  10
BRANCH   5  14
ATOM     14  S   UNL     1       1.359   3.136  18.349  0.00  0.00    +0.000 S 
BRANCH  14  15
ATOM     15  C   UNL     1       2.795   2.089  18.004  0.00  0.00    +0.000 C 
BRANCH  15  16
ATOM     16  C   UNL     1       4.091   2.827  18.297  0.00  0.00    +0.000 C 
ATOM     17  O   UNL     1       4.717   2.662  19.336  0.00  0.00    +0.000 OA
ATOM     18  N   UNL     1       4.486   3.703  17.307  0.00  0.00    +0.000 N 
ATOM     19  H   UNL     1       3.829   3.932  16.566  0.00  0.00    +0.000 HD
BRANCH  18  20
ATOM     20  C   UNL     1       5.740   4.448  17.382  0.00  0.00    +0.000 C 
ATOM     21  C   UNL     1       6.695   4.006  16.271  0.00  0.00    +0.000 C 
ATOM     22  C   UNL     1       6.231   4.447  14.885  0.00  0.00    +0.000 C 
ATOM     23  C   UNL     1       5.910   5.936  14.801  0.00  0.00    +0.000 C 
ATOM     24  C   UNL     1       5.087   6.475  15.970  0.00  0.00    +0.000 C 
ATOM     25  C   UNL     1       5.544   5.967  17.335  0.00  0.00    +0.000 C 
ENDBRANCH  18  20
ENDBRANCH  15  16
ENDBRANCH  14  15
ENDBRANCH   5  14
TORSDOF 6
ENDMDL
MODEL 7
REMARK VINA RESULT:      -7.1      4.858      7.735
REMARK  Name = 
REMARK  7 active torsions:
REMARK  status: ('A' for Active; 'I' for Inactive)
REMARK    1  A    between atoms: C_1  and  O_2
REMARK    2  A    between atoms: O_2  and  C_3
REMARK    3  A    between atoms: C_7  and  N_8
REMARK    4  A    between atoms: C_12  and  S_13
REMARK    5  A    between atoms: S_13  and  C_14
REMARK    6  A    between atoms: C_14  and  C_15
REMARK    7  A    between atoms: N_17  and  C_18
REMARK                            x       y       z     vdW  Elec       q    Type
REMARK                         _______ _______ _______ _____ _____    ______ ____
ROOT
ATOM      1  N   UNL     1       5.664   5.228  16.612  0.00  0.00    +0.000 N 
ATOM      2  N   UNL     1       6.015   4.729  15.395  0.00  0.00    +0.000 NA
ATOM      3  N   UNL     1       7.143   5.339  15.053  0.00  0.00    +0.000 NA
ATOM      4  N   UNL     1       7.594   6.142  16.070  0.00  0.00    +0.000 NA
ATOM      5  C   UNL     1       6.725   6.009  17.047  0.00  0.00    +0.000 A 
ENDROOT
BRANCH   1  10
ATOM      6  C   UNL     1       2.523   3.484  17.569  0.00  0.00    +0.000 A 
ATOM      7  C   UNL     1       1.723   4.570  17.929  0.00  0.00    +0.000 A 
ATOM      8  C   UNL     1       2.231   5.866  17.903  0.00  0.00    +0.000 A 
ATOM      9  C   UNL     1       3.547   6.090  17.508  0.00  0.00    +0.000 A 
ATOM     10  C   UNL     1       4.362   5.014  17.135  0.00  0.00    +0.000 A 
ATOM     11  C   UNL     1       3.846   3.706  17.176  0.00  0.00    +0.000 A 
BRANCH   6  13
ATOM     12  C   UNL     1       1.069   2.018  18.754  0.00  0.00    +0.000 C 
ATOM     13  O   UNL     1       1.891   2.274  17.622  0.00  0.00    +0.000 OA
ENDBRANCH   6  13
ENDBRANCH   1  10
BRANCH   5  14
ATOM     14  S   UNL     1       6.997   6.514  18.682  0.00  0.00    +0.000 S 
BRANCH  14  15
ATOM     15  C   UNL     1       8.564   7.407  18.532  0.00  0.00    +0.000 C 
BRANCH  15  16
ATOM     16  C   UNL     1       8.327   8.880  18.243  0.00  0.00    +0.000 C 
ATOM     17  O   UNL     1       7.368   9.272  17.590  0.00  0.00    +0.000 OA
ATOM     18  N   UNL     1       9.285   9.726  18.761  0.00  0.00    +0.000 N 
ATOM     19  H   UNL     1      10.146   9.325  19.123  0.00  0.00    +0.000 HD
BRANCH  18  20
ATOM     20  C   UNL     1       9.188  11.178  18.644  0.00  0.00    +0.000 C 
ATOM     21  C   UNL     1       9.201  11.831  20.027  0.00  0.00    +0.000 C 
ATOM     22  C   UNL     1      10.561  11.732  20.714  0.00  0.00    +0.000 C 
ATOM     23  C   UNL     1      11.714  12.221  19.843  0.00  0.00    +0.000 C 
ATOM     24  C   UNL     1      11.672  11.728  18.398  0.00  0.00    +0.000 C 
ATOM     25  C   UNL     1      10.285  11.788  17.764  0.00  0.00    +0.000 C 
ENDBRANCH  18  20
ENDBRANCH  15  16
ENDBRANCH  14  15
ENDBRANCH   5  14
TORSDOF 6
ENDMDL
MODEL 8
REMARK VINA RESULT:      -7.1      2.028      2.977
REMARK  Name = 
REMARK  7 active torsions:
REMARK  status: ('A' for Active; 'I' for Inactive)
REMARK    1  A    between atoms: C_1  and  O_2
REMARK    2  A    between atoms: O_2  and  C_3
REMARK    3  A    between atoms: C_7  and  N_8
REMARK    4  A    between atoms: C_12  and  S_13
REMARK    5  A    between atoms: S_13  and  C_14
REMARK    6  A    between atoms: C_14  and  C_15
REMARK    7  A    between atoms: N_17  and  C_18
REMARK                            x       y       z     vdW  Elec       q    Type
REMARK                         _______ _______ _______ _____ _____    ______ ____
ROOT
ATOM      1  N   UNL     1       6.819   4.358  13.528  0.00  0.00    +0.000 N 
ATOM      2  N   UNL     1       7.897   5.027  13.033  0.00  0.00    +0.000 NA
ATOM      3  N   UNL     1       8.245   5.912  13.959  0.00  0.00    +0.000 NA
ATOM      4  N   UNL     1       7.487   5.758  15.093  0.00  0.00    +0.000 NA
ATOM      5  C   UNL     1       6.671   4.757  14.849  0.00  0.00    +0.000 A 
ENDROOT
BRANCH   1  10
ATOM      6  C   UNL     1       5.820   1.599  11.246  0.00  0.00    +0.000 A 
ATOM      7  C   UNL     1       4.567   2.049  10.827  0.00  0.00    +0.000 A 
ATOM      8  C   UNL     1       4.032   3.231  11.333  0.00  0.00    +0.000 A 
ATOM      9  C   UNL     1       4.752   3.982  12.258  0.00  0.00    +0.000 A 
ATOM     10  C   UNL     1       6.015   3.551  12.682  0.00  0.00    +0.000 A 
ATOM     11  C   UNL     1       6.544   2.348  12.178  0.00  0.00    +0.000 A 
BRANCH   6  13
ATOM     12  C   UNL     1       5.978  -0.774  11.358  0.00  0.00    +0.000 C 
ATOM     13  O   UNL     1       6.229   0.436  10.655  0.00  0.00    +0.000 OA
ENDBRANCH   6  13
ENDBRANCH   1  10
BRANCH   5  14
ATOM     14  S   UNL     1       5.756   3.917  16.056  0.00  0.00    +0.000 S 
BRANCH  14  15
ATOM     15  C   UNL     1       5.684   5.148  17.382  0.00  0.00    +0.000 C 
BRANCH  15  16
ATOM     16  C   UNL     1       5.314   4.501  18.707  0.00  0.00    +0.000 C 
ATOM     17  O   UNL     1       6.017   4.607  19.704  0.00  0.00    +0.000 OA
ATOM     18  N   UNL     1       4.141   3.778  18.682  0.00  0.00    +0.000 N 
ATOM     19  H   UNL     1       3.712   3.573  17.784  0.00  0.00    +0.000 HD
BRANCH  18  20
ATOM     20  C   UNL     1       3.591   3.144  19.877  0.00  0.00    +0.000 C 
ATOM     21  C   UNL     1       2.773   4.150  20.690  0.00  0.00    +0.000 C 
ATOM     22  C   UNL     1       1.468   4.543  20.001  0.00  0.00    +0.000 C 
ATOM     23  C   UNL     1       0.630   3.345  19.566  0.00  0.00    +0.000 C 
ATOM     24  C   UNL     1       1.421   2.230  18.885  0.00  0.00    +0.000 C 
ATOM     25  C   UNL     1       2.746   1.904  19.569  0.00  0.00    +0.000 C 
ENDBRANCH  18  20
ENDBRANCH  15  16
ENDBRANCH  14  15
ENDBRANCH   5  14
TORSDOF 6
ENDMDL
MODEL 9
REMARK VINA RESULT:      -7.0      2.006      3.028
REMARK  Name = 
REMARK  7 active torsions:
REMARK  status: ('A' for Active; 'I' for Inactive)
REMARK    1  A    between atoms: C_1  and  O_2
REMARK    2  A    between atoms: O_2  and  C_3
REMARK    3  A    between atoms: C_7  and  N_8
REMARK    4  A    between atoms: C_12  and  S_13
REMARK    5  A    between atoms: S_13  and  C_14
REMARK    6  A    between atoms: C_14  and  C_15
REMARK    7  A    between atoms: N_17  and  C_18
REMARK                            x       y       z     vdW  Elec       q    Type
REMARK                         _______ _______ _______ _____ _____    ______ ____
ROOT
ATOM      1  N   UNL     1       7.005   4.262  13.210  0.00  0.00    +0.000 N 
ATOM      2  N   UNL     1       8.064   4.988  12.758  0.00  0.00    +0.000 NA
ATOM      3  N   UNL     1       8.364   5.851  13.721  0.00  0.00    +0.000 NA
ATOM      4  N   UNL     1       7.594   5.628  14.836  0.00  0.00    +0.000 NA
ATOM      5  C   UNL     1       6.820   4.607  14.542  0.00  0.00    +0.000 A 
ENDROOT
BRANCH   1  10
ATOM      6  C   UNL     1       4.165   3.081  11.123  0.00  0.00    +0.000 A 
ATOM      7  C   UNL     1       4.614   1.808  10.769  0.00  0.00    +0.000 A 
ATOM      8  C   UNL     1       5.868   1.359  11.175  0.00  0.00    +0.000 A 
ATOM      9  C   UNL     1       6.684   2.180  11.949  0.00  0.00    +0.000 A 
ATOM     10  C   UNL     1       6.246   3.456  12.322  0.00  0.00    +0.000 A 
ATOM     11  C   UNL     1       4.983   3.909  11.896  0.00  0.00    +0.000 A 
BRANCH   6  13
ATOM     12  C   UNL     1       2.811   4.244   9.547  0.00  0.00    +0.000 C 
ATOM     13  O   UNL     1       2.910   3.382  10.673  0.00  0.00    +0.000 OA
ENDBRANCH   6  13
ENDBRANCH   1  10
BRANCH   5  14
ATOM     14  S   UNL     1       5.919   3.689  15.702  0.00  0.00    +0.000 S 
BRANCH  14  15
ATOM     15  C   UNL     1       6.444   4.452  17.257  0.00  0.00    +0.000 C 
BRANCH  15  16
ATOM     16  C   UNL     1       5.328   5.291  17.858  0.00  0.00    +0.000 C 
ATOM     17  O   UNL     1       5.292   6.509  17.744  0.00  0.00    +0.000 OA
ATOM     18  N   UNL     1       4.379   4.568  18.549  0.00  0.00    +0.000 N 
ATOM     19  H   UNL     1       4.569   3.593  18.767  0.00  0.00    +0.000 HD
BRANCH  18  20
ATOM     20  C   UNL     1       3.197   5.195  19.135  0.00  0.00    +0.000 C 
ATOM     21  C   UNL     1       2.067   5.277  18.108  0.00  0.00    +0.000 C 
ATOM     22  C   UNL     1       1.476   3.910  17.770  0.00  0.00    +0.000 C 
ATOM     23  C   UNL     1       1.068   3.108  19.002  0.00  0.00    +0.000 C 
ATOM     24  C   UNL     1       2.094   3.117  20.134  0.00  0.00    +0.000 C 
ATOM     25  C   UNL     1       2.705   4.489  20.404  0.00  0.00    +0.000 C 
ENDBRANCH  18  20
ENDBRANCH  15  16
ENDBRANCH  14  15
ENDBRANCH   5  14
TORSDOF 6
ENDMDL
