MODEL 1
REMARK VINA RESULT:      -6.9      0.000      0.000
REMARK  Name = 
REMARK  9 active torsions:
REMARK  status: ('A' for Active; 'I' for Inactive)
REMARK    1  A    between atoms: C_2  and  C_3
REMARK    2  A    between atoms: C_2  and  C_11
REMARK    3  A    between atoms: C_3  and  C_4
REMARK    4  A    between atoms: C_4  and  C_5
REMARK    5  A    between atoms: C_11  and  C_12
REMARK    6  A    between atoms: C_12  and  O_13
REMARK    7  A    between atoms: C_12  and  C_14
REMARK    8  A    between atoms: C_14  and  C_15
REMARK    9  A    between atoms: C_15  and  C_16
REMARK                            x       y       z     vdW  Elec       q    Type
REMARK                         _______ _______ _______ _____ _____    ______ ____
ROOT
ATOM      1  C   UNL     1       2.869   2.783  20.377  0.00  0.00    +0.000 C 
ENDROOT
BRANCH   1   3
ATOM      2  O   UNL     1       5.122   3.117  19.670  0.00  0.00    +0.000 OA
ATOM      3  C   UNL     1       3.982   2.767  19.351  0.00  0.00    +0.000 C 
BRANCH   3   4
ATOM      4  C   UNL     1       3.663   2.387  17.922  0.00  0.00    +0.000 C 
BRANCH   4   5
ATOM      5  C   UNL     1       3.351   3.607  17.061  0.00  0.00    +0.000 C 
BRANCH   5   6
ATOM      6  C   UNL     1       4.611   4.348  16.692  0.00  0.00    +0.000 A 
ATOM      7  C   UNL     1       5.671   3.670  16.073  0.00  0.00    +0.000 A 
ATOM      8  C   UNL     1       6.863   4.336  15.785  0.00  0.00    +0.000 A 
ATOM      9  C   UNL     1       7.005   5.683  16.112  0.00  0.00    +0.000 A 
ATOM     10  C   UNL     1       5.953   6.367  16.718  0.00  0.00    +0.000 A 
ATOM     11  C   UNL     1       4.761   5.704  17.009  0.00  0.00    +0.000 A 
ENDBRANCH   5   6
ENDBRANCH   4   5
ENDBRANCH   3   4
ENDBRANCH   1   3
BRANCH   1  12
ATOM     12  C   UNL     1       1.760   3.789  20.074  0.00  0.00    +0.000 C 
BRANCH  12  13
ATOM     13  O   UNL     1       0.515   3.303  20.574  0.00  0.00    +0.000 OA
ATOM     14  H   UNL     1      -0.144   3.325  19.858  0.00  0.00    +0.000 HD
ENDBRANCH  12  13
BRANCH  12  15
ATOM     15  C   UNL     1       2.029   5.160  20.710  0.00  0.00    +0.000 C 
BRANCH  15  16
ATOM     16  C   UNL     1       2.876   6.064  19.813  0.00  0.00    +0.000 C 
BRANCH  16  17
ATOM     17  C   UNL     1       2.210   7.374  19.517  0.00  0.00    +0.000 A 
ATOM     18  C   UNL     1       2.256   7.942  18.243  0.00  0.00    +0.000 A 
ATOM     19  C   UNL     1       1.655   9.176  18.022  0.00  0.00    +0.000 A 
ATOM     20  C   UNL     1       1.017   9.794  19.084  0.00  0.00    +0.000 A 
ATOM     21  N   UNL     1       0.935   9.269  20.323  0.00  0.00    +0.000 NA
ATOM     22  C   UNL     1       1.531   8.074  20.511  0.00  0.00    +0.000 A 
ENDBRANCH  16  17
ENDBRANCH  15  16
ENDBRANCH  12  15
ENDBRANCH   1  12
TORSDOF 9
ENDMDL
MODEL 2
REMARK VINA RESULT:      -6.8      2.147      4.404
REMARK  Name = 
REMARK  9 active torsions:
REMARK  status: ('A' for Active; 'I' for Inactive)
REMARK    1  A    between atoms: C_2  and  C_3
REMARK    2  A    between atoms: C_2  and  C_11
REMARK    3  A    between atoms: C_3  and  C_4
REMARK    4  A    between atoms: C_4  and  C_5
REMARK    5  A    between atoms: C_11  and  C_12
REMARK    6  A    between atoms: C_12  and  O_13
REMARK    7  A    between atoms: C_12  and  C_14
REMARK    8  A    between atoms: C_14  and  C_15
REMARK    9  A    between atoms: C_15  and  C_16
REMARK                            x       y       z     vdW  Elec       q    Type
REMARK                         _______ _______ _______ _____ _____    ______ ____
ROOT
ATOM      1  C   UNL     1       6.338   4.934  16.913  0.00  0.00    +0.000 C 
ENDROOT
BRANCH   1   3
ATOM      2  O   UNL     1       5.259   4.080  14.964  0.00  0.00    +0.000 OA
ATOM      3  C   UNL     1       5.381   4.009  16.191  0.00  0.00    +0.000 C 
BRANCH   3   4
ATOM      4  C   UNL     1       4.531   3.052  16.997  0.00  0.00    +0.000 C 
BRANCH   4   5
ATOM      5  C   UNL     1       3.081   3.517  17.094  0.00  0.00    +0.000 C 
BRANCH   5   6
ATOM      6  C   UNL     1       2.587   3.462  18.517  0.00  0.00    +0.000 A 
ATOM      7  C   UNL     1       1.286   3.877  18.828  0.00  0.00    +0.000 A 
ATOM      8  C   UNL     1       0.844   3.887  20.151  0.00  0.00    +0.000 A 
ATOM      9  C   UNL     1       1.699   3.481  21.174  0.00  0.00    +0.000 A 
ATOM     10  C   UNL     1       2.992   3.058  20.873  0.00  0.00    +0.000 A 
ATOM     11  C   UNL     1       3.437   3.048  19.551  0.00  0.00    +0.000 A 
ENDBRANCH   5   6
ENDBRANCH   4   5
ENDBRANCH   3   4
ENDBRANCH   1   3
BRANCH   1  12
ATOM     12  C   UNL     1       5.852   6.379  17.007  0.00  0.00    +0.000 C 
BRANCH  12  13
ATOM     13  O   UNL     1       5.370   6.812  15.736  0.00  0.00    +0.000 OA
ATOM     14  H   UNL     1       6.128   6.954  15.142  0.00  0.00    +0.000 HD
ENDBRANCH  12  13
BRANCH  12  15
ATOM     15  C   UNL     1       4.719   6.545  18.030  0.00  0.00    +0.000 C 
BRANCH  15  16
ATOM     16  C   UNL     1       3.457   7.148  17.411  0.00  0.00    +0.000 C 
BRANCH  16  17
ATOM     17  C   UNL     1       2.585   7.827  18.423  0.00  0.00    +0.000 A 
ATOM     18  C   UNL     1       2.364   7.271  19.684  0.00  0.00    +0.000 A 
ATOM     19  C   UNL     1       1.519   7.917  20.578  0.00  0.00    +0.000 A 
ATOM     20  C   UNL     1       0.931   9.107  20.183  0.00  0.00    +0.000 A 
ATOM     21  N   UNL     1       1.134   9.685  18.981  0.00  0.00    +0.000 NA
ATOM     22  C   UNL     1       1.954   9.034  18.131  0.00  0.00    +0.000 A 
ENDBRANCH  16  17
ENDBRANCH  15  16
ENDBRANCH  12  15
ENDBRANCH   1  12
TORSDOF 9
ENDMDL
MODEL 3
REMARK VINA RESULT:      -6.8      2.271      6.074
REMARK  Name = 
REMARK  9 active torsions:
REMARK  status: ('A' for Active; 'I' for Inactive)
REMARK    1  A    between atoms: C_2  and  C_3
REMARK    2  A    between atoms: C_2  and  C_11
REMARK    3  A    between atoms: C_3  and  C_4
REMARK    4  A    between atoms: C_4  and  C_5
REMARK    5  A    between atoms: C_11  and  C_12
REMARK    6  A    between atoms: C_12  and  O_13
REMARK    7  A    between atoms: C_12  and  C_14
REMARK    8  A    between atoms: C_14  and  C_15
REMARK    9  A    between atoms: C_15  and  C_16
REMARK                            x       y       z     vdW  Elec       q    Type
REMARK                         _______ _______ _______ _____ _____    ______ ____
ROOT
ATOM      1  C   UNL     1       4.615   5.612  16.870  0.00  0.00    +0.000 C 
ENDROOT
BRANCH   1   3
ATOM      2  O   UNL     1       4.726   5.603  19.253  0.00  0.00    +0.000 OA
ATOM      3  C   UNL     1       4.148   6.028  18.249  0.00  0.00    +0.000 C 
BRANCH   3   4
ATOM      4  C   UNL     1       2.926   6.910  18.378  0.00  0.00    +0.000 C 
BRANCH   4   5
ATOM      5  C   UNL     1       2.288   6.807  19.760  0.00  0.00    +0.000 C 
BRANCH   5   6
ATOM      6  C   UNL     1       1.595   8.091  20.136  0.00  0.00    +0.000 A 
ATOM      7  C   UNL     1       1.359   9.075  19.166  0.00  0.00    +0.000 A 
ATOM      8  C   UNL     1       0.774  10.291  19.521  0.00  0.00    +0.000 A 
ATOM      9  C   UNL     1       0.419  10.533  20.847  0.00  0.00    +0.000 A 
ATOM     10  C   UNL     1       0.642   9.557  21.817  0.00  0.00    +0.000 A 
ATOM     11  C   UNL     1       1.228   8.341  21.465  0.00  0.00    +0.000 A 
ENDBRANCH   5   6
ENDBRANCH   4   5
ENDBRANCH   3   4
ENDBRANCH   1   3
BRANCH   1  12
ATOM     12  C   UNL     1       4.682   4.099  16.668  0.00  0.00    +0.000 C 
BRANCH  12  13
ATOM     13  O   UNL     1       5.726   3.549  17.470  0.00  0.00    +0.000 OA
ATOM     14  H   UNL     1       5.434   3.526  18.399  0.00  0.00    +0.000 HD
ENDBRANCH  12  13
BRANCH  12  15
ATOM     15  C   UNL     1       3.368   3.403  17.051  0.00  0.00    +0.000 C 
BRANCH  15  16
ATOM     16  C   UNL     1       3.572   2.307  18.098  0.00  0.00    +0.000 C 
BRANCH  16  17
ATOM     17  C   UNL     1       2.837   2.582  19.375  0.00  0.00    +0.000 A 
ATOM     18  C   UNL     1       1.552   3.126  19.371  0.00  0.00    +0.000 A 
ATOM     19  C   UNL     1       0.920   3.399  20.579  0.00  0.00    +0.000 A 
ATOM     20  C   UNL     1       1.594   3.106  21.753  0.00  0.00    +0.000 A 
ATOM     21  N   UNL     1       2.828   2.563  21.797  0.00  0.00    +0.000 NA
ATOM     22  C   UNL     1       3.420   2.314  20.611  0.00  0.00    +0.000 A 
ENDBRANCH  16  17
ENDBRANCH  15  16
ENDBRANCH  12  15
ENDBRANCH   1  12
TORSDOF 9
ENDMDL
MODEL 4
REMARK VINA RESULT:      -6.8      1.299      1.583
REMARK  Name = 
REMARK  9 active torsions:
REMARK  status: ('A' for Active; 'I' for Inactive)
REMARK    1  A    between atoms: C_2  and  C_3
REMARK    2  A    between atoms: C_2  and  C_11
REMARK    3  A    between atoms: C_3  and  C_4
REMARK    4  A    between atoms: C_4  and  C_5
REMARK    5  A    between atoms: C_11  and  C_12
REMARK    6  A    between atoms: C_12  and  O_13
REMARK    7  A    between atoms: C_12  and  C_14
REMARK    8  A    between atoms: C_14  and  C_15
REMARK    9  A    between atoms: C_15  and  C_16
REMARK                            x       y       z     vdW  Elec       q    Type
REMARK                         _______ _______ _______ _____ _____    ______ ____
ROOT
ATOM      1  C   UNL     1       1.421   3.993  19.007  0.00  0.00    +0.000 C 
ENDROOT
BRANCH   1   3
ATOM      2  O   UNL     1       1.704   1.632  19.196  0.00  0.00    +0.000 OA
ATOM      3  C   UNL     1       2.185   2.701  18.809  0.00  0.00    +0.000 C 
BRANCH   3   4
ATOM      4  C   UNL     1       3.570   2.748  18.201  0.00  0.00    +0.000 C 
BRANCH   4   5
ATOM      5  C   UNL     1       3.733   3.924  17.242  0.00  0.00    +0.000 C 
BRANCH   5   6
ATOM      6  C   UNL     1       4.996   4.692  17.536  0.00  0.00    +0.000 A 
ATOM      7  C   UNL     1       5.731   5.268  16.491  0.00  0.00    +0.000 A 
ATOM      8  C   UNL     1       6.932   5.927  16.751  0.00  0.00    +0.000 A 
ATOM      9  C   UNL     1       7.409   6.017  18.058  0.00  0.00    +0.000 A 
ATOM     10  C   UNL     1       6.681   5.456  19.104  0.00  0.00    +0.000 A 
ATOM     11  C   UNL     1       5.480   4.795  18.847  0.00  0.00    +0.000 A 
ENDBRANCH   5   6
ENDBRANCH   4   5
ENDBRANCH   3   4
ENDBRANCH   1   3
BRANCH   1  12
ATOM     12  C   UNL     1       1.205   4.369  20.471  0.00  0.00    +0.000 C 
BRANCH  12  13
ATOM     13  O   UNL     1       1.880   3.437  21.315  0.00  0.00    +0.000 OA
ATOM     14  H   UNL     1       1.294   3.199  22.056  0.00  0.00    +0.000 HD
ENDBRANCH  12  13
BRANCH  12  15
ATOM     15  C   UNL     1       1.732   5.775  20.794  0.00  0.00    +0.000 C 
BRANCH  15  16
ATOM     16  C   UNL     1       2.440   6.421  19.603  0.00  0.00    +0.000 C 
BRANCH  16  17
ATOM     17  C   UNL     1       1.977   7.823  19.345  0.00  0.00    +0.000 A 
ATOM     18  C   UNL     1       2.224   8.459  18.128  0.00  0.00    +0.000 A 
ATOM     19  C   UNL     1       1.808   9.772  17.945  0.00  0.00    +0.000 A 
ATOM     20  C   UNL     1       1.146  10.402  18.986  0.00  0.00    +0.000 A 
ATOM     21  N   UNL     1       0.872   9.815  20.169  0.00  0.00    +0.000 NA
ATOM     22  C   UNL     1       1.292   8.543  20.321  0.00  0.00    +0.000 A 
ENDBRANCH  16  17
ENDBRANCH  15  16
ENDBRANCH  12  15
ENDBRANCH   1  12
TORSDOF 9
ENDMDL
MODEL 5
REMARK VINA RESULT:      -6.8      4.229      6.195
REMARK  Name = 
REMARK  9 active torsions:
REMARK  status: ('A' for Active; 'I' for Inactive)
REMARK    1  A    between atoms: C_2  and  C_3
REMARK    2  A    between atoms: C_2  and  C_11
REMARK    3  A    between atoms: C_3  and  C_4
REMARK    4  A    between atoms: C_4  and  C_5
REMARK    5  A    between atoms: C_11  and  C_12
REMARK    6  A    between atoms: C_12  and  O_13
REMARK    7  A    between atoms: C_12  and  C_14
REMARK    8  A    between atoms: C_14  and  C_15
REMARK    9  A    between atoms: C_15  and  C_16
REMARK                            x       y       z     vdW  Elec       q    Type
REMARK                         _______ _______ _______ _____ _____    ______ ____
ROOT
ATOM      1  C   UNL     1       6.506   6.242  18.200  0.00  0.00    +0.000 C 
ENDROOT
BRANCH   1   3
ATOM      2  O   UNL     1       7.790   6.585  16.218  0.00  0.00    +0.000 OA
ATOM      3  C   UNL     1       7.333   7.085  17.251  0.00  0.00    +0.000 C 
BRANCH   3   4
ATOM      4  C   UNL     1       7.647   8.518  17.620  0.00  0.00    +0.000 C 
BRANCH   4   5
ATOM      5  C   UNL     1       8.644   8.607  18.771  0.00  0.00    +0.000 C 
BRANCH   5   6
ATOM      6  C   UNL     1       9.124  10.022  18.965  0.00  0.00    +0.000 A 
ATOM      7  C   UNL     1       9.340  10.852  17.857  0.00  0.00    +0.000 A 
ATOM      8  C   UNL     1       9.843  12.142  18.027  0.00  0.00    +0.000 A 
ATOM      9  C   UNL     1      10.132  12.614  19.306  0.00  0.00    +0.000 A 
ATOM     10  C   UNL     1       9.912  11.800  20.415  0.00  0.00    +0.000 A 
ATOM     11  C   UNL     1       9.410  10.509  20.247  0.00  0.00    +0.000 A 
ENDBRANCH   5   6
ENDBRANCH   4   5
ENDBRANCH   3   4
ENDBRANCH   1   3
BRANCH   1  12
ATOM     12  C   UNL     1       5.998   4.938  17.589  0.00  0.00    +0.000 C 
BRANCH  12  13
ATOM     13  O   UNL     1       6.001   3.907  18.576  0.00  0.00    +0.000 OA
ATOM     14  H   UNL     1       5.804   3.056  18.145  0.00  0.00    +0.000 HD
ENDBRANCH  12  13
BRANCH  12  15
ATOM     15  C   UNL     1       4.570   5.070  17.041  0.00  0.00    +0.000 C 
BRANCH  15  16
ATOM     16  C   UNL     1       3.651   5.846  17.985  0.00  0.00    +0.000 C 
BRANCH  16  17
ATOM     17  C   UNL     1       2.660   4.964  18.682  0.00  0.00    +0.000 A 
ATOM     18  C   UNL     1       2.160   3.811  18.076  0.00  0.00    +0.000 A 
ATOM     19  C   UNL     1       1.215   3.041  18.743  0.00  0.00    +0.000 A 
ATOM     20  C   UNL     1       0.809   3.448  20.004  0.00  0.00    +0.000 A 
ATOM     21  N   UNL     1       1.282   4.545  20.630  0.00  0.00    +0.000 NA
ATOM     22  C   UNL     1       2.194   5.276  19.957  0.00  0.00    +0.000 A 
ENDBRANCH  16  17
ENDBRANCH  15  16
ENDBRANCH  12  15
ENDBRANCH   1  12
TORSDOF 9
ENDMDL
MODEL 6
REMARK VINA RESULT:      -6.8      1.476      1.705
REMARK  Name = 
REMARK  9 active torsions:
REMARK  status: ('A' for Active; 'I' for Inactive)
REMARK    1  A    between atoms: C_2  and  C_3
REMARK    2  A    between atoms: C_2  and  C_11
REMARK    3  A    between atoms: C_3  and  C_4
REMARK    4  A    between atoms: C_4  and  C_5
REMARK    5  A    between atoms: C_11  and  C_12
REMARK    6  A    between atoms: C_12  and  O_13
REMARK    7  A    between atoms: C_12  and  C_14
REMARK    8  A    between atoms: C_14  and  C_15
REMARK    9  A    between atoms: C_15  and  C_16
REMARK                            x       y       z     vdW  Elec       q    Type
REMARK                         _______ _______ _______ _____ _____    ______ ____
ROOT
ATOM      1  C   UNL     1       2.982   2.849  19.914  0.00  0.00    +0.000 C 
ENDROOT
BRANCH   1   3
ATOM      2  O   UNL     1       2.312   1.706  17.930  0.00  0.00    +0.000 OA
ATOM      3  C   UNL     1       2.741   2.754  18.422  0.00  0.00    +0.000 C 
BRANCH   3   4
ATOM      4  C   UNL     1       3.098   3.931  17.540  0.00  0.00    +0.000 C 
BRANCH   4   5
ATOM      5  C   UNL     1       4.446   3.742  16.852  0.00  0.00    +0.000 C 
BRANCH   5   6
ATOM      6  C   UNL     1       5.476   4.693  17.406  0.00  0.00    +0.000 A 
ATOM      7  C   UNL     1       6.192   5.536  16.545  0.00  0.00    +0.000 A 
ATOM      8  C   UNL     1       7.190   6.373  17.045  0.00  0.00    +0.000 A 
ATOM      9  C   UNL     1       7.480   6.376  18.408  0.00  0.00    +0.000 A 
ATOM     10  C   UNL     1       6.767   5.547  19.273  0.00  0.00    +0.000 A 
ATOM     11  C   UNL     1       5.770   4.708  18.776  0.00  0.00    +0.000 A 
ENDBRANCH   5   6
ENDBRANCH   4   5
ENDBRANCH   3   4
ENDBRANCH   1   3
BRANCH   1  12
ATOM     12  C   UNL     1       1.744   3.237  20.719  0.00  0.00    +0.000 C 
BRANCH  12  13
ATOM     13  O   UNL     1       2.001   3.073  22.112  0.00  0.00    +0.000 OA
ATOM     14  H   UNL     1       2.500   2.247  22.247  0.00  0.00    +0.000 HD
ENDBRANCH  12  13
BRANCH  12  15
ATOM     15  C   UNL     1       1.327   4.695  20.478  0.00  0.00    +0.000 C 
BRANCH  15  16
ATOM     16  C   UNL     1       2.519   5.653  20.493  0.00  0.00    +0.000 C 
BRANCH  16  17
ATOM     17  C   UNL     1       2.249   6.924  19.746  0.00  0.00    +0.000 A 
ATOM     18  C   UNL     1       2.715   7.116  18.445  0.00  0.00    +0.000 A 
ATOM     19  C   UNL     1       2.473   8.324  17.802  0.00  0.00    +0.000 A 
ATOM     20  C   UNL     1       1.759   9.298  18.482  0.00  0.00    +0.000 A 
ATOM     21  N   UNL     1       1.277   9.143  19.732  0.00  0.00    +0.000 NA
ATOM     22  C   UNL     1       1.531   7.963  20.334  0.00  0.00    +0.000 A 
ENDBRANCH  16  17
ENDBRANCH  15  16
ENDBRANCH  12  15
ENDBRANCH   1  12
TORSDOF 9
ENDMDL
MODEL 7
REMARK VINA RESULT:      -6.8      2.131      5.478
REMARK  Name = 
REMARK  9 active torsions:
REMARK  status: ('A' for Active; 'I' for Inactive)
REMARK    1  A    between atoms: C_2  and  C_3
REMARK    2  A    between atoms: C_2  and  C_11
REMARK    3  A    between atoms: C_3  and  C_4
REMARK    4  A    between atoms: C_4  and  C_5
REMARK    5  A    between atoms: C_11  and  C_12
REMARK    6  A    between atoms: C_12  and  O_13
REMARK    7  A    between atoms: C_12  and  C_14
REMARK    8  A    between atoms: C_14  and  C_15
REMARK    9  A    between atoms: C_15  and  C_16
REMARK                            x       y       z     vdW  Elec       q    Type
REMARK                         _______ _______ _______ _____ _____    ______ ____
ROOT
ATOM      1  C   UNL     1       2.745   3.142  19.737  0.00  0.00    +0.000 C 
ENDROOT
BRANCH   1   3
ATOM      2  O   UNL     1       0.488   3.844  20.064  0.00  0.00    +0.000 OA
ATOM      3  C   UNL     1       1.683   4.143  20.142  0.00  0.00    +0.000 C 
BRANCH   3   4
ATOM      4  C   UNL     1       2.105   5.532  20.571  0.00  0.00    +0.000 C 
BRANCH   4   5
ATOM      5  C   UNL     1       2.702   6.331  19.418  0.00  0.00    +0.000 C 
BRANCH   5   6
ATOM      6  C   UNL     1       2.058   7.690  19.309  0.00  0.00    +0.000 A 
ATOM      7  C   UNL     1       2.169   8.429  18.124  0.00  0.00    +0.000 A 
ATOM      8  C   UNL     1       1.629   9.713  18.038  0.00  0.00    +0.000 A 
ATOM      9  C   UNL     1       0.973  10.267  19.136  0.00  0.00    +0.000 A 
ATOM     10  C   UNL     1       0.851   9.536  20.316  0.00  0.00    +0.000 A 
ATOM     11  C   UNL     1       1.391   8.254  20.404  0.00  0.00    +0.000 A 
ENDBRANCH   5   6
ENDBRANCH   4   5
ENDBRANCH   3   4
ENDBRANCH   1   3
BRANCH   1  12
ATOM     12  C   UNL     1       2.667   2.713  18.273  0.00  0.00    +0.000 C 
BRANCH  12  13
ATOM     13  O   UNL     1       1.686   3.493  17.591  0.00  0.00    +0.000 OA
ATOM     14  H   UNL     1       0.800   3.167  17.831  0.00  0.00    +0.000 HD
ENDBRANCH  12  13
BRANCH  12  15
ATOM     15  C   UNL     1       4.007   2.886  17.544  0.00  0.00    +0.000 C 
BRANCH  15  16
ATOM     16  C   UNL     1       4.140   4.259  16.885  0.00  0.00    +0.000 C 
BRANCH  16  17
ATOM     17  C   UNL     1       5.398   4.971  17.281  0.00  0.00    +0.000 A 
ATOM     18  C   UNL     1       5.858   4.957  18.598  0.00  0.00    +0.000 A 
ATOM     19  C   UNL     1       7.011   5.660  18.929  0.00  0.00    +0.000 A 
ATOM     20  C   UNL     1       7.671   6.347  17.923  0.00  0.00    +0.000 A 
ATOM     21  N   UNL     1       7.268   6.369  16.636  0.00  0.00    +0.000 NA
ATOM     22  C   UNL     1       6.145   5.683  16.345  0.00  0.00    +0.000 A 
ENDBRANCH  16  17
ENDBRANCH  15  16
ENDBRANCH  12  15
ENDBRANCH   1  12
TORSDOF 9
ENDMDL
MODEL 8
REMARK VINA RESULT:      -6.8      4.661      6.757
REMARK  Name = 
REMARK  9 active torsions:
REMARK  status: ('A' for Active; 'I' for Inactive)
REMARK    1  A    between atoms: C_2  and  C_3
REMARK    2  A    between atoms: C_2  and  C_11
REMARK    3  A    between atoms: C_3  and  C_4
REMARK    4  A    between atoms: C_4  and  C_5
REMARK    5  A    between atoms: C_11  and  C_12
REMARK    6  A    between atoms: C_12  and  O_13
REMARK    7  A    between atoms: C_12  and  C_14
REMARK    8  A    between atoms: C_14  and  C_15
REMARK    9  A    between atoms: C_15  and  C_16
REMARK                            x       y       z     vdW  Elec       q    Type
REMARK                         _______ _______ _______ _____ _____    ______ ____
ROOT
ATOM      1  C   UNL     1       7.775   6.464  18.515  0.00  0.00    +0.000 C 
ENDROOT
BRANCH   1   3
ATOM      2  O   UNL     1       7.471   4.372  17.409  0.00  0.00    +0.000 OA
ATOM      3  C   UNL     1       7.049   5.159  18.261  0.00  0.00    +0.000 C 
BRANCH   3   4
ATOM      4  C   UNL     1       5.768   4.871  19.012  0.00  0.00    +0.000 C 
BRANCH   4   5
ATOM      5  C   UNL     1       4.604   4.586  18.068  0.00  0.00    +0.000 C 
BRANCH   5   6
ATOM      6  C   UNL     1       3.329   4.343  18.836  0.00  0.00    +0.000 A 
ATOM      7  C   UNL     1       2.423   3.364  18.406  0.00  0.00    +0.000 A 
ATOM      8  C   UNL     1       1.214   3.178  19.076  0.00  0.00    +0.000 A 
ATOM      9  C   UNL     1       0.901   3.967  20.182  0.00  0.00    +0.000 A 
ATOM     10  C   UNL     1       1.800   4.936  20.622  0.00  0.00    +0.000 A 
ATOM     11  C   UNL     1       3.009   5.126  19.953  0.00  0.00    +0.000 A 
ENDBRANCH   5   6
ENDBRANCH   4   5
ENDBRANCH   3   4
ENDBRANCH   1   3
BRANCH   1  12
ATOM     12  C   UNL     1       7.758   7.424  17.327  0.00  0.00    +0.000 C 
BRANCH  12  13
ATOM     13  O   UNL     1       6.533   7.285  16.609  0.00  0.00    +0.000 OA
ATOM     14  H   UNL     1       6.514   6.408  16.183  0.00  0.00    +0.000 HD
ENDBRANCH  12  13
BRANCH  12  15
ATOM     15  C   UNL     1       7.892   8.890  17.764  0.00  0.00    +0.000 C 
BRANCH  15  16
ATOM     16  C   UNL     1       8.871   9.067  18.926  0.00  0.00    +0.000 C 
BRANCH  16  17
ATOM     17  C   UNL     1       9.289  10.493  19.118  0.00  0.00    +0.000 A 
ATOM     18  C   UNL     1       9.494  11.025  20.392  0.00  0.00    +0.000 A 
ATOM     19  C   UNL     1       9.846  12.363  20.527  0.00  0.00    +0.000 A 
ATOM     20  C   UNL     1       9.993  13.121  19.377  0.00  0.00    +0.000 A 
ATOM     21  N   UNL     1       9.822  12.639  18.129  0.00  0.00    +0.000 NA
ATOM     22  C   UNL     1       9.475  11.340  18.028  0.00  0.00    +0.000 A 
ENDBRANCH  16  17
ENDBRANCH  15  16
ENDBRANCH  12  15
ENDBRANCH   1  12
TORSDOF 9
ENDMDL
MODEL 9
REMARK VINA RESULT:      -6.8      4.677      6.940
REMARK  Name = 
REMARK  9 active torsions:
REMARK  status: ('A' for Active; 'I' for Inactive)
REMARK    1  A    between atoms: C_2  and  C_3
REMARK    2  A    between atoms: C_2  and  C_11
REMARK    3  A    between atoms: C_3  and  C_4
REMARK    4  A    between atoms: C_4  and  C_5
REMARK    5  A    between atoms: C_11  and  C_12
REMARK    6  A    between atoms: C_12  and  O_13
REMARK    7  A    between atoms: C_12  and  C_14
REMARK    8  A    between atoms: C_14  and  C_15
REMARK    9  A    between atoms: C_15  and  C_16
REMARK                            x       y       z     vdW  Elec       q    Type
REMARK                         _______ _______ _______ _____ _____    ______ ____
ROOT
ATOM      1  C   UNL     1       7.414   6.006  18.481  0.00  0.00    +0.000 C 
ENDROOT
BRANCH   1   3
ATOM      2  O   UNL     1       7.963   4.330  16.874  0.00  0.00    +0.000 OA
ATOM      3  C   UNL     1       7.091   4.818  17.599  0.00  0.00    +0.000 C 
BRANCH   3   4
ATOM      4  C   UNL     1       5.674   4.288  17.565  0.00  0.00    +0.000 C 
BRANCH   4   5
ATOM      5  C   UNL     1       4.675   5.289  18.136  0.00  0.00    +0.000 C 
BRANCH   5   6
ATOM      6  C   UNL     1       3.797   4.645  19.179  0.00  0.00    +0.000 A 
ATOM      7  C   UNL     1       2.844   5.409  19.866  0.00  0.00    +0.000 A 
ATOM      8  C   UNL     1       2.072   4.833  20.876  0.00  0.00    +0.000 A 
ATOM      9  C   UNL     1       2.246   3.490  21.206  0.00  0.00    +0.000 A 
ATOM     10  C   UNL     1       3.185   2.721  20.522  0.00  0.00    +0.000 A 
ATOM     11  C   UNL     1       3.959   3.294  19.513  0.00  0.00    +0.000 A 
ENDBRANCH   5   6
ENDBRANCH   4   5
ENDBRANCH   3   4
ENDBRANCH   1   3
BRANCH   1  12
ATOM     12  C   UNL     1       7.873   7.243  17.712  0.00  0.00    +0.000 C 
BRANCH  12  13
ATOM     13  O   UNL     1       6.767   7.823  17.022  0.00  0.00    +0.000 OA
ATOM     14  H   UNL     1       6.838   7.610  16.074  0.00  0.00    +0.000 HD
ENDBRANCH  12  13
BRANCH  12  15
ATOM     15  C   UNL     1       8.473   8.312  18.636  0.00  0.00    +0.000 C 
BRANCH  15  16
ATOM     16  C   UNL     1       8.456   9.705  18.006  0.00  0.00    +0.000 C 
BRANCH  16  17
ATOM     17  C   UNL     1       9.419  10.649  18.661  0.00  0.00    +0.000 A 
ATOM     18  C   UNL     1      10.351  11.370  17.914  0.00  0.00    +0.000 A 
ATOM     19  C   UNL     1      11.249  12.208  18.566  0.00  0.00    +0.000 A 
ATOM     20  C   UNL     1      11.175  12.303  19.946  0.00  0.00    +0.000 A 
ATOM     21  N   UNL     1      10.276  11.636  20.699  0.00  0.00    +0.000 NA
ATOM     22  C   UNL     1       9.421  10.827  20.042  0.00  0.00    +0.000 A 
ENDBRANCH  16  17
ENDBRANCH  15  16
ENDBRANCH  12  15
ENDBRANCH   1  12
TORSDOF 9
ENDMDL
