MODEL 1
REMARK VINA RESULT:      -8.8      0.000      0.000
REMARK  Name = 
REMARK  6 active torsions:
REMARK  status: ('A' for Active; 'I' for Inactive)
REMARK    1  A    between atoms: C_2  and  C_3
REMARK    2  A    between atoms: C_3  and  C_4
REMARK    3  A    between atoms: N_14  and  C_15
REMARK    4  A    between atoms: N_17  and  C_18
REMARK    5  A    between atoms: C_20  and  N_21
REMARK    6  A    between atoms: C_22  and  C_24
REMARK                            x       y       z     vdW  Elec       q    Type
REMARK                         _______ _______ _______ _____ _____    ______ ____
ROOT
ATOM      1  C   UNL     1       8.341   8.111  18.540  0.00  0.00    +0.000 A 
ATOM      2  C   UNL     1       7.987   6.800  18.749  0.00  0.00    +0.000 A 
ATOM      3  N   UNL     1       7.351   6.426  17.593  0.00  0.00    +0.000 N 
ATOM      4  C   UNL     1       7.357   7.494  16.751  0.00  0.00    +0.000 A 
ATOM      5  N   UNL     1       8.012   8.499  17.280  0.00  0.00    +0.000 NA
ENDROOT
BRANCH   1   8
ATOM      6  O   UNL     1       9.871  10.806  20.233  0.00  0.00    +0.000 OA
ATOM      7  C   UNL     1       9.296  10.243  19.295  0.00  0.00    +0.000 C 
ATOM      8  N   UNL     1       8.947   8.933  19.451  0.00  0.00    +0.000 N 
ATOM      9  H   UNL     1       9.122   8.567  20.374  0.00  0.00    +0.000 HD
BRANCH   7  10
ATOM     10  C   UNL     1       8.979  11.011  18.018  0.00  0.00    +0.000 C 
BRANCH  10  11
ATOM     11  C   UNL     1       9.862  12.218  17.750  0.00  0.00    +0.000 A 
ATOM     12  C   UNL     1      11.207  12.010  17.375  0.00  0.00    +0.000 A 
ATOM     13  C   UNL     1      12.065  13.082  17.186  0.00  0.00    +0.000 A 
ATOM     14  C   UNL     1      11.560  14.372  17.245  0.00  0.00    +0.000 A 
ATOM     15  C   UNL     1      10.215  14.617  17.569  0.00  0.00    +0.000 A 
ATOM     16  C   UNL     1       9.723  15.928  17.613  0.00  0.00    +0.000 A 
ATOM     17  C   UNL     1       8.483  16.235  18.166  0.00  0.00    +0.000 A 
ATOM     18  C   UNL     1       7.658  15.205  18.573  0.00  0.00    +0.000 A 
ATOM     19  C   UNL     1       8.068  13.883  18.384  0.00  0.00    +0.000 A 
ATOM     20  C   UNL     1       9.356  13.546  17.891  0.00  0.00    +0.000 A 
ENDBRANCH  10  11
ENDBRANCH   7  10
ENDBRANCH   1   8
BRANCH   3  21
ATOM     21  C   UNL     1       6.900   5.085  17.310  0.00  0.00    +0.000 C 
ATOM     22  C   UNL     1       5.932   4.543  18.383  0.00  0.00    +0.000 C 
ATOM     23  C   UNL     1       4.747   4.811  17.429  0.00  0.00    +0.000 C 
ATOM     24  C   UNL     1       5.767   4.919  16.273  0.00  0.00    +0.000 C 
BRANCH  23  25
ATOM     25  N   UNL     1       3.983   6.051  17.715  0.00  0.00    +0.000 N 
ATOM     26  C   UNL     1       3.151   6.139  18.816  0.00  0.00    +0.000 C 
ATOM     27  O   UNL     1       3.041   5.240  19.633  0.00  0.00    +0.000 OA
ATOM     28  H   UNL     1       4.065   6.845  17.096  0.00  0.00    +0.000 HD
BRANCH  26  29
ATOM     29  C   UNL     1       2.343   7.376  18.989  0.00  0.00    +0.000 A 
ATOM     30  C   UNL     1       2.150   8.240  17.901  0.00  0.00    +0.000 A 
ATOM     31  C   UNL     1       1.390   9.398  18.051  0.00  0.00    +0.000 A 
ATOM     32  C   UNL     1       0.885   9.690  19.305  0.00  0.00    +0.000 A 
ATOM     33  N   UNL     1       1.096   8.913  20.387  0.00  0.00    +0.000 NA
ATOM     34  C   UNL     1       1.783   7.757  20.198  0.00  0.00    +0.000 A 
ENDBRANCH  26  29
ENDBRANCH  23  25
ENDBRANCH   3  21
TORSDOF 6
ENDMDL
MODEL 2
REMARK VINA RESULT:      -8.8      1.994      2.267
REMARK  Name = 
REMARK  6 active torsions:
REMARK  status: ('A' for Active; 'I' for Inactive)
REMARK    1  A    between atoms: C_2  and  C_3
REMARK    2  A    between atoms: C_3  and  C_4
REMARK    3  A    between atoms: N_14  and  C_15
REMARK    4  A    between atoms: N_17  and  C_18
REMARK    5  A    between atoms: C_20  and  N_21
REMARK    6  A    between atoms: C_22  and  C_24
REMARK                            x       y       z     vdW  Elec       q    Type
REMARK                         _______ _______ _______ _____ _____    ______ ____
ROOT
ATOM      1  C   UNL     1       7.574   7.780  17.771  0.00  0.00    +0.000 A 
ATOM      2  C   UNL     1       6.764   6.791  17.266  0.00  0.00    +0.000 A 
ATOM      3  N   UNL     1       7.108   5.669  17.973  0.00  0.00    +0.000 N 
ATOM      4  C   UNL     1       8.077   6.017  18.861  0.00  0.00    +0.000 A 
ATOM      5  N   UNL     1       8.321   7.304  18.801  0.00  0.00    +0.000 NA
ENDROOT
BRANCH   1   8
ATOM      6  O   UNL     1       8.207  11.227  17.344  0.00  0.00    +0.000 OA
ATOM      7  C   UNL     1       8.306  10.121  17.885  0.00  0.00    +0.000 C 
ATOM      8  N   UNL     1       7.635   9.072  17.325  0.00  0.00    +0.000 N 
ATOM      9  H   UNL     1       7.181   9.293  16.452  0.00  0.00    +0.000 HD
BRANCH   7  10
ATOM     10  C   UNL     1       9.169   9.948  19.128  0.00  0.00    +0.000 C 
BRANCH  10  11
ATOM     11  C   UNL     1      10.053  11.133  19.474  0.00  0.00    +0.000 A 
ATOM     12  C   UNL     1      11.273  11.301  18.783  0.00  0.00    +0.000 A 
ATOM     13  C   UNL     1      12.141  12.329  19.112  0.00  0.00    +0.000 A 
ATOM     14  C   UNL     1      11.747  13.275  20.047  0.00  0.00    +0.000 A 
ATOM     15  C   UNL     1      10.520  13.168  20.724  0.00  0.00    +0.000 A 
ATOM     16  C   UNL     1      10.136  14.139  21.657  0.00  0.00    +0.000 A 
ATOM     17  C   UNL     1       9.064  13.950  22.524  0.00  0.00    +0.000 A 
ATOM     18  C   UNL     1       8.276  12.825  22.380  0.00  0.00    +0.000 A 
ATOM     19  C   UNL     1       8.548  11.926  21.346  0.00  0.00    +0.000 A 
ATOM     20  C   UNL     1       9.679  12.058  20.496  0.00  0.00    +0.000 A 
ENDBRANCH  10  11
ENDBRANCH   7  10
ENDBRANCH   1   8
BRANCH   3  21
ATOM     21  C   UNL     1       6.434   4.398  17.862  0.00  0.00    +0.000 C 
ATOM     22  C   UNL     1       5.435   4.151  19.013  0.00  0.00    +0.000 C 
ATOM     23  C   UNL     1       4.271   4.502  18.060  0.00  0.00    +0.000 C 
ATOM     24  C   UNL     1       5.247   4.306  16.878  0.00  0.00    +0.000 C 
BRANCH  23  25
ATOM     25  N   UNL     1       3.732   5.876  18.213  0.00  0.00    +0.000 N 
ATOM     26  C   UNL     1       2.684   6.140  19.075  0.00  0.00    +0.000 C 
ATOM     27  O   UNL     1       2.187   5.286  19.790  0.00  0.00    +0.000 OA
ATOM     28  H   UNL     1       4.130   6.634  17.676  0.00  0.00    +0.000 HD
BRANCH  26  29
ATOM     29  C   UNL     1       2.131   7.521  19.107  0.00  0.00    +0.000 A 
ATOM     30  C   UNL     1       2.191   8.322  17.957  0.00  0.00    +0.000 A 
ATOM     31  C   UNL     1       1.671   9.615  17.975  0.00  0.00    +0.000 A 
ATOM     32  C   UNL     1       1.150  10.093  19.163  0.00  0.00    +0.000 A 
ATOM     33  N   UNL     1       1.126   9.372  20.304  0.00  0.00    +0.000 NA
ATOM     34  C   UNL     1       1.578   8.094  20.241  0.00  0.00    +0.000 A 
ENDBRANCH  26  29
ENDBRANCH  23  25
ENDBRANCH   3  21
TORSDOF 6
ENDMDL
MODEL 3
REMARK VINA RESULT:      -8.7      5.433      8.088
REMARK  Name = 
REMARK  6 active torsions:
REMARK  status: ('A' for Active; 'I' for Inactive)
REMARK    1  A    between atoms: C_2  and  C_3
REMARK    2  A    between atoms: C_3  and  C_4
REMARK    3  A    between atoms: N_14  and  C_15
REMARK    4  A    between atoms: N_17  and  C_18
REMARK    5  A    between atoms: C_20  and  N_21
REMARK    6  A    between atoms: C_22  and  C_24
REMARK                            x       y       z     vdW  Elec       q    Type
REMARK                         _______ _______ _______ _____ _____    ______ ____
ROOT
ATOM      1  C   UNL     1       1.698   5.606  18.790  0.00  0.00    +0.000 A 
ATOM      2  C   UNL     1       1.440   5.948  20.095  0.00  0.00    +0.000 A 
ATOM      3  N   UNL     1       1.846   7.253  20.196  0.00  0.00    +0.000 N 
ATOM      4  C   UNL     1       2.309   7.641  18.978  0.00  0.00    +0.000 A 
ATOM      5  N   UNL     1       2.162   6.680  18.098  0.00  0.00    +0.000 NA
ENDROOT
BRANCH   1   8
ATOM      6  O   UNL     1       2.091   2.357  17.464  0.00  0.00    +0.000 OA
ATOM      7  C   UNL     1       2.454   3.402  18.014  0.00  0.00    +0.000 C 
ATOM      8  N   UNL     1       1.516   4.369  18.233  0.00  0.00    +0.000 N 
ATOM      9  H   UNL     1       0.575   4.093  17.994  0.00  0.00    +0.000 HD
BRANCH   7  10
ATOM     10  C   UNL     1       3.904   3.580  18.444  0.00  0.00    +0.000 C 
BRANCH  10  11
ATOM     11  C   UNL     1       4.787   4.325  17.457  0.00  0.00    +0.000 A 
ATOM     12  C   UNL     1       4.524   4.200  16.075  0.00  0.00    +0.000 A 
ATOM     13  C   UNL     1       5.344   4.807  15.137  0.00  0.00    +0.000 A 
ATOM     14  C   UNL     1       6.359   5.647  15.570  0.00  0.00    +0.000 A 
ATOM     15  C   UNL     1       6.623   5.833  16.937  0.00  0.00    +0.000 A 
ATOM     16  C   UNL     1       7.648   6.694  17.352  0.00  0.00    +0.000 A 
ATOM     17  C   UNL     1       8.107   6.719  18.666  0.00  0.00    +0.000 A 
ATOM     18  C   UNL     1       7.453   5.962  19.618  0.00  0.00    +0.000 A 
ATOM     19  C   UNL     1       6.325   5.223  19.251  0.00  0.00    +0.000 A 
ATOM     20  C   UNL     1       5.883   5.124  17.905  0.00  0.00    +0.000 A 
ENDBRANCH  10  11
ENDBRANCH   7  10
ENDBRANCH   1   8
BRANCH   3  21
ATOM     21  C   UNL     1       1.661   8.074  21.369  0.00  0.00    +0.000 C 
ATOM     22  C   UNL     1       1.722   9.584  21.054  0.00  0.00    +0.000 C 
ATOM     23  C   UNL     1       0.181   9.651  21.144  0.00  0.00    +0.000 C 
ATOM     24  C   UNL     1       0.215   8.287  21.868  0.00  0.00    +0.000 C 
BRANCH  23  25
ATOM     25  N   UNL     1      -0.520   9.655  19.836  0.00  0.00    +0.000 N 
ATOM     26  C   UNL     1      -1.265  10.747  19.429  0.00  0.00    +0.000 C 
ATOM     27  O   UNL     1      -1.341  11.774  20.082  0.00  0.00    +0.000 OA
ATOM     28  H   UNL     1      -0.461   8.847  19.233  0.00  0.00    +0.000 HD
BRANCH  26  29
ATOM     29  C   UNL     1      -2.020  10.645  18.150  0.00  0.00    +0.000 A 
ATOM     30  C   UNL     1      -1.572   9.777  17.144  0.00  0.00    +0.000 A 
ATOM     31  C   UNL     1      -2.276   9.670  15.946  0.00  0.00    +0.000 A 
ATOM     32  C   UNL     1      -3.384  10.477  15.765  0.00  0.00    +0.000 A 
ATOM     33  N   UNL     1      -3.812  11.364  16.687  0.00  0.00    +0.000 NA
ATOM     34  C   UNL     1      -3.148  11.400  17.871  0.00  0.00    +0.000 A 
ENDBRANCH  26  29
ENDBRANCH  23  25
ENDBRANCH   3  21
TORSDOF 6
ENDMDL
MODEL 4
REMARK VINA RESULT:      -8.7      7.000     10.572
REMARK  Name = 
REMARK  6 active torsions:
REMARK  status: ('A' for Active; 'I' for Inactive)
REMARK    1  A    between atoms: C_2  and  C_3
REMARK    2  A    between atoms: C_3  and  C_4
REMARK    3  A    between atoms: N_14  and  C_15
REMARK    4  A    between atoms: N_17  and  C_18
REMARK    5  A    between atoms: C_20  and  N_21
REMARK    6  A    between atoms: C_22  and  C_24
REMARK                            x       y       z     vdW  Elec       q    Type
REMARK                         _______ _______ _______ _____ _____    ______ ____
ROOT
ATOM      1  C   UNL     1      -0.265  14.844  20.295  0.00  0.00    +0.000 A 
ATOM      2  C   UNL     1      -1.112  14.169  21.141  0.00  0.00    +0.000 A 
ATOM      3  N   UNL     1      -2.208  14.985  21.254  0.00  0.00    +0.000 N 
ATOM      4  C   UNL     1      -1.990  16.084  20.484  0.00  0.00    +0.000 A 
ATOM      5  N   UNL     1      -0.852  15.983  19.842  0.00  0.00    +0.000 NA
ENDROOT
BRANCH   1   8
ATOM      6  O   UNL     1       2.585  13.052  19.231  0.00  0.00    +0.000 OA
ATOM      7  C   UNL     1       1.385  13.224  19.470  0.00  0.00    +0.000 C 
ATOM      8  N   UNL     1       0.993  14.446  19.935  0.00  0.00    +0.000 N 
ATOM      9  H   UNL     1       1.731  15.134  19.956  0.00  0.00    +0.000 HD
BRANCH   7  10
ATOM     10  C   UNL     1       0.385  12.099  19.232  0.00  0.00    +0.000 C 
BRANCH  10  11
ATOM     11  C   UNL     1       0.620  10.839  20.046  0.00  0.00    +0.000 A 
ATOM     12  C   UNL     1       0.228  10.818  21.403  0.00  0.00    +0.000 A 
ATOM     13  C   UNL     1       0.484   9.714  22.200  0.00  0.00    +0.000 A 
ATOM     14  C   UNL     1       1.018   8.572  21.623  0.00  0.00    +0.000 A 
ATOM     15  C   UNL     1       1.378   8.538  20.265  0.00  0.00    +0.000 A 
ATOM     16  C   UNL     1       1.908   7.370  19.699  0.00  0.00    +0.000 A 
ATOM     17  C   UNL     1       2.505   7.362  18.443  0.00  0.00    +0.000 A 
ATOM     18  C   UNL     1       2.467   8.509  17.675  0.00  0.00    +0.000 A 
ATOM     19  C   UNL     1       1.798   9.636  18.159  0.00  0.00    +0.000 A 
ATOM     20  C   UNL     1       1.246   9.693  19.467  0.00  0.00    +0.000 A 
ENDBRANCH  10  11
ENDBRANCH   7  10
ENDBRANCH   1   8
BRANCH   3  21
ATOM     21  C   UNL     1      -3.415  14.631  21.962  0.00  0.00    +0.000 C 
ATOM     22  C   UNL     1      -4.642  14.529  21.031  0.00  0.00    +0.000 C 
ATOM     23  C   UNL     1      -4.532  12.989  21.078  0.00  0.00    +0.000 C 
ATOM     24  C   UNL     1      -3.622  13.142  22.317  0.00  0.00    +0.000 C 
BRANCH  23  25
ATOM     25  N   UNL     1      -3.887  12.372  19.893  0.00  0.00    +0.000 N 
ATOM     26  C   UNL     1      -4.641  11.904  18.832  0.00  0.00    +0.000 C 
ATOM     27  O   UNL     1      -5.854  12.019  18.784  0.00  0.00    +0.000 OA
ATOM     28  H   UNL     1      -2.881  12.286  19.857  0.00  0.00    +0.000 HD
BRANCH  26  29
ATOM     29  C   UNL     1      -3.935  11.211  17.720  0.00  0.00    +0.000 A 
ATOM     30  C   UNL     1      -2.736  10.529  17.975  0.00  0.00    +0.000 A 
ATOM     31  C   UNL     1      -2.071   9.872  16.941  0.00  0.00    +0.000 A 
ATOM     32  C   UNL     1      -2.596   9.960  15.666  0.00  0.00    +0.000 A 
ATOM     33  N   UNL     1      -3.716  10.654  15.373  0.00  0.00    +0.000 NA
ATOM     34  C   UNL     1      -4.380  11.228  16.408  0.00  0.00    +0.000 A 
ENDBRANCH  26  29
ENDBRANCH  23  25
ENDBRANCH   3  21
TORSDOF 6
ENDMDL
MODEL 5
REMARK VINA RESULT:      -8.6      5.764      9.706
REMARK  Name = 
REMARK  6 active torsions:
REMARK  status: ('A' for Active; 'I' for Inactive)
REMARK    1  A    between atoms: C_2  and  C_3
REMARK    2  A    between atoms: C_3  and  C_4
REMARK    3  A    between atoms: N_14  and  C_15
REMARK    4  A    between atoms: N_17  and  C_18
REMARK    5  A    between atoms: C_20  and  N_21
REMARK    6  A    between atoms: C_22  and  C_24
REMARK                            x       y       z     vdW  Elec       q    Type
REMARK                         _______ _______ _______ _____ _____    ______ ____
ROOT
ATOM      1  C   UNL     1       1.112   8.936  20.820  0.00  0.00    +0.000 A 
ATOM      2  C   UNL     1       0.664   9.343  19.587  0.00  0.00    +0.000 A 
ATOM      3  N   UNL     1       0.385  10.676  19.744  0.00  0.00    +0.000 N 
ATOM      4  C   UNL     1       0.678  11.014  21.029  0.00  0.00    +0.000 A 
ATOM      5  N   UNL     1       1.185   9.991  21.673  0.00  0.00    +0.000 NA
ENDROOT
BRANCH   1   8
ATOM      6  O   UNL     1       2.180   5.571  20.868  0.00  0.00    +0.000 OA
ATOM      7  C   UNL     1       1.971   6.681  20.367  0.00  0.00    +0.000 C 
ATOM      8  N   UNL     1       1.452   7.657  21.168  0.00  0.00    +0.000 N 
ATOM      9  H   UNL     1       1.369   7.393  22.138  0.00  0.00    +0.000 HD
BRANCH   7  10
ATOM     10  C   UNL     1       2.304   6.938  18.903  0.00  0.00    +0.000 C 
BRANCH  10  11
ATOM     11  C   UNL     1       2.819   5.734  18.133  0.00  0.00    +0.000 A 
ATOM     12  C   UNL     1       1.994   4.594  18.015  0.00  0.00    +0.000 A 
ATOM     13  C   UNL     1       2.450   3.450  17.379  0.00  0.00    +0.000 A 
ATOM     14  C   UNL     1       3.683   3.474  16.746  0.00  0.00    +0.000 A 
ATOM     15  C   UNL     1       4.514   4.606  16.802  0.00  0.00    +0.000 A 
ATOM     16  C   UNL     1       5.752   4.612  16.147  0.00  0.00    +0.000 A 
ATOM     17  C   UNL     1       6.706   5.598  16.377  0.00  0.00    +0.000 A 
ATOM     18  C   UNL     1       6.379   6.672  17.182  0.00  0.00    +0.000 A 
ATOM     19  C   UNL     1       5.090   6.764  17.712  0.00  0.00    +0.000 A 
ATOM     20  C   UNL     1       4.124   5.735  17.552  0.00  0.00    +0.000 A 
ENDBRANCH  10  11
ENDBRANCH   7  10
ENDBRANCH   1   8
BRANCH   3  21
ATOM     21  C   UNL     1      -0.012  11.556  18.672  0.00  0.00    +0.000 C 
ATOM     22  C   UNL     1      -1.486  11.363  18.257  0.00  0.00    +0.000 C 
ATOM     23  C   UNL     1      -1.858  12.646  19.033  0.00  0.00    +0.000 C 
ATOM     24  C   UNL     1      -0.358  13.016  19.040  0.00  0.00    +0.000 C 
BRANCH  23  25
ATOM     25  N   UNL     1      -2.458  12.416  20.370  0.00  0.00    +0.000 N 
ATOM     26  C   UNL     1      -3.709  12.912  20.687  0.00  0.00    +0.000 C 
ATOM     27  O   UNL     1      -4.404  13.511  19.883  0.00  0.00    +0.000 OA
ATOM     28  H   UNL     1      -1.946  11.892  21.066  0.00  0.00    +0.000 HD
BRANCH  26  29
ATOM     29  C   UNL     1      -4.207  12.726  22.078  0.00  0.00    +0.000 A 
ATOM     30  C   UNL     1      -3.296  12.504  23.120  0.00  0.00    +0.000 A 
ATOM     31  C   UNL     1      -3.753  12.334  24.426  0.00  0.00    +0.000 A 
ATOM     32  C   UNL     1      -5.118  12.338  24.646  0.00  0.00    +0.000 A 
ATOM     33  N   UNL     1      -6.026  12.493  23.660  0.00  0.00    +0.000 NA
ATOM     34  C   UNL     1      -5.553  12.723  22.409  0.00  0.00    +0.000 A 
ENDBRANCH  26  29
ENDBRANCH  23  25
ENDBRANCH   3  21
TORSDOF 6
ENDMDL
MODEL 6
REMARK VINA RESULT:      -8.6      5.419      7.965
REMARK  Name = 
REMARK  6 active torsions:
REMARK  status: ('A' for Active; 'I' for Inactive)
REMARK    1  A    between atoms: C_2  and  C_3
REMARK    2  A    between atoms: C_3  and  C_4
REMARK    3  A    between atoms: N_14  and  C_15
REMARK    4  A    between atoms: N_17  and  C_18
REMARK    5  A    between atoms: C_20  and  N_21
REMARK    6  A    between atoms: C_22  and  C_24
REMARK                            x       y       z     vdW  Elec       q    Type
REMARK                         _______ _______ _______ _____ _____    ______ ____
ROOT
ATOM      1  C   UNL     1       9.714  11.148  20.441  0.00  0.00    +0.000 A 
ATOM      2  C   UNL     1      10.823  11.929  20.219  0.00  0.00    +0.000 A 
ATOM      3  N   UNL     1      10.998  11.900  18.860  0.00  0.00    +0.000 N 
ATOM      4  C   UNL     1      10.009  11.133  18.329  0.00  0.00    +0.000 A 
ATOM      5  N   UNL     1       9.183  10.728  19.263  0.00  0.00    +0.000 NA
ENDROOT
BRANCH   1   8
ATOM      6  O   UNL     1       8.124  11.161  23.594  0.00  0.00    +0.000 OA
ATOM      7  C   UNL     1       8.484  11.632  22.510  0.00  0.00    +0.000 C 
ATOM      8  N   UNL     1       9.191  10.828  21.664  0.00  0.00    +0.000 N 
ATOM      9  H   UNL     1       9.279   9.874  21.981  0.00  0.00    +0.000 HD
BRANCH   7  10
ATOM     10  C   UNL     1       8.125  13.066  22.139  0.00  0.00    +0.000 C 
BRANCH  10  11
ATOM     11  C   UNL     1       8.588  14.127  23.122  0.00  0.00    +0.000 A 
ATOM     12  C   UNL     1       8.011  14.163  24.410  0.00  0.00    +0.000 A 
ATOM     13  C   UNL     1       8.356  15.154  25.316  0.00  0.00    +0.000 A 
ATOM     14  C   UNL     1       9.370  16.043  24.992  0.00  0.00    +0.000 A 
ATOM     15  C   UNL     1      10.000  16.009  23.737  0.00  0.00    +0.000 A 
ATOM     16  C   UNL     1      11.030  16.910  23.434  0.00  0.00    +0.000 A 
ATOM     17  C   UNL     1      11.506  17.081  22.138  0.00  0.00    +0.000 A 
ATOM     18  C   UNL     1      11.039  16.251  21.138  0.00  0.00    +0.000 A 
ATOM     19  C   UNL     1      10.132  15.237  21.456  0.00  0.00    +0.000 A 
ATOM     20  C   UNL     1       9.576  15.091  22.755  0.00  0.00    +0.000 A 
ENDBRANCH  10  11
ENDBRANCH   7  10
ENDBRANCH   1   8
BRANCH   3  21
ATOM     21  C   UNL     1      11.986  12.677  18.150  0.00  0.00    +0.000 C 
ATOM     22  C   UNL     1      11.523  13.075  16.733  0.00  0.00    +0.000 C 
ATOM     23  C   UNL     1      11.221  14.501  17.247  0.00  0.00    +0.000 C 
ATOM     24  C   UNL     1      12.084  14.182  18.488  0.00  0.00    +0.000 C 
BRANCH  23  25
ATOM     25  N   UNL     1       9.789  14.773  17.526  0.00  0.00    +0.000 N 
ATOM     26  C   UNL     1       9.348  16.052  17.812  0.00  0.00    +0.000 C 
ATOM     27  O   UNL     1      10.086  17.023  17.797  0.00  0.00    +0.000 OA
ATOM     28  H   UNL     1       9.122  14.014  17.513  0.00  0.00    +0.000 HD
BRANCH  26  29
ATOM     29  C   UNL     1       7.917  16.237  18.177  0.00  0.00    +0.000 A 
ATOM     30  C   UNL     1       7.003  15.197  17.957  0.00  0.00    +0.000 A 
ATOM     31  C   UNL     1       5.662  15.358  18.301  0.00  0.00    +0.000 A 
ATOM     32  C   UNL     1       5.260  16.580  18.809  0.00  0.00    +0.000 A 
ATOM     33  N   UNL     1       6.100  17.622  18.982  0.00  0.00    +0.000 NA
ATOM     34  C   UNL     1       7.412  17.416  18.702  0.00  0.00    +0.000 A 
ENDBRANCH  26  29
ENDBRANCH  23  25
ENDBRANCH   3  21
TORSDOF 6
ENDMDL
MODEL 7
REMARK VINA RESULT:      -8.6      5.691      8.397
REMARK  Name = 
REMARK  6 active torsions:
REMARK  status: ('A' for Active; 'I' for Inactive)
REMARK    1  A    between atoms: C_2  and  C_3
REMARK    2  A    between atoms: C_3  and  C_4
REMARK    3  A    between atoms: N_14  and  C_15
REMARK    4  A    between atoms: N_17  and  C_18
REMARK    5  A    between atoms: C_20  and  N_21
REMARK    6  A    between atoms: C_22  and  C_24
REMARK                            x       y       z     vdW  Elec       q    Type
REMARK                         _______ _______ _______ _____ _____    ______ ____
ROOT
ATOM      1  C   UNL     1       2.495   7.145  18.306  0.00  0.00    +0.000 A 
ATOM      2  C   UNL     1       2.857   6.426  19.420  0.00  0.00    +0.000 A 
ATOM      3  N   UNL     1       2.272   5.199  19.243  0.00  0.00    +0.000 N 
ATOM      4  C   UNL     1       1.608   5.222  18.056  0.00  0.00    +0.000 A 
ATOM      5  N   UNL     1       1.790   6.367  17.444  0.00  0.00    +0.000 NA
ENDROOT
BRANCH   1   8
ATOM      6  O   UNL     1       2.399  10.621  17.693  0.00  0.00    +0.000 OA
ATOM      7  C   UNL     1       1.929   9.507  17.944  0.00  0.00    +0.000 C 
ATOM      8  N   UNL     1       2.794   8.459  18.068  0.00  0.00    +0.000 N 
ATOM      9  H   UNL     1       3.767   8.722  18.025  0.00  0.00    +0.000 HD
BRANCH   7  10
ATOM     10  C   UNL     1       0.426   9.330  18.123  0.00  0.00    +0.000 C 
BRANCH  10  11
ATOM     11  C   UNL     1      -0.246  10.357  19.019  0.00  0.00    +0.000 A 
ATOM     12  C   UNL     1      -0.829  11.500  18.430  0.00  0.00    +0.000 A 
ATOM     13  C   UNL     1      -1.394  12.494  19.213  0.00  0.00    +0.000 A 
ATOM     14  C   UNL     1      -1.495  12.300  20.582  0.00  0.00    +0.000 A 
ATOM     15  C   UNL     1      -0.967  11.154  21.201  0.00  0.00    +0.000 A 
ATOM     16  C   UNL     1      -1.089  10.973  22.585  0.00  0.00    +0.000 A 
ATOM     17  C   UNL     1      -0.375   9.994  23.269  0.00  0.00    +0.000 A 
ATOM     18  C   UNL     1       0.383   9.092  22.549  0.00  0.00    +0.000 A 
ATOM     19  C   UNL     1       0.385   9.157  21.153  0.00  0.00    +0.000 A 
ATOM     20  C   UNL     1      -0.275  10.191  20.437  0.00  0.00    +0.000 A 
ENDBRANCH  10  11
ENDBRANCH   7  10
ENDBRANCH   1   8
BRANCH   3  21
ATOM     21  C   UNL     1       2.472   4.068  20.117  0.00  0.00    +0.000 C 
ATOM     22  C   UNL     1       2.344   2.718  19.381  0.00  0.00    +0.000 C 
ATOM     23  C   UNL     1       3.884   2.591  19.374  0.00  0.00    +0.000 C 
ATOM     24  C   UNL     1       3.928   3.686  20.464  0.00  0.00    +0.000 C 
BRANCH  23  25
ATOM     25  N   UNL     1       4.534   2.951  18.090  0.00  0.00    +0.000 N 
ATOM     26  C   UNL     1       5.537   3.901  18.039  0.00  0.00    +0.000 C 
ATOM     27  O   UNL     1       5.978   4.448  19.036  0.00  0.00    +0.000 OA
ATOM     28  H   UNL     1       4.238   2.502  17.235  0.00  0.00    +0.000 HD
BRANCH  26  29
ATOM     29  C   UNL     1       6.077   4.283  16.706  0.00  0.00    +0.000 A 
ATOM     30  C   UNL     1       5.631   3.614  15.557  0.00  0.00    +0.000 A 
ATOM     31  C   UNL     1       6.126   3.968  14.303  0.00  0.00    +0.000 A 
ATOM     32  C   UNL     1       7.098   4.949  14.238  0.00  0.00    +0.000 A 
ATOM     33  N   UNL     1       7.592   5.575  15.326  0.00  0.00    +0.000 NA
ATOM     34  C   UNL     1       7.045   5.258  16.528  0.00  0.00    +0.000 A 
ENDBRANCH  26  29
ENDBRANCH  23  25
ENDBRANCH   3  21
TORSDOF 6
ENDMDL
MODEL 8
REMARK VINA RESULT:      -8.5      7.494     11.150
REMARK  Name = 
REMARK  6 active torsions:
REMARK  status: ('A' for Active; 'I' for Inactive)
REMARK    1  A    between atoms: C_2  and  C_3
REMARK    2  A    between atoms: C_3  and  C_4
REMARK    3  A    between atoms: N_14  and  C_15
REMARK    4  A    between atoms: N_17  and  C_18
REMARK    5  A    between atoms: C_20  and  N_21
REMARK    6  A    between atoms: C_22  and  C_24
REMARK                            x       y       z     vdW  Elec       q    Type
REMARK                         _______ _______ _______ _____ _____    ______ ____
ROOT
ATOM      1  C   UNL     1      -1.321  15.089  21.081  0.00  0.00    +0.000 A 
ATOM      2  C   UNL     1      -2.412  14.545  21.715  0.00  0.00    +0.000 A 
ATOM      3  N   UNL     1      -3.467  15.323  21.315  0.00  0.00    +0.000 N 
ATOM      4  C   UNL     1      -2.987  16.273  20.468  0.00  0.00    +0.000 A 
ATOM      5  N   UNL     1      -1.703  16.103  20.261  0.00  0.00    +0.000 NA
ENDROOT
BRANCH   1   8
ATOM      6  O   UNL     1       1.698  13.265  21.241  0.00  0.00    +0.000 OA
ATOM      7  C   UNL     1       0.495  13.438  21.017  0.00  0.00    +0.000 C 
ATOM      8  N   UNL     1      -0.023  14.683  21.228  0.00  0.00    +0.000 N 
ATOM      9  H   UNL     1       0.665  15.380  21.472  0.00  0.00    +0.000 HD
BRANCH   7  10
ATOM     10  C   UNL     1      -0.364  12.289  20.504  0.00  0.00    +0.000 C 
BRANCH  10  11
ATOM     11  C   UNL     1       0.114  10.899  20.888  0.00  0.00    +0.000 A 
ATOM     12  C   UNL     1      -0.133  10.429  22.197  0.00  0.00    +0.000 A 
ATOM     13  C   UNL     1       0.343   9.195  22.610  0.00  0.00    +0.000 A 
ATOM     14  C   UNL     1       0.961   8.365  21.687  0.00  0.00    +0.000 A 
ATOM     15  C   UNL     1       1.183   8.779  20.363  0.00  0.00    +0.000 A 
ATOM     16  C   UNL     1       1.799   7.920  19.444  0.00  0.00    +0.000 A 
ATOM     17  C   UNL     1       2.262   8.366  18.210  0.00  0.00    +0.000 A 
ATOM     18  C   UNL     1       1.998   9.666  17.825  0.00  0.00    +0.000 A 
ATOM     19  C   UNL     1       1.241  10.488  18.662  0.00  0.00    +0.000 A 
ATOM     20  C   UNL     1       0.821  10.080  19.957  0.00  0.00    +0.000 A 
ENDBRANCH  10  11
ENDBRANCH   7  10
ENDBRANCH   1   8
BRANCH   3  21
ATOM     21  C   UNL     1      -4.847  15.055  21.644  0.00  0.00    +0.000 C 
ATOM     22  C   UNL     1      -5.785  15.184  20.426  0.00  0.00    +0.000 C 
ATOM     23  C   UNL     1      -5.835  13.644  20.318  0.00  0.00    +0.000 C 
ATOM     24  C   UNL     1      -5.278  13.576  21.758  0.00  0.00    +0.000 C 
BRANCH  23  25
ATOM     25  N   UNL     1      -4.957  13.063  19.273  0.00  0.00    +0.000 N 
ATOM     26  C   UNL     1      -5.203  11.806  18.752  0.00  0.00    +0.000 C 
ATOM     27  O   UNL     1      -6.170  11.135  19.075  0.00  0.00    +0.000 OA
ATOM     28  H   UNL     1      -4.163  13.588  18.936  0.00  0.00    +0.000 HD
BRANCH  26  29
ATOM     29  C   UNL     1      -4.227  11.246  17.777  0.00  0.00    +0.000 A 
ATOM     30  C   UNL     1      -3.080  10.587  18.241  0.00  0.00    +0.000 A 
ATOM     31  C   UNL     1      -2.163  10.054  17.336  0.00  0.00    +0.000 A 
ATOM     32  C   UNL     1      -2.394  10.243  15.986  0.00  0.00    +0.000 A 
ATOM     33  N   UNL     1      -3.457  10.920  15.504  0.00  0.00    +0.000 NA
ATOM     34  C   UNL     1      -4.368  11.370  16.404  0.00  0.00    +0.000 A 
ENDBRANCH  26  29
ENDBRANCH  23  25
ENDBRANCH   3  21
TORSDOF 6
ENDMDL
MODEL 9
REMARK VINA RESULT:      -8.5      5.936      9.496
REMARK  Name = 
REMARK  6 active torsions:
REMARK  status: ('A' for Active; 'I' for Inactive)
REMARK    1  A    between atoms: C_2  and  C_3
REMARK    2  A    between atoms: C_3  and  C_4
REMARK    3  A    between atoms: N_14  and  C_15
REMARK    4  A    between atoms: N_17  and  C_18
REMARK    5  A    between atoms: C_20  and  N_21
REMARK    6  A    between atoms: C_22  and  C_24
REMARK                            x       y       z     vdW  Elec       q    Type
REMARK                         _______ _______ _______ _____ _____    ______ ____
ROOT
ATOM      1  C   UNL     1       1.865   9.152  18.556  0.00  0.00    +0.000 A 
ATOM      2  C   UNL     1       1.624   8.301  19.608  0.00  0.00    +0.000 A 
ATOM      3  N   UNL     1       1.955   7.060  19.131  0.00  0.00    +0.000 N 
ATOM      4  C   UNL     1       2.382   7.207  17.848  0.00  0.00    +0.000 A 
ATOM      5  N   UNL     1       2.401   8.473  17.508  0.00  0.00    +0.000 NA
ENDROOT
BRANCH   1   8
ATOM      6  O   UNL     1       0.402  12.365  18.626  0.00  0.00    +0.000 OA
ATOM      7  C   UNL     1       0.422  11.132  18.711  0.00  0.00    +0.000 C 
ATOM      8  N   UNL     1       1.618  10.497  18.540  0.00  0.00    +0.000 N 
ATOM      9  H   UNL     1       2.405  11.121  18.442  0.00  0.00    +0.000 HD
BRANCH   7  10
ATOM     10  C   UNL     1      -0.857  10.363  19.017  0.00  0.00    +0.000 C 
BRANCH  10  11
ATOM     11  C   UNL     1      -1.974  10.531  18.001  0.00  0.00    +0.000 A 
ATOM     12  C   UNL     1      -1.820   9.967  16.716  0.00  0.00    +0.000 A 
ATOM     13  C   UNL     1      -2.784  10.152  15.738  0.00  0.00    +0.000 A 
ATOM     14  C   UNL     1      -3.968  10.795  16.068  0.00  0.00    +0.000 A 
ATOM     15  C   UNL     1      -4.178  11.330  17.350  0.00  0.00    +0.000 A 
ATOM     16  C   UNL     1      -5.385  11.967  17.666  0.00  0.00    +0.000 A 
ATOM     17  C   UNL     1      -5.542  12.723  18.823  0.00  0.00    +0.000 A 
ATOM     18  C   UNL     1      -4.520  12.748  19.752  0.00  0.00    +0.000 A 
ATOM     19  C   UNL     1      -3.372  11.984  19.527  0.00  0.00    +0.000 A 
ATOM     20  C   UNL     1      -3.157  11.265  18.322  0.00  0.00    +0.000 A 
ENDBRANCH  10  11
ENDBRANCH   7  10
ENDBRANCH   1   8
BRANCH   3  21
ATOM     21  C   UNL     1       1.968   5.858  19.930  0.00  0.00    +0.000 C 
ATOM     22  C   UNL     1       1.887   4.575  19.076  0.00  0.00    +0.000 C 
ATOM     23  C   UNL     1       3.402   4.358  19.282  0.00  0.00    +0.000 C 
ATOM     24  C   UNL     1       3.336   5.365  20.451  0.00  0.00    +0.000 C 
BRANCH  23  25
ATOM     25  N   UNL     1       4.253   4.773  18.138  0.00  0.00    +0.000 N 
ATOM     26  C   UNL     1       4.635   3.866  17.167  0.00  0.00    +0.000 C 
ATOM     27  O   UNL     1       4.258   2.706  17.163  0.00  0.00    +0.000 OA
ATOM     28  H   UNL     1       4.564   5.731  18.067  0.00  0.00    +0.000 HD
BRANCH  26  29
ATOM     29  C   UNL     1       5.567   4.327  16.102  0.00  0.00    +0.000 A 
ATOM     30  C   UNL     1       5.529   3.728  14.836  0.00  0.00    +0.000 A 
ATOM     31  C   UNL     1       6.393   4.157  13.830  0.00  0.00    +0.000 A 
ATOM     32  C   UNL     1       7.314   5.143  14.137  0.00  0.00    +0.000 A 
ATOM     33  N   UNL     1       7.418   5.703  15.360  0.00  0.00    +0.000 NA
ATOM     34  C   UNL     1       6.520   5.314  16.301  0.00  0.00    +0.000 A 
ENDBRANCH  26  29
ENDBRANCH  23  25
ENDBRANCH   3  21
TORSDOF 6
ENDMDL
