MODEL 1
REMARK VINA RESULT:      -8.1      0.000      0.000
REMARK  Name = 
REMARK  6 active torsions:
REMARK  status: ('A' for Active; 'I' for Inactive)
REMARK    1  A    between atoms: C_1  and  C_2
REMARK    2  A    between atoms: C_2  and  C_3
REMARK    3  A    between atoms: C_3  and  C_4
REMARK    4  A    between atoms: C_4  and  N_5
REMARK    5  A    between atoms: C_6  and  C_7
REMARK    6  A    between atoms: C_10  and  C_11
REMARK                            x       y       z     vdW  Elec       q    Type
REMARK                         _______ _______ _______ _____ _____    ______ ____
ROOT
ATOM      1  N   UNL     1       5.981   6.098  17.971  0.00  0.00    +0.000 N 
ATOM      2  C   UNL     1       7.220   6.411  18.509  0.00  0.00    +0.000 A 
ATOM      3  C   UNL     1       8.124   7.503  18.071  0.00  0.00    +0.000 C 
ATOM      4  N   UNL     1       7.490   5.571  19.478  0.00  0.00    +0.000 NA
ATOM      5  N   UNL     1       6.431   4.732  19.612  0.00  0.00    +0.000 NA
ATOM      6  C   UNL     1       5.493   5.051  18.733  0.00  0.00    +0.000 A 
ENDROOT
BRANCH   6   7
ATOM      7  C   UNL     1       4.174   4.291  18.710  0.00  0.00    +0.000 C 
ATOM      8  C   UNL     1       3.021   5.297  19.022  0.00  0.00    +0.000 C 
ATOM      9  C   UNL     1       1.667   4.580  19.159  0.00  0.00    +0.000 C 
ATOM     10  C   UNL     1       1.340   3.878  17.835  0.00  0.00    +0.000 C 
ATOM     11  C   UNL     1       2.437   2.857  17.506  0.00  0.00    +0.000 C 
ATOM     12  C   UNL     1       2.510   1.812  18.630  0.00  0.00    +0.000 C 
ATOM     13  C   UNL     1       2.842   2.503  19.962  0.00  0.00    +0.000 C 
ATOM     14  C   UNL     1       1.751   3.537  20.284  0.00  0.00    +0.000 C 
ATOM     15  C   UNL     1       4.197   3.221  19.845  0.00  0.00    +0.000 C 
ATOM     16  C   UNL     1       3.802   3.567  17.399  0.00  0.00    +0.000 C 
ENDBRANCH   6   7
BRANCH   1  17
ATOM     17  C   UNL     1       5.401   6.825  16.858  0.00  0.00    +0.000 C 
BRANCH  17  18
ATOM     18  C   UNL     1       5.262   5.977  15.588  0.00  0.00    +0.000 C 
BRANCH  18  20
ATOM     19  C   UNL     1       6.226   3.878  14.477  0.00  0.00    +0.000 C 
ATOM     20  C   UNL     1       6.510   5.161  15.245  0.00  0.00    +0.000 C 
ENDBRANCH  18  20
ENDBRANCH  17  18
ENDBRANCH   1  17
TORSDOF 4
ENDMDL
MODEL 2
REMARK VINA RESULT:      -8.0      0.154      1.678
REMARK  Name = 
REMARK  6 active torsions:
REMARK  status: ('A' for Active; 'I' for Inactive)
REMARK    1  A    between atoms: C_1  and  C_2
REMARK    2  A    between atoms: C_2  and  C_3
REMARK    3  A    between atoms: C_3  and  C_4
REMARK    4  A    between atoms: C_4  and  N_5
REMARK    5  A    between atoms: C_6  and  C_7
REMARK    6  A    between atoms: C_10  and  C_11
REMARK                            x       y       z     vdW  Elec       q    Type
REMARK                         _______ _______ _______ _____ _____    ______ ____
ROOT
ATOM      1  N   UNL     1       5.867   6.086  17.982  0.00  0.00    +0.000 N 
ATOM      2  C   UNL     1       7.144   6.399  18.423  0.00  0.00    +0.000 A 
ATOM      3  C   UNL     1       8.016   7.485  17.911  0.00  0.00    +0.000 C 
ATOM      4  N   UNL     1       7.484   5.566  19.376  0.00  0.00    +0.000 NA
ATOM      5  N   UNL     1       6.435   4.730  19.595  0.00  0.00    +0.000 NA
ATOM      6  C   UNL     1       5.435   5.047  18.786  0.00  0.00    +0.000 A 
ENDROOT
BRANCH   6   7
ATOM      7  C   UNL     1       4.116   4.291  18.868  0.00  0.00    +0.000 C 
ATOM      8  C   UNL     1       3.831   3.646  17.475  0.00  0.00    +0.000 C 
ATOM      9  C   UNL     1       2.444   2.982  17.431  0.00  0.00    +0.000 C 
ATOM     10  C   UNL     1       2.392   1.872  18.489  0.00  0.00    +0.000 C 
ATOM     11  C   UNL     1       2.637   2.471  19.880  0.00  0.00    +0.000 C 
ATOM     12  C   UNL     1       1.549   3.513  20.182  0.00  0.00    +0.000 C 
ATOM     13  C   UNL     1       1.595   4.634  19.132  0.00  0.00    +0.000 C 
ATOM     14  C   UNL     1       1.364   4.032  17.736  0.00  0.00    +0.000 C 
ATOM     15  C   UNL     1       2.975   5.313  19.165  0.00  0.00    +0.000 C 
ATOM     16  C   UNL     1       4.014   3.165  19.918  0.00  0.00    +0.000 C 
ENDBRANCH   6   7
BRANCH   1  17
ATOM     17  C   UNL     1       5.207   6.807  16.910  0.00  0.00    +0.000 C 
BRANCH  17  18
ATOM     18  C   UNL     1       5.246   6.066  15.569  0.00  0.00    +0.000 C 
BRANCH  18  20
ATOM     19  C   UNL     1       6.222   3.901  14.604  0.00  0.00    +0.000 C 
ATOM     20  C   UNL     1       6.483   5.183  15.381  0.00  0.00    +0.000 C 
ENDBRANCH  18  20
ENDBRANCH  17  18
ENDBRANCH   1  17
TORSDOF 4
ENDMDL
MODEL 3
REMARK VINA RESULT:      -7.8      1.507      2.504
REMARK  Name = 
REMARK  6 active torsions:
REMARK  status: ('A' for Active; 'I' for Inactive)
REMARK    1  A    between atoms: C_1  and  C_2
REMARK    2  A    between atoms: C_2  and  C_3
REMARK    3  A    between atoms: C_3  and  C_4
REMARK    4  A    between atoms: C_4  and  N_5
REMARK    5  A    between atoms: C_6  and  C_7
REMARK    6  A    between atoms: C_10  and  C_11
REMARK                            x       y       z     vdW  Elec       q    Type
REMARK                         _______ _______ _______ _____ _____    ______ ____
ROOT
ATOM      1  N   UNL     1       5.306   5.857  17.936  0.00  0.00    +0.000 N 
ATOM      2  C   UNL     1       6.676   6.048  18.030  0.00  0.00    +0.000 A 
ATOM      3  C   UNL     1       7.476   7.081  17.328  0.00  0.00    +0.000 C 
ATOM      4  N   UNL     1       7.178   5.150  18.842  0.00  0.00    +0.000 NA
ATOM      5  N   UNL     1       6.154   4.393  19.314  0.00  0.00    +0.000 NA
ATOM      6  C   UNL     1       5.009   4.822  18.805  0.00  0.00    +0.000 A 
ENDROOT
BRANCH   6   7
ATOM      7  C   UNL     1       3.696   4.171  19.217  0.00  0.00    +0.000 C 
ATOM      8  C   UNL     1       3.040   5.049  20.330  0.00  0.00    +0.000 C 
ATOM      9  C   UNL     1       1.777   4.384  20.903  0.00  0.00    +0.000 C 
ATOM     10  C   UNL     1       0.754   4.204  19.774  0.00  0.00    +0.000 C 
ATOM     11  C   UNL     1       1.351   3.319  18.671  0.00  0.00    +0.000 C 
ATOM     12  C   UNL     1       1.705   1.945  19.260  0.00  0.00    +0.000 C 
ATOM     13  C   UNL     1       2.734   2.112  20.390  0.00  0.00    +0.000 C 
ATOM     14  C   UNL     1       2.142   3.010  21.487  0.00  0.00    +0.000 C 
ATOM     15  C   UNL     1       4.006   2.771  19.832  0.00  0.00    +0.000 C 
ATOM     16  C   UNL     1       2.635   3.968  18.115  0.00  0.00    +0.000 C 
ENDBRANCH   6   7
BRANCH   1  17
ATOM     17  C   UNL     1       4.455   6.674  17.092  0.00  0.00    +0.000 C 
BRANCH  17  18
ATOM     18  C   UNL     1       3.751   7.802  17.855  0.00  0.00    +0.000 C 
BRANCH  18  20
ATOM     19  C   UNL     1       1.503   9.034  17.894  0.00  0.00    +0.000 C 
ATOM     20  C   UNL     1       2.224   7.694  17.855  0.00  0.00    +0.000 C 
ENDBRANCH  18  20
ENDBRANCH  17  18
ENDBRANCH   1  17
TORSDOF 4
ENDMDL
MODEL 4
REMARK VINA RESULT:      -7.8      0.504      1.816
REMARK  Name = 
REMARK  6 active torsions:
REMARK  status: ('A' for Active; 'I' for Inactive)
REMARK    1  A    between atoms: C_1  and  C_2
REMARK    2  A    between atoms: C_2  and  C_3
REMARK    3  A    between atoms: C_3  and  C_4
REMARK    4  A    between atoms: C_4  and  N_5
REMARK    5  A    between atoms: C_6  and  C_7
REMARK    6  A    between atoms: C_10  and  C_11
REMARK                            x       y       z     vdW  Elec       q    Type
REMARK                         _______ _______ _______ _____ _____    ______ ____
ROOT
ATOM      1  N   UNL     1       5.625   6.049  17.913  0.00  0.00    +0.000 N 
ATOM      2  C   UNL     1       6.949   6.323  18.220  0.00  0.00    +0.000 A 
ATOM      3  C   UNL     1       7.785   7.405  17.645  0.00  0.00    +0.000 C 
ATOM      4  N   UNL     1       7.372   5.453  19.104  0.00  0.00    +0.000 NA
ATOM      5  N   UNL     1       6.334   4.633  19.414  0.00  0.00    +0.000 NA
ATOM      6  C   UNL     1       5.259   4.994  18.730  0.00  0.00    +0.000 A 
ENDROOT
BRANCH   6   7
ATOM      7  C   UNL     1       3.939   4.264  18.935  0.00  0.00    +0.000 C 
ATOM      8  C   UNL     1       4.174   3.098  19.947  0.00  0.00    +0.000 C 
ATOM      9  C   UNL     1       2.920   2.220  20.101  0.00  0.00    +0.000 C 
ATOM     10  C   UNL     1       1.770   3.086  20.630  0.00  0.00    +0.000 C 
ATOM     11  C   UNL     1       1.486   4.228  19.645  0.00  0.00    +0.000 C 
ATOM     12  C   UNL     1       1.092   3.637  18.282  0.00  0.00    +0.000 C 
ATOM     13  C   UNL     1       2.240   2.772  17.739  0.00  0.00    +0.000 C 
ATOM     14  C   UNL     1       2.535   1.636  18.732  0.00  0.00    +0.000 C 
ATOM     15  C   UNL     1       3.502   3.636  17.575  0.00  0.00    +0.000 C 
ATOM     16  C   UNL     1       2.751   5.093  19.465  0.00  0.00    +0.000 C 
ENDBRANCH   6   7
BRANCH   1  17
ATOM     17  C   UNL     1       4.869   6.817  16.942  0.00  0.00    +0.000 C 
BRANCH  17  18
ATOM     18  C   UNL     1       5.285   6.538  15.494  0.00  0.00    +0.000 C 
BRANCH  18  20
ATOM     19  C   UNL     1       6.887   4.633  14.879  0.00  0.00    +0.000 C 
ATOM     20  C   UNL     1       5.453   5.051  15.170  0.00  0.00    +0.000 C 
ENDBRANCH  18  20
ENDBRANCH  17  18
ENDBRANCH   1  17
TORSDOF 4
ENDMDL
MODEL 5
REMARK VINA RESULT:      -7.6      1.964      5.457
REMARK  Name = 
REMARK  6 active torsions:
REMARK  status: ('A' for Active; 'I' for Inactive)
REMARK    1  A    between atoms: C_1  and  C_2
REMARK    2  A    between atoms: C_2  and  C_3
REMARK    3  A    between atoms: C_3  and  C_4
REMARK    4  A    between atoms: C_4  and  N_5
REMARK    5  A    between atoms: C_6  and  C_7
REMARK    6  A    between atoms: C_10  and  C_11
REMARK                            x       y       z     vdW  Elec       q    Type
REMARK                         _______ _______ _______ _____ _____    ______ ____
ROOT
ATOM      1  N   UNL     1       3.006   3.990  19.725  0.00  0.00    +0.000 N 
ATOM      2  C   UNL     1       2.867   2.922  20.598  0.00  0.00    +0.000 A 
ATOM      3  C   UNL     1       1.664   2.583  21.398  0.00  0.00    +0.000 C 
ATOM      4  N   UNL     1       3.988   2.244  20.627  0.00  0.00    +0.000 NA
ATOM      5  N   UNL     1       4.853   2.826  19.757  0.00  0.00    +0.000 NA
ATOM      6  C   UNL     1       4.270   3.865  19.176  0.00  0.00    +0.000 A 
ENDROOT
BRANCH   6   7
ATOM      7  C   UNL     1       5.012   4.664  18.114  0.00  0.00    +0.000 C 
ATOM      8  C   UNL     1       4.631   4.093  16.712  0.00  0.00    +0.000 C 
ATOM      9  C   UNL     1       5.449   4.754  15.590  0.00  0.00    +0.000 C 
ATOM     10  C   UNL     1       5.160   6.260  15.585  0.00  0.00    +0.000 C 
ATOM     11  C   UNL     1       5.551   6.867  16.939  0.00  0.00    +0.000 C 
ATOM     12  C   UNL     1       7.051   6.639  17.182  0.00  0.00    +0.000 C 
ATOM     13  C   UNL     1       7.353   5.132  17.195  0.00  0.00    +0.000 C 
ATOM     14  C   UNL     1       6.947   4.521  15.844  0.00  0.00    +0.000 C 
ATOM     15  C   UNL     1       6.545   4.455  18.315  0.00  0.00    +0.000 C 
ATOM     16  C   UNL     1       4.754   6.185  18.070  0.00  0.00    +0.000 C 
ENDBRANCH   6   7
BRANCH   1  17
ATOM     17  C   UNL     1       1.949   4.953  19.488  0.00  0.00    +0.000 C 
BRANCH  17  18
ATOM     18  C   UNL     1       1.821   5.998  20.602  0.00  0.00    +0.000 C 
BRANCH  18  20
ATOM     19  C   UNL     1       1.223   8.460  20.993  0.00  0.00    +0.000 C 
ATOM     20  C   UNL     1       1.941   7.445  20.116  0.00  0.00    +0.000 C 
ENDBRANCH  18  20
ENDBRANCH  17  18
ENDBRANCH   1  17
TORSDOF 4
ENDMDL
MODEL 6
REMARK VINA RESULT:      -7.6      1.569      3.114
REMARK  Name = 
REMARK  6 active torsions:
REMARK  status: ('A' for Active; 'I' for Inactive)
REMARK    1  A    between atoms: C_1  and  C_2
REMARK    2  A    between atoms: C_2  and  C_3
REMARK    3  A    between atoms: C_3  and  C_4
REMARK    4  A    between atoms: C_4  and  N_5
REMARK    5  A    between atoms: C_6  and  C_7
REMARK    6  A    between atoms: C_10  and  C_11
REMARK                            x       y       z     vdW  Elec       q    Type
REMARK                         _______ _______ _______ _____ _____    ______ ____
ROOT
ATOM      1  N   UNL     1       5.226   5.855  18.014  0.00  0.00    +0.000 N 
ATOM      2  C   UNL     1       6.604   6.006  18.037  0.00  0.00    +0.000 A 
ATOM      3  C   UNL     1       7.396   7.026  17.305  0.00  0.00    +0.000 C 
ATOM      4  N   UNL     1       7.123   5.083  18.810  0.00  0.00    +0.000 NA
ATOM      5  N   UNL     1       6.104   4.349  19.327  0.00  0.00    +0.000 NA
ATOM      6  C   UNL     1       4.946   4.817  18.885  0.00  0.00    +0.000 A 
ENDROOT
BRANCH   6   7
ATOM      7  C   UNL     1       3.639   4.198  19.359  0.00  0.00    +0.000 C 
ATOM      8  C   UNL     1       3.953   2.801  19.981  0.00  0.00    +0.000 C 
ATOM      9  C   UNL     1       2.666   2.046  20.355  0.00  0.00    +0.000 C 
ATOM     10  C   UNL     1       1.894   2.867  21.396  0.00  0.00    +0.000 C 
ATOM     11  C   UNL     1       1.538   4.240  20.811  0.00  0.00    +0.000 C 
ATOM     12  C   UNL     1       0.662   4.049  19.563  0.00  0.00    +0.000 C 
ATOM     13  C   UNL     1       1.428   3.232  18.510  0.00  0.00    +0.000 C 
ATOM     14  C   UNL     1       1.797   1.861  19.101  0.00  0.00    +0.000 C 
ATOM     15  C   UNL     1       2.717   3.975  18.120  0.00  0.00    +0.000 C 
ATOM     16  C   UNL     1       2.825   4.988  20.405  0.00  0.00    +0.000 C 
ENDBRANCH   6   7
BRANCH   1  17
ATOM     17  C   UNL     1       4.356   6.707  17.226  0.00  0.00    +0.000 C 
BRANCH  17  18
ATOM     18  C   UNL     1       3.597   7.739  18.068  0.00  0.00    +0.000 C 
BRANCH  18  20
ATOM     19  C   UNL     1       1.494   9.195  17.908  0.00  0.00    +0.000 C 
ATOM     20  C   UNL     1       2.098   7.806  17.768  0.00  0.00    +0.000 C 
ENDBRANCH  18  20
ENDBRANCH  17  18
ENDBRANCH   1  17
TORSDOF 4
ENDMDL
MODEL 7
REMARK VINA RESULT:      -7.4      1.806      5.316
REMARK  Name = 
REMARK  6 active torsions:
REMARK  status: ('A' for Active; 'I' for Inactive)
REMARK    1  A    between atoms: C_1  and  C_2
REMARK    2  A    between atoms: C_2  and  C_3
REMARK    3  A    between atoms: C_3  and  C_4
REMARK    4  A    between atoms: C_4  and  N_5
REMARK    5  A    between atoms: C_6  and  C_7
REMARK    6  A    between atoms: C_10  and  C_11
REMARK                            x       y       z     vdW  Elec       q    Type
REMARK                         _______ _______ _______ _____ _____    ______ ____
ROOT
ATOM      1  N   UNL     1       3.409   3.695  19.969  0.00  0.00    +0.000 N 
ATOM      2  C   UNL     1       2.430   4.080  20.873  0.00  0.00    +0.000 A 
ATOM      3  C   UNL     1       1.731   3.205  21.847  0.00  0.00    +0.000 C 
ATOM      4  N   UNL     1       2.194   5.361  20.728  0.00  0.00    +0.000 NA
ATOM      5  N   UNL     1       3.030   5.835  19.769  0.00  0.00    +0.000 NA
ATOM      6  C   UNL     1       3.796   4.853  19.318  0.00  0.00    +0.000 A 
ENDROOT
BRANCH   6   7
ATOM      7  C   UNL     1       4.862   5.133  18.267  0.00  0.00    +0.000 C 
ATOM      8  C   UNL     1       6.244   5.242  18.985  0.00  0.00    +0.000 C 
ATOM      9  C   UNL     1       7.356   5.666  18.010  0.00  0.00    +0.000 C 
ATOM     10  C   UNL     1       7.476   4.611  16.904  0.00  0.00    +0.000 C 
ATOM     11  C   UNL     1       6.143   4.495  16.152  0.00  0.00    +0.000 C 
ATOM     12  C   UNL     1       5.796   5.853  15.523  0.00  0.00    +0.000 C 
ATOM     13  C   UNL     1       5.668   6.919  16.623  0.00  0.00    +0.000 C 
ATOM     14  C   UNL     1       6.998   7.024  17.386  0.00  0.00    +0.000 C 
ATOM     15  C   UNL     1       4.556   6.512  17.605  0.00  0.00    +0.000 C 
ATOM     16  C   UNL     1       5.020   4.100  17.133  0.00  0.00    +0.000 C 
ENDBRANCH   6   7
BRANCH   1  17
ATOM     17  C   UNL     1       3.880   2.328  19.856  0.00  0.00    +0.000 C 
BRANCH  17  18
ATOM     18  C   UNL     1       3.249   1.567  18.683  0.00  0.00    +0.000 C 
BRANCH  18  20
ATOM     19  C   UNL     1       0.735   2.061  18.614  0.00  0.00    +0.000 C 
ATOM     20  C   UNL     1       2.103   2.317  17.999  0.00  0.00    +0.000 C 
ENDBRANCH  18  20
ENDBRANCH  17  18
ENDBRANCH   1  17
TORSDOF 4
ENDMDL
MODEL 8
REMARK VINA RESULT:      -7.4      1.382      2.742
REMARK  Name = 
REMARK  6 active torsions:
REMARK  status: ('A' for Active; 'I' for Inactive)
REMARK    1  A    between atoms: C_1  and  C_2
REMARK    2  A    between atoms: C_2  and  C_3
REMARK    3  A    between atoms: C_3  and  C_4
REMARK    4  A    between atoms: C_4  and  N_5
REMARK    5  A    between atoms: C_6  and  C_7
REMARK    6  A    between atoms: C_10  and  C_11
REMARK                            x       y       z     vdW  Elec       q    Type
REMARK                         _______ _______ _______ _____ _____    ______ ____
ROOT
ATOM      1  N   UNL     1       5.443   5.857  18.024  0.00  0.00    +0.000 N 
ATOM      2  C   UNL     1       6.774   6.198  18.208  0.00  0.00    +0.000 A 
ATOM      3  C   UNL     1       7.537   7.223  17.454  0.00  0.00    +0.000 C 
ATOM      4  N   UNL     1       7.279   5.454  19.161  0.00  0.00    +0.000 NA
ATOM      5  N   UNL     1       6.290   4.653  19.635  0.00  0.00    +0.000 NA
ATOM      6  C   UNL     1       5.163   4.901  18.985  0.00  0.00    +0.000 A 
ENDROOT
BRANCH   6   7
ATOM      7  C   UNL     1       3.883   4.169  19.363  0.00  0.00    +0.000 C 
ATOM      8  C   UNL     1       3.062   3.909  18.061  0.00  0.00    +0.000 C 
ATOM      9  C   UNL     1       1.685   3.298  18.372  0.00  0.00    +0.000 C 
ATOM     10  C   UNL     1       1.887   1.954  19.084  0.00  0.00    +0.000 C 
ATOM     11  C   UNL     1       2.666   2.171  20.388  0.00  0.00    +0.000 C 
ATOM     12  C   UNL     1       1.870   3.115  21.303  0.00  0.00    +0.000 C 
ATOM     13  C   UNL     1       1.666   4.468  20.602  0.00  0.00    +0.000 C 
ATOM     14  C   UNL     1       0.899   4.249  19.289  0.00  0.00    +0.000 C 
ATOM     15  C   UNL     1       3.034   5.096  20.287  0.00  0.00    +0.000 C 
ATOM     16  C   UNL     1       4.035   2.812  20.082  0.00  0.00    +0.000 C 
ENDBRANCH   6   7
BRANCH   1  17
ATOM     17  C   UNL     1       4.603   6.481  17.020  0.00  0.00    +0.000 C 
BRANCH  17  18
ATOM     18  C   UNL     1       3.894   7.744  17.524  0.00  0.00    +0.000 C 
BRANCH  18  20
ATOM     19  C   UNL     1       1.722   8.768  18.420  0.00  0.00    +0.000 C 
ATOM     20  C   UNL     1       2.412   7.539  17.846  0.00  0.00    +0.000 C 
ENDBRANCH  18  20
ENDBRANCH  17  18
ENDBRANCH   1  17
TORSDOF 4
ENDMDL
MODEL 9
REMARK VINA RESULT:      -7.3      1.843      5.171
REMARK  Name = 
REMARK  6 active torsions:
REMARK  status: ('A' for Active; 'I' for Inactive)
REMARK    1  A    between atoms: C_1  and  C_2
REMARK    2  A    between atoms: C_2  and  C_3
REMARK    3  A    between atoms: C_3  and  C_4
REMARK    4  A    between atoms: C_4  and  N_5
REMARK    5  A    between atoms: C_6  and  C_7
REMARK    6  A    between atoms: C_10  and  C_11
REMARK                            x       y       z     vdW  Elec       q    Type
REMARK                         _______ _______ _______ _____ _____    ______ ____
ROOT
ATOM      1  N   UNL     1       3.030   4.246  19.544  0.00  0.00    +0.000 N 
ATOM      2  C   UNL     1       2.740   3.246  20.460  0.00  0.00    +0.000 A 
ATOM      3  C   UNL     1       1.474   3.076  21.214  0.00  0.00    +0.000 C 
ATOM      4  N   UNL     1       3.781   2.459  20.577  0.00  0.00    +0.000 NA
ATOM      5  N   UNL     1       4.740   2.902  19.723  0.00  0.00    +0.000 NA
ATOM      6  C   UNL     1       4.296   3.963  19.065  0.00  0.00    +0.000 A 
ENDROOT
BRANCH   6   7
ATOM      7  C   UNL     1       5.165   4.624  18.004  0.00  0.00    +0.000 C 
ATOM      8  C   UNL     1       5.084   6.171  18.196  0.00  0.00    +0.000 C 
ATOM      9  C   UNL     1       5.822   6.921  17.073  0.00  0.00    +0.000 C 
ATOM     10  C   UNL     1       7.301   6.515  17.094  0.00  0.00    +0.000 C 
ATOM     11  C   UNL     1       7.426   5.001  16.877  0.00  0.00    +0.000 C 
ATOM     12  C   UNL     1       6.818   4.632  15.516  0.00  0.00    +0.000 C 
ATOM     13  C   UNL     1       5.333   5.029  15.484  0.00  0.00    +0.000 C 
ATOM     14  C   UNL     1       5.206   6.543  15.716  0.00  0.00    +0.000 C 
ATOM     15  C   UNL     1       4.578   4.285  16.599  0.00  0.00    +0.000 C 
ATOM     16  C   UNL     1       6.661   4.247  17.984  0.00  0.00    +0.000 C 
ENDBRANCH   6   7
BRANCH   1  17
ATOM     17  C   UNL     1       2.091   5.299  19.208  0.00  0.00    +0.000 C 
BRANCH  17  18
ATOM     18  C   UNL     1       2.133   6.481  20.184  0.00  0.00    +0.000 C 
BRANCH  18  20
ATOM     19  C   UNL     1       2.219   7.840  18.012  0.00  0.00    +0.000 C 
ATOM     20  C   UNL     1       1.972   7.847  19.514  0.00  0.00    +0.000 C 
ENDBRANCH  18  20
ENDBRANCH  17  18
ENDBRANCH   1  17
TORSDOF 4
ENDMDL
