MODEL 1
REMARK VINA RESULT:      -7.9      0.000      0.000
REMARK  Name = 
REMARK  12 active torsions:
REMARK  status: ('A' for Active; 'I' for Inactive)
REMARK    1  A    between atoms: C_1  and  O_2
REMARK    2  A    between atoms: O_2  and  C_3
REMARK    3  A    between atoms: C_5  and  C_6
REMARK    4  A    between atoms: N_9  and  C_10
REMARK    5  A    between atoms: C_10  and  C_11
REMARK    6  A    between atoms: N_13  and  C_14
REMARK    7  A    between atoms: C_17  and  O_18
REMARK    8  A    between atoms: O_18  and  C_19
REMARK    9  A    between atoms: C_27  and  O_28
REMARK   10  A    between atoms: O_28  and  C_29
REMARK   11  A    between atoms: C_30  and  O_31
REMARK   12  A    between atoms: O_31  and  C_32
REMARK                            x       y       z     vdW  Elec       q    Type
REMARK                         _______ _______ _______ _____ _____    ______ ____
ROOT
ATOM      1  C   UNL     1       0.932   9.700  18.851  0.00  0.00    +0.000 A 
ATOM      2  N   UNL     1       1.640   9.521  17.686  0.00  0.00    +0.000 NA
ATOM      3  N   UNL     1       2.378   8.422  17.853  0.00  0.00    +0.000 NA
ATOM      4  N   UNL     1       2.078   7.999  19.090  0.00  0.00    +0.000 N 
ATOM      5  N   UNL     1       1.187   8.741  19.756  0.00  0.00    +0.000 NA
ENDROOT
BRANCH   1   8
ATOM      6  C   UNL     1      -2.275  11.606  18.362  0.00  0.00    +0.000 A 
ATOM      7  C   UNL     1      -1.087  10.917  18.051  0.00  0.00    +0.000 A 
ATOM      8  C   UNL     1      -0.141  10.661  19.036  0.00  0.00    +0.000 A 
ATOM      9  C   UNL     1      -0.320  11.236  20.297  0.00  0.00    +0.000 A 
ATOM     10  C   UNL     1      -1.452  11.990  20.609  0.00  0.00    +0.000 A 
ATOM     11  C   UNL     1      -2.455  12.186  19.640  0.00  0.00    +0.000 A 
BRANCH   6  13
ATOM     12  C   UNL     1      -3.034  10.997  16.198  0.00  0.00    +0.000 C 
ATOM     13  O   UNL     1      -3.266  11.714  17.415  0.00  0.00    +0.000 OA
ENDBRANCH   6  13
BRANCH  10  14
ATOM     14  O   UNL     1      -1.404  12.406  21.916  0.00  0.00    +0.000 OA
ATOM     15  C   UNL     1      -1.556  11.467  22.965  0.00  0.00    +0.000 C 
ENDBRANCH  10  14
BRANCH  11  16
ATOM     16  O   UNL     1      -3.520  12.934  20.055  0.00  0.00    +0.000 OA
ATOM     17  C   UNL     1      -4.570  12.379  20.823  0.00  0.00    +0.000 C 
ENDBRANCH  11  16
ENDBRANCH   1   8
BRANCH   4  18
ATOM     18  C   UNL     1       2.601   6.787  19.671  0.00  0.00    +0.000 C 
BRANCH  18  19
ATOM     19  C   UNL     1       3.146   5.822  18.642  0.00  0.00    +0.000 C 
ATOM     20  O   UNL     1       2.591   4.735  18.474  0.00  0.00    +0.000 OA
ATOM     21  N   UNL     1       4.226   6.267  17.890  0.00  0.00    +0.000 N 
ATOM     22  H   UNL     1       4.792   7.020  18.279  0.00  0.00    +0.000 HD
BRANCH  21  23
ATOM     23  C   UNL     1       4.809   5.519  16.846  0.00  0.00    +0.000 A 
ATOM     24  C   UNL     1       4.945   4.132  16.901  0.00  0.00    +0.000 A 
ATOM     25  C   UNL     1       5.507   3.437  15.823  0.00  0.00    +0.000 A 
ATOM     26  C   UNL     1       5.964   4.121  14.692  0.00  0.00    +0.000 A 
ATOM     27  C   UNL     1       5.883   5.511  14.669  0.00  0.00    +0.000 A 
ATOM     28  C   UNL     1       5.256   6.202  15.714  0.00  0.00    +0.000 A 
BRANCH  26  29
ATOM     29  O   UNL     1       6.516   3.335  13.728  0.00  0.00    +0.000 OA
BRANCH  29  30
ATOM     30  C   UNL     1       5.951   3.313  12.424  0.00  0.00    +0.000 C 
ATOM     31  F   UNL     1       6.063   2.133  11.779  0.00  0.00    +0.000 F 
ATOM     32  F   UNL     1       4.641   3.635  12.504  0.00  0.00    +0.000 F 
ATOM     33  F   UNL     1       6.568   4.252  11.671  0.00  0.00    +0.000 F 
ENDBRANCH  29  30
ENDBRANCH  26  29
ENDBRANCH  21  23
ENDBRANCH  18  19
ENDBRANCH   4  18
TORSDOF 9
ENDMDL
MODEL 2
REMARK VINA RESULT:      -7.7      2.031      2.903
REMARK  Name = 
REMARK  12 active torsions:
REMARK  status: ('A' for Active; 'I' for Inactive)
REMARK    1  A    between atoms: C_1  and  O_2
REMARK    2  A    between atoms: O_2  and  C_3
REMARK    3  A    between atoms: C_5  and  C_6
REMARK    4  A    between atoms: N_9  and  C_10
REMARK    5  A    between atoms: C_10  and  C_11
REMARK    6  A    between atoms: N_13  and  C_14
REMARK    7  A    between atoms: C_17  and  O_18
REMARK    8  A    between atoms: O_18  and  C_19
REMARK    9  A    between atoms: C_27  and  O_28
REMARK   10  A    between atoms: O_28  and  C_29
REMARK   11  A    between atoms: C_30  and  O_31
REMARK   12  A    between atoms: O_31  and  C_32
REMARK                            x       y       z     vdW  Elec       q    Type
REMARK                         _______ _______ _______ _____ _____    ______ ____
ROOT
ATOM      1  C   UNL     1      -0.642  10.628  20.286  0.00  0.00    +0.000 A 
ATOM      2  N   UNL     1       0.371  11.397  20.811  0.00  0.00    +0.000 NA
ATOM      3  N   UNL     1       1.289  10.551  21.279  0.00  0.00    +0.000 NA
ATOM      4  N   UNL     1       0.794   9.333  21.013  0.00  0.00    +0.000 N 
ATOM      5  N   UNL     1      -0.392   9.313  20.397  0.00  0.00    +0.000 NA
ENDROOT
BRANCH   1   8
ATOM      6  C   UNL     1      -3.289  10.920  17.629  0.00  0.00    +0.000 A 
ATOM      7  C   UNL     1      -2.048  10.641  18.233  0.00  0.00    +0.000 A 
ATOM      8  C   UNL     1      -1.751  11.133  19.497  0.00  0.00    +0.000 A 
ATOM      9  C   UNL     1      -2.641  12.036  20.086  0.00  0.00    +0.000 A 
ATOM     10  C   UNL     1      -3.843  12.391  19.474  0.00  0.00    +0.000 A 
ATOM     11  C   UNL     1      -4.189  11.833  18.228  0.00  0.00    +0.000 A 
BRANCH   6  13
ATOM     12  C   UNL     1      -2.908  10.741  15.294  0.00  0.00    +0.000 C 
ATOM     13  O   UNL     1      -3.627  10.299  16.450  0.00  0.00    +0.000 OA
ENDBRANCH   6  13
BRANCH  10  14
ATOM     14  O   UNL     1      -4.548  13.257  20.271  0.00  0.00    +0.000 OA
ATOM     15  C   UNL     1      -5.353  12.756  21.324  0.00  0.00    +0.000 C 
ENDBRANCH  10  14
BRANCH  11  16
ATOM     16  O   UNL     1      -5.390  12.246  17.724  0.00  0.00    +0.000 OA
ATOM     17  C   UNL     1      -6.589  11.540  17.976  0.00  0.00    +0.000 C 
ENDBRANCH  11  16
ENDBRANCH   1   8
BRANCH   4  18
ATOM     18  C   UNL     1       1.496   8.104  21.289  0.00  0.00    +0.000 C 
BRANCH  18  19
ATOM     19  C   UNL     1       2.158   7.511  20.066  0.00  0.00    +0.000 C 
ATOM     20  O   UNL     1       2.264   8.189  19.042  0.00  0.00    +0.000 OA
ATOM     21  N   UNL     1       2.675   6.229  20.204  0.00  0.00    +0.000 N 
ATOM     22  H   UNL     1       2.296   5.646  20.950  0.00  0.00    +0.000 HD
BRANCH  21  23
ATOM     23  C   UNL     1       3.381   5.559  19.184  0.00  0.00    +0.000 A 
ATOM     24  C   UNL     1       2.739   4.861  18.160  0.00  0.00    +0.000 A 
ATOM     25  C   UNL     1       3.490   4.237  17.156  0.00  0.00    +0.000 A 
ATOM     26  C   UNL     1       4.887   4.278  17.179  0.00  0.00    +0.000 A 
ATOM     27  C   UNL     1       5.524   4.922  18.237  0.00  0.00    +0.000 A 
ATOM     28  C   UNL     1       4.775   5.608  19.202  0.00  0.00    +0.000 A 
BRANCH  26  29
ATOM     29  O   UNL     1       5.498   3.607  16.165  0.00  0.00    +0.000 OA
BRANCH  29  30
ATOM     30  C   UNL     1       6.113   4.333  15.107  0.00  0.00    +0.000 C 
ATOM     31  F   UNL     1       7.433   4.560  15.271  0.00  0.00    +0.000 F 
ATOM     32  F   UNL     1       5.934   3.662  13.948  0.00  0.00    +0.000 F 
ATOM     33  F   UNL     1       5.501   5.534  14.995  0.00  0.00    +0.000 F 
ENDBRANCH  29  30
ENDBRANCH  26  29
ENDBRANCH  21  23
ENDBRANCH  18  19
ENDBRANCH   4  18
TORSDOF 9
ENDMDL
MODEL 3
REMARK VINA RESULT:      -7.7      6.171     11.677
REMARK  Name = 
REMARK  12 active torsions:
REMARK  status: ('A' for Active; 'I' for Inactive)
REMARK    1  A    between atoms: C_1  and  O_2
REMARK    2  A    between atoms: O_2  and  C_3
REMARK    3  A    between atoms: C_5  and  C_6
REMARK    4  A    between atoms: N_9  and  C_10
REMARK    5  A    between atoms: C_10  and  C_11
REMARK    6  A    between atoms: N_13  and  C_14
REMARK    7  A    between atoms: C_17  and  O_18
REMARK    8  A    between atoms: O_18  and  C_19
REMARK    9  A    between atoms: C_27  and  O_28
REMARK   10  A    between atoms: O_28  and  C_29
REMARK   11  A    between atoms: C_30  and  O_31
REMARK   12  A    between atoms: O_31  and  C_32
REMARK                            x       y       z     vdW  Elec       q    Type
REMARK                         _______ _______ _______ _____ _____    ______ ____
ROOT
ATOM      1  C   UNL     1       1.821   7.791  19.876  0.00  0.00    +0.000 A 
ATOM      2  N   UNL     1       1.336   8.100  21.125  0.00  0.00    +0.000 NA
ATOM      3  N   UNL     1       0.824   9.329  21.041  0.00  0.00    +0.000 NA
ATOM      4  N   UNL     1       1.018   9.690  19.764  0.00  0.00    +0.000 N 
ATOM      5  N   UNL     1       1.624   8.783  18.992  0.00  0.00    +0.000 NA
ENDROOT
BRANCH   1   8
ATOM      6  C   UNL     1       3.646   5.074  18.020  0.00  0.00    +0.000 A 
ATOM      7  C   UNL     1       2.939   6.269  18.254  0.00  0.00    +0.000 A 
ATOM      8  C   UNL     1       2.288   6.479  19.463  0.00  0.00    +0.000 A 
ATOM      9  C   UNL     1       2.216   5.421  20.373  0.00  0.00    +0.000 A 
ATOM     10  C   UNL     1       2.841   4.198  20.132  0.00  0.00    +0.000 A 
ATOM     11  C   UNL     1       3.573   4.005  18.944  0.00  0.00    +0.000 A 
BRANCH   6  13
ATOM     12  C   UNL     1       5.782   5.337  17.023  0.00  0.00    +0.000 C 
ATOM     13  O   UNL     1       4.412   4.947  16.886  0.00  0.00    +0.000 OA
ENDBRANCH   6  13
BRANCH  10  14
ATOM     14  O   UNL     1       2.652   3.347  21.191  0.00  0.00    +0.000 OA
ATOM     15  C   UNL     1       1.365   2.820  21.458  0.00  0.00    +0.000 C 
ENDBRANCH  10  14
BRANCH  11  16
ATOM     16  O   UNL     1       4.148   2.772  18.814  0.00  0.00    +0.000 OA
ATOM     17  C   UNL     1       3.482   1.699  18.177  0.00  0.00    +0.000 C 
ENDBRANCH  11  16
ENDBRANCH   1   8
BRANCH   4  18
ATOM     18  C   UNL     1       0.553  10.935  19.204  0.00  0.00    +0.000 C 
BRANCH  18  19
ATOM     19  C   UNL     1      -0.763  11.395  19.790  0.00  0.00    +0.000 C 
ATOM     20  O   UNL     1      -1.815  11.135  19.203  0.00  0.00    +0.000 OA
ATOM     21  N   UNL     1      -0.699  12.040  21.019  0.00  0.00    +0.000 N 
ATOM     22  H   UNL     1       0.189  12.467  21.281  0.00  0.00    +0.000 HD
BRANCH  21  23
ATOM     23  C   UNL     1      -1.836  12.471  21.733  0.00  0.00    +0.000 A 
ATOM     24  C   UNL     1      -2.678  13.481  21.265  0.00  0.00    +0.000 A 
ATOM     25  C   UNL     1      -3.810  13.850  22.002  0.00  0.00    +0.000 A 
ATOM     26  C   UNL     1      -4.098  13.236  23.226  0.00  0.00    +0.000 A 
ATOM     27  C   UNL     1      -3.220  12.274  23.718  0.00  0.00    +0.000 A 
ATOM     28  C   UNL     1      -2.128  11.852  22.949  0.00  0.00    +0.000 A 
BRANCH  26  29
ATOM     29  O   UNL     1      -5.208  13.705  23.857  0.00  0.00    +0.000 OA
BRANCH  29  30
ATOM     30  C   UNL     1      -6.380  12.903  23.916  0.00  0.00    +0.000 C 
ATOM     31  F   UNL     1      -6.759  12.370  22.735  0.00  0.00    +0.000 F 
ATOM     32  F   UNL     1      -6.185  11.897  24.797  0.00  0.00    +0.000 F 
ATOM     33  F   UNL     1      -7.402  13.664  24.368  0.00  0.00    +0.000 F 
ENDBRANCH  29  30
ENDBRANCH  26  29
ENDBRANCH  21  23
ENDBRANCH  18  19
ENDBRANCH   4  18
TORSDOF 9
ENDMDL
MODEL 4
REMARK VINA RESULT:      -7.7      4.382      9.999
REMARK  Name = 
REMARK  12 active torsions:
REMARK  status: ('A' for Active; 'I' for Inactive)
REMARK    1  A    between atoms: C_1  and  O_2
REMARK    2  A    between atoms: O_2  and  C_3
REMARK    3  A    between atoms: C_5  and  C_6
REMARK    4  A    between atoms: N_9  and  C_10
REMARK    5  A    between atoms: C_10  and  C_11
REMARK    6  A    between atoms: N_13  and  C_14
REMARK    7  A    between atoms: C_17  and  O_18
REMARK    8  A    between atoms: O_18  and  C_19
REMARK    9  A    between atoms: C_27  and  O_28
REMARK   10  A    between atoms: O_28  and  C_29
REMARK   11  A    between atoms: C_30  and  O_31
REMARK   12  A    between atoms: O_31  and  C_32
REMARK                            x       y       z     vdW  Elec       q    Type
REMARK                         _______ _______ _______ _____ _____    ______ ____
ROOT
ATOM      1  C   UNL     1       4.541   3.426  17.934  0.00  0.00    +0.000 A 
ATOM      2  N   UNL     1       3.697   2.347  17.810  0.00  0.00    +0.000 NA
ATOM      3  N   UNL     1       2.857   2.398  18.845  0.00  0.00    +0.000 NA
ATOM      4  N   UNL     1       3.229   3.492  19.527  0.00  0.00    +0.000 N 
ATOM      5  N   UNL     1       4.258   4.172  19.014  0.00  0.00    +0.000 NA
ENDROOT
BRANCH   1   8
ATOM      6  C   UNL     1       6.247   3.917  14.617  0.00  0.00    +0.000 A 
ATOM      7  C   UNL     1       5.556   3.281  15.666  0.00  0.00    +0.000 A 
ATOM      8  C   UNL     1       5.485   3.868  16.923  0.00  0.00    +0.000 A 
ATOM      9  C   UNL     1       6.242   5.018  17.165  0.00  0.00    +0.000 A 
ATOM     10  C   UNL     1       6.999   5.626  16.163  0.00  0.00    +0.000 A 
ATOM     11  C   UNL     1       7.011   5.082  14.864  0.00  0.00    +0.000 A 
BRANCH   6  13
ATOM     12  C   UNL     1       4.929   3.600  12.670  0.00  0.00    +0.000 C 
ATOM     13  O   UNL     1       6.176   3.402  13.345  0.00  0.00    +0.000 OA
ENDBRANCH   6  13
BRANCH  10  14
ATOM     14  O   UNL     1       7.613   6.754  16.646  0.00  0.00    +0.000 OA
ATOM     15  C   UNL     1       7.751   6.944  18.042  0.00  0.00    +0.000 C 
ENDBRANCH  10  14
BRANCH  11  16
ATOM     16  O   UNL     1       7.780   5.761  13.961  0.00  0.00    +0.000 OA
ATOM     17  C   UNL     1       8.092   5.224  12.691  0.00  0.00    +0.000 C 
ENDBRANCH  11  16
ENDBRANCH   1   8
BRANCH   4  18
ATOM     18  C   UNL     1       2.541   3.977  20.699  0.00  0.00    +0.000 C 
BRANCH  18  19
ATOM     19  C   UNL     1       1.743   5.235  20.441  0.00  0.00    +0.000 C 
ATOM     20  O   UNL     1       0.512   5.197  20.498  0.00  0.00    +0.000 OA
ATOM     21  N   UNL     1       2.473   6.394  20.214  0.00  0.00    +0.000 N 
ATOM     22  H   UNL     1       3.436   6.290  19.895  0.00  0.00    +0.000 HD
BRANCH  21  23
ATOM     23  C   UNL     1       1.885   7.662  20.025  0.00  0.00    +0.000 A 
ATOM     24  C   UNL     1       1.928   8.335  18.803  0.00  0.00    +0.000 A 
ATOM     25  C   UNL     1       1.303   9.580  18.664  0.00  0.00    +0.000 A 
ATOM     26  C   UNL     1       0.653  10.179  19.747  0.00  0.00    +0.000 A 
ATOM     27  C   UNL     1       0.667   9.532  20.980  0.00  0.00    +0.000 A 
ATOM     28  C   UNL     1       1.228   8.255  21.104  0.00  0.00    +0.000 A 
BRANCH  26  29
ATOM     29  O   UNL     1       0.112  11.400  19.490  0.00  0.00    +0.000 OA
BRANCH  29  30
ATOM     30  C   UNL     1      -1.263  11.506  19.144  0.00  0.00    +0.000 C 
ATOM     31  F   UNL     1      -2.065  11.929  20.144  0.00  0.00    +0.000 F 
ATOM     32  F   UNL     1      -1.394  12.355  18.101  0.00  0.00    +0.000 F 
ATOM     33  F   UNL     1      -1.705  10.290  18.752  0.00  0.00    +0.000 F 
ENDBRANCH  29  30
ENDBRANCH  26  29
ENDBRANCH  21  23
ENDBRANCH  18  19
ENDBRANCH   4  18
TORSDOF 9
ENDMDL
MODEL 5
REMARK VINA RESULT:      -7.6      1.849      2.668
REMARK  Name = 
REMARK  12 active torsions:
REMARK  status: ('A' for Active; 'I' for Inactive)
REMARK    1  A    between atoms: C_1  and  O_2
REMARK    2  A    between atoms: O_2  and  C_3
REMARK    3  A    between atoms: C_5  and  C_6
REMARK    4  A    between atoms: N_9  and  C_10
REMARK    5  A    between atoms: C_10  and  C_11
REMARK    6  A    between atoms: N_13  and  C_14
REMARK    7  A    between atoms: C_17  and  O_18
REMARK    8  A    between atoms: O_18  and  C_19
REMARK    9  A    between atoms: C_27  and  O_28
REMARK   10  A    between atoms: O_28  and  C_29
REMARK   11  A    between atoms: C_30  and  O_31
REMARK   12  A    between atoms: O_31  and  C_32
REMARK                            x       y       z     vdW  Elec       q    Type
REMARK                         _______ _______ _______ _____ _____    ______ ____
ROOT
ATOM      1  C   UNL     1      -0.733  10.912  19.019  0.00  0.00    +0.000 A 
ATOM      2  N   UNL     1       0.419  11.656  18.912  0.00  0.00    +0.000 NA
ATOM      3  N   UNL     1       1.418  10.872  19.321  0.00  0.00    +0.000 NA
ATOM      4  N   UNL     1       0.827   9.712  19.644  0.00  0.00    +0.000 N 
ATOM      5  N   UNL     1      -0.498   9.671  19.474  0.00  0.00    +0.000 NA
ENDROOT
BRANCH   1   8
ATOM      6  C   UNL     1      -3.782  11.120  16.824  0.00  0.00    +0.000 A 
ATOM      7  C   UNL     1      -2.429  11.009  17.200  0.00  0.00    +0.000 A 
ATOM      8  C   UNL     1      -2.031  11.304  18.498  0.00  0.00    +0.000 A 
ATOM      9  C   UNL     1      -2.968  11.860  19.373  0.00  0.00    +0.000 A 
ATOM     10  C   UNL     1      -4.299  12.054  19.000  0.00  0.00    +0.000 A 
ATOM     11  C   UNL     1      -4.729  11.682  17.712  0.00  0.00    +0.000 A 
BRANCH   6  13
ATOM     12  C   UNL     1      -3.133  10.211  14.731  0.00  0.00    +0.000 C 
ATOM     13  O   UNL     1      -4.182  10.678  15.586  0.00  0.00    +0.000 OA
ENDBRANCH   6  13
BRANCH  10  14
ATOM     14  O   UNL     1      -5.017  12.575  20.047  0.00  0.00    +0.000 OA
ATOM     15  C   UNL     1      -4.345  13.155  21.150  0.00  0.00    +0.000 C 
ENDBRANCH  10  14
BRANCH  11  16
ATOM     16  O   UNL     1      -6.052  11.910  17.457  0.00  0.00    +0.000 OA
ATOM     17  C   UNL     1      -6.522  13.168  17.012  0.00  0.00    +0.000 C 
ENDBRANCH  11  16
ENDBRANCH   1   8
BRANCH   4  18
ATOM     18  C   UNL     1       1.547   8.539  20.076  0.00  0.00    +0.000 C 
BRANCH  18  19
ATOM     19  C   UNL     1       2.174   7.773  18.933  0.00  0.00    +0.000 C 
ATOM     20  O   UNL     1       1.993   8.151  17.775  0.00  0.00    +0.000 OA
ATOM     21  N   UNL     1       2.988   6.702  19.281  0.00  0.00    +0.000 N 
ATOM     22  H   UNL     1       2.851   6.285  20.201  0.00  0.00    +0.000 HD
BRANCH  21  23
ATOM     23  C   UNL     1       3.701   5.928  18.343  0.00  0.00    +0.000 A 
ATOM     24  C   UNL     1       3.197   4.740  17.812  0.00  0.00    +0.000 A 
ATOM     25  C   UNL     1       3.936   4.025  16.862  0.00  0.00    +0.000 A 
ATOM     26  C   UNL     1       5.196   4.471  16.453  0.00  0.00    +0.000 A 
ATOM     27  C   UNL     1       5.722   5.624  17.031  0.00  0.00    +0.000 A 
ATOM     28  C   UNL     1       4.955   6.379  17.928  0.00  0.00    +0.000 A 
BRANCH  26  29
ATOM     29  O   UNL     1       5.824   3.672  15.548  0.00  0.00    +0.000 OA
BRANCH  29  30
ATOM     30  C   UNL     1       5.978   4.110  14.204  0.00  0.00    +0.000 C 
ATOM     31  F   UNL     1       6.698   5.242  14.059  0.00  0.00    +0.000 F 
ATOM     32  F   UNL     1       6.569   3.131  13.484  0.00  0.00    +0.000 F 
ATOM     33  F   UNL     1       4.753   4.335  13.680  0.00  0.00    +0.000 F 
ENDBRANCH  29  30
ENDBRANCH  26  29
ENDBRANCH  21  23
ENDBRANCH  18  19
ENDBRANCH   4  18
TORSDOF 9
ENDMDL
MODEL 6
REMARK VINA RESULT:      -7.6      6.074     11.566
REMARK  Name = 
REMARK  12 active torsions:
REMARK  status: ('A' for Active; 'I' for Inactive)
REMARK    1  A    between atoms: C_1  and  O_2
REMARK    2  A    between atoms: O_2  and  C_3
REMARK    3  A    between atoms: C_5  and  C_6
REMARK    4  A    between atoms: N_9  and  C_10
REMARK    5  A    between atoms: C_10  and  C_11
REMARK    6  A    between atoms: N_13  and  C_14
REMARK    7  A    between atoms: C_17  and  O_18
REMARK    8  A    between atoms: O_18  and  C_19
REMARK    9  A    between atoms: C_27  and  O_28
REMARK   10  A    between atoms: O_28  and  C_29
REMARK   11  A    between atoms: C_30  and  O_31
REMARK   12  A    between atoms: O_31  and  C_32
REMARK                            x       y       z     vdW  Elec       q    Type
REMARK                         _______ _______ _______ _____ _____    ______ ____
ROOT
ATOM      1  C   UNL     1       2.169   7.376  19.786  0.00  0.00    +0.000 A 
ATOM      2  N   UNL     1       1.708   7.829  21.000  0.00  0.00    +0.000 NA
ATOM      3  N   UNL     1       1.119   9.004  20.770  0.00  0.00    +0.000 NA
ATOM      4  N   UNL     1       1.248   9.193  19.448  0.00  0.00    +0.000 N 
ATOM      5  N   UNL     1       1.883   8.222  18.784  0.00  0.00    +0.000 NA
ENDROOT
BRANCH   1   8
ATOM      6  C   UNL     1       4.583   4.559  19.158  0.00  0.00    +0.000 A 
ATOM      7  C   UNL     1       4.000   5.839  19.091  0.00  0.00    +0.000 A 
ATOM      8  C   UNL     1       2.701   6.047  19.539  0.00  0.00    +0.000 A 
ATOM      9  C   UNL     1       1.937   4.936  19.906  0.00  0.00    +0.000 A 
ATOM     10  C   UNL     1       2.466   3.646  19.906  0.00  0.00    +0.000 A 
ATOM     11  C   UNL     1       3.807   3.436  19.531  0.00  0.00    +0.000 A 
BRANCH   6  13
ATOM     12  C   UNL     1       6.273   4.659  17.495  0.00  0.00    +0.000 C 
ATOM     13  O   UNL     1       5.915   4.402  18.857  0.00  0.00    +0.000 OA
ENDBRANCH   6  13
BRANCH  10  14
ATOM     14  O   UNL     1       1.528   2.744  20.342  0.00  0.00    +0.000 OA
ATOM     15  C   UNL     1       1.360   2.509  21.728  0.00  0.00    +0.000 C 
ENDBRANCH  10  14
BRANCH  11  16
ATOM     16  O   UNL     1       4.222   2.135  19.573  0.00  0.00    +0.000 OA
ATOM     17  C   UNL     1       3.890   1.210  18.555  0.00  0.00    +0.000 C 
ENDBRANCH  11  16
ENDBRANCH   1   8
BRANCH   4  18
ATOM     18  C   UNL     1       0.689  10.319  18.741  0.00  0.00    +0.000 C 
BRANCH  18  19
ATOM     19  C   UNL     1      -0.535  10.895  19.416  0.00  0.00    +0.000 C 
ATOM     20  O   UNL     1      -1.654  10.644  18.965  0.00  0.00    +0.000 OA
ATOM     21  N   UNL     1      -0.313  11.636  20.570  0.00  0.00    +0.000 N 
ATOM     22  H   UNL     1       0.616  12.035  20.702  0.00  0.00    +0.000 HD
BRANCH  21  23
ATOM     23  C   UNL     1      -1.347  12.184  21.356  0.00  0.00    +0.000 A 
ATOM     24  C   UNL     1      -1.675  11.687  22.618  0.00  0.00    +0.000 A 
ATOM     25  C   UNL     1      -2.694  12.288  23.367  0.00  0.00    +0.000 A 
ATOM     26  C   UNL     1      -3.415  13.371  22.854  0.00  0.00    +0.000 A 
ATOM     27  C   UNL     1      -3.126  13.823  21.570  0.00  0.00    +0.000 A 
ATOM     28  C   UNL     1      -2.060  13.271  20.847  0.00  0.00    +0.000 A 
BRANCH  26  29
ATOM     29  O   UNL     1      -4.398  13.844  23.668  0.00  0.00    +0.000 OA
BRANCH  29  30
ATOM     30  C   UNL     1      -5.600  13.102  23.829  0.00  0.00    +0.000 C 
ATOM     31  F   UNL     1      -5.553  12.151  24.786  0.00  0.00    +0.000 F 
ATOM     32  F   UNL     1      -6.610  13.952  24.119  0.00  0.00    +0.000 F 
ATOM     33  F   UNL     1      -5.891  12.491  22.659  0.00  0.00    +0.000 F 
ENDBRANCH  29  30
ENDBRANCH  26  29
ENDBRANCH  21  23
ENDBRANCH  18  19
ENDBRANCH   4  18
TORSDOF 9
ENDMDL
MODEL 7
REMARK VINA RESULT:      -7.6      1.136      1.570
REMARK  Name = 
REMARK  12 active torsions:
REMARK  status: ('A' for Active; 'I' for Inactive)
REMARK    1  A    between atoms: C_1  and  O_2
REMARK    2  A    between atoms: O_2  and  C_3
REMARK    3  A    between atoms: C_5  and  C_6
REMARK    4  A    between atoms: N_9  and  C_10
REMARK    5  A    between atoms: C_10  and  C_11
REMARK    6  A    between atoms: N_13  and  C_14
REMARK    7  A    between atoms: C_17  and  O_18
REMARK    8  A    between atoms: O_18  and  C_19
REMARK    9  A    between atoms: C_27  and  O_28
REMARK   10  A    between atoms: O_28  and  C_29
REMARK   11  A    between atoms: C_30  and  O_31
REMARK   12  A    between atoms: O_31  and  C_32
REMARK                            x       y       z     vdW  Elec       q    Type
REMARK                         _______ _______ _______ _____ _____    ______ ____
ROOT
ATOM      1  C   UNL     1       1.058   9.964  19.211  0.00  0.00    +0.000 A 
ATOM      2  N   UNL     1       1.560   9.786  17.943  0.00  0.00    +0.000 NA
ATOM      3  N   UNL     1       2.148   8.589  17.930  0.00  0.00    +0.000 NA
ATOM      4  N   UNL     1       1.968   8.111  19.170  0.00  0.00    +0.000 N 
ATOM      5  N   UNL     1       1.298   8.910  20.007  0.00  0.00    +0.000 NA
ENDROOT
BRANCH   1   8
ATOM      6  C   UNL     1      -2.052  12.005  19.776  0.00  0.00    +0.000 A 
ATOM      7  C   UNL     1      -1.131  11.149  19.143  0.00  0.00    +0.000 A 
ATOM      8  C   UNL     1       0.172  11.042  19.614  0.00  0.00    +0.000 A 
ATOM      9  C   UNL     1       0.589  11.914  20.624  0.00  0.00    +0.000 A 
ATOM     10  C   UNL     1      -0.284  12.828  21.215  0.00  0.00    +0.000 A 
ATOM     11  C   UNL     1      -1.628  12.885  20.799  0.00  0.00    +0.000 A 
BRANCH   6  13
ATOM     12  C   UNL     1      -3.625  11.484  18.078  0.00  0.00    +0.000 C 
ATOM     13  O   UNL     1      -3.373  11.981  19.397  0.00  0.00    +0.000 OA
ENDBRANCH   6  13
BRANCH  10  14
ATOM     14  O   UNL     1       0.358  13.535  22.200  0.00  0.00    +0.000 OA
ATOM     15  C   UNL     1       1.068  14.717  21.877  0.00  0.00    +0.000 C 
ENDBRANCH  10  14
BRANCH  11  16
ATOM     16  O   UNL     1      -2.395  13.811  21.450  0.00  0.00    +0.000 OA
ATOM     17  C   UNL     1      -2.855  13.605  22.771  0.00  0.00    +0.000 C 
ENDBRANCH  11  16
ENDBRANCH   1   8
BRANCH   4  18
ATOM     18  C   UNL     1       2.388   6.797  19.591  0.00  0.00    +0.000 C 
BRANCH  18  19
ATOM     19  C   UNL     1       2.881   5.937  18.449  0.00  0.00    +0.000 C 
ATOM     20  O   UNL     1       2.108   5.147  17.904  0.00  0.00    +0.000 OA
ATOM     21  N   UNL     1       4.191   6.149  18.037  0.00  0.00    +0.000 N 
ATOM     22  H   UNL     1       4.830   6.582  18.703  0.00  0.00    +0.000 HD
BRANCH  21  23
ATOM     23  C   UNL     1       4.782   5.481  16.945  0.00  0.00    +0.000 A 
ATOM     24  C   UNL     1       5.308   6.159  15.845  0.00  0.00    +0.000 A 
ATOM     25  C   UNL     1       5.909   5.446  14.801  0.00  0.00    +0.000 A 
ATOM     26  C   UNL     1       5.967   4.049  14.829  0.00  0.00    +0.000 A 
ATOM     27  C   UNL     1       5.386   3.374  15.899  0.00  0.00    +0.000 A 
ATOM     28  C   UNL     1       4.848   4.087  16.979  0.00  0.00    +0.000 A 
BRANCH  26  29
ATOM     29  O   UNL     1       6.549   3.476  13.741  0.00  0.00    +0.000 OA
BRANCH  29  30
ATOM     30  C   UNL     1       5.824   3.376  12.522  0.00  0.00    +0.000 C 
ATOM     31  F   UNL     1       5.730   2.125  12.023  0.00  0.00    +0.000 F 
ATOM     32  F   UNL     1       4.576   3.859  12.708  0.00  0.00    +0.000 F 
ATOM     33  F   UNL     1       6.437   4.142  11.592  0.00  0.00    +0.000 F 
ENDBRANCH  29  30
ENDBRANCH  26  29
ENDBRANCH  21  23
ENDBRANCH  18  19
ENDBRANCH   4  18
TORSDOF 9
ENDMDL
MODEL 8
REMARK VINA RESULT:      -7.6      0.646      1.271
REMARK  Name = 
REMARK  12 active torsions:
REMARK  status: ('A' for Active; 'I' for Inactive)
REMARK    1  A    between atoms: C_1  and  O_2
REMARK    2  A    between atoms: O_2  and  C_3
REMARK    3  A    between atoms: C_5  and  C_6
REMARK    4  A    between atoms: N_9  and  C_10
REMARK    5  A    between atoms: C_10  and  C_11
REMARK    6  A    between atoms: N_13  and  C_14
REMARK    7  A    between atoms: C_17  and  O_18
REMARK    8  A    between atoms: O_18  and  C_19
REMARK    9  A    between atoms: C_27  and  O_28
REMARK   10  A    between atoms: O_28  and  C_29
REMARK   11  A    between atoms: C_30  and  O_31
REMARK   12  A    between atoms: O_31  and  C_32
REMARK                            x       y       z     vdW  Elec       q    Type
REMARK                         _______ _______ _______ _____ _____    ______ ____
ROOT
ATOM      1  C   UNL     1       0.684   9.962  18.948  0.00  0.00    +0.000 A 
ATOM      2  N   UNL     1       1.466   9.938  17.817  0.00  0.00    +0.000 NA
ATOM      3  N   UNL     1       2.244   8.858  17.914  0.00  0.00    +0.000 NA
ATOM      4  N   UNL     1       1.892   8.292  19.077  0.00  0.00    +0.000 N 
ATOM      5  N   UNL     1       0.931   8.921  19.761  0.00  0.00    +0.000 NA
ENDROOT
BRANCH   1   8
ATOM      6  C   UNL     1      -2.678  11.615  18.600  0.00  0.00    +0.000 A 
ATOM      7  C   UNL     1      -1.465  10.997  18.238  0.00  0.00    +0.000 A 
ATOM      8  C   UNL     1      -0.441  10.853  19.166  0.00  0.00    +0.000 A 
ATOM      9  C   UNL     1      -0.580  11.472  20.411  0.00  0.00    +0.000 A 
ATOM     10  C   UNL     1      -1.740  12.159  20.768  0.00  0.00    +0.000 A 
ATOM     11  C   UNL     1      -2.815  12.239  19.862  0.00  0.00    +0.000 A 
BRANCH   6  13
ATOM     12  C   UNL     1      -3.431  11.142  16.401  0.00  0.00    +0.000 C 
ATOM     13  O   UNL     1      -3.733  11.610  17.720  0.00  0.00    +0.000 OA
ENDBRANCH   6  13
BRANCH  10  14
ATOM     14  O   UNL     1      -1.638  12.637  22.050  0.00  0.00    +0.000 OA
ATOM     15  C   UNL     1      -0.463  13.309  22.465  0.00  0.00    +0.000 C 
ENDBRANCH  10  14
BRANCH  11  16
ATOM     16  O   UNL     1      -3.903  12.930  20.317  0.00  0.00    +0.000 OA
ATOM     17  C   UNL     1      -3.813  14.278  20.736  0.00  0.00    +0.000 C 
ENDBRANCH  11  16
ENDBRANCH   1   8
BRANCH   4  18
ATOM     18  C   UNL     1       2.436   7.046  19.559  0.00  0.00    +0.000 C 
BRANCH  18  19
ATOM     19  C   UNL     1       2.915   6.138  18.449  0.00  0.00    +0.000 C 
ATOM     20  O   UNL     1       2.130   5.338  17.936  0.00  0.00    +0.000 OA
ATOM     21  N   UNL     1       4.226   6.319  18.025  0.00  0.00    +0.000 N 
ATOM     22  H   UNL     1       4.872   6.768  18.672  0.00  0.00    +0.000 HD
BRANCH  21  23
ATOM     23  C   UNL     1       4.805   5.603  16.957  0.00  0.00    +0.000 A 
ATOM     24  C   UNL     1       5.253   6.226  15.791  0.00  0.00    +0.000 A 
ATOM     25  C   UNL     1       5.846   5.470  14.773  0.00  0.00    +0.000 A 
ATOM     26  C   UNL     1       5.973   4.082  14.895  0.00  0.00    +0.000 A 
ATOM     27  C   UNL     1       5.469   3.458  16.033  0.00  0.00    +0.000 A 
ATOM     28  C   UNL     1       4.941   4.220  17.084  0.00  0.00    +0.000 A 
BRANCH  26  29
ATOM     29  O   UNL     1       6.539   3.461  13.825  0.00  0.00    +0.000 OA
BRANCH  29  30
ATOM     30  C   UNL     1       5.873   3.470  12.569  0.00  0.00    +0.000 C 
ATOM     31  F   UNL     1       4.594   3.897  12.611  0.00  0.00    +0.000 F 
ATOM     32  F   UNL     1       6.560   4.255  11.709  0.00  0.00    +0.000 F 
ATOM     33  F   UNL     1       5.868   2.211  12.074  0.00  0.00    +0.000 F 
ENDBRANCH  29  30
ENDBRANCH  26  29
ENDBRANCH  21  23
ENDBRANCH  18  19
ENDBRANCH   4  18
TORSDOF 9
ENDMDL
MODEL 9
REMARK VINA RESULT:      -7.6      4.595     10.002
REMARK  Name = 
REMARK  12 active torsions:
REMARK  status: ('A' for Active; 'I' for Inactive)
REMARK    1  A    between atoms: C_1  and  O_2
REMARK    2  A    between atoms: O_2  and  C_3
REMARK    3  A    between atoms: C_5  and  C_6
REMARK    4  A    between atoms: N_9  and  C_10
REMARK    5  A    between atoms: C_10  and  C_11
REMARK    6  A    between atoms: N_13  and  C_14
REMARK    7  A    between atoms: C_17  and  O_18
REMARK    8  A    between atoms: O_18  and  C_19
REMARK    9  A    between atoms: C_27  and  O_28
REMARK   10  A    between atoms: O_28  and  C_29
REMARK   11  A    between atoms: C_30  and  O_31
REMARK   12  A    between atoms: O_31  and  C_32
REMARK                            x       y       z     vdW  Elec       q    Type
REMARK                         _______ _______ _______ _____ _____    ______ ____
ROOT
ATOM      1  C   UNL     1       4.575   3.451  17.754  0.00  0.00    +0.000 A 
ATOM      2  N   UNL     1       3.615   2.481  17.588  0.00  0.00    +0.000 NA
ATOM      3  N   UNL     1       2.814   2.551  18.652  0.00  0.00    +0.000 NA
ATOM      4  N   UNL     1       3.322   3.549  19.392  0.00  0.00    +0.000 N 
ATOM      5  N   UNL     1       4.405   4.148  18.889  0.00  0.00    +0.000 NA
ENDROOT
BRANCH   1   8
ATOM      6  C   UNL     1       6.277   3.909  14.429  0.00  0.00    +0.000 A 
ATOM      7  C   UNL     1       5.559   3.293  15.473  0.00  0.00    +0.000 A 
ATOM      8  C   UNL     1       5.534   3.858  16.742  0.00  0.00    +0.000 A 
ATOM      9  C   UNL     1       6.359   4.957  16.998  0.00  0.00    +0.000 A 
ATOM     10  C   UNL     1       7.141   5.540  16.000  0.00  0.00    +0.000 A 
ATOM     11  C   UNL     1       7.109   5.022  14.691  0.00  0.00    +0.000 A 
BRANCH   6  13
ATOM     12  C   UNL     1       4.847   3.467  12.588  0.00  0.00    +0.000 C 
ATOM     13  O   UNL     1       6.164   3.424  13.148  0.00  0.00    +0.000 OA
ENDBRANCH   6  13
BRANCH  10  14
ATOM     14  O   UNL     1       7.823   6.621  16.498  0.00  0.00    +0.000 OA
ATOM     15  C   UNL     1       7.472   7.164  17.758  0.00  0.00    +0.000 C 
ENDBRANCH  10  14
BRANCH  11  16
ATOM     16  O   UNL     1       7.908   5.673  13.794  0.00  0.00    +0.000 OA
ATOM     17  C   UNL     1       7.915   5.341  12.419  0.00  0.00    +0.000 C 
ENDBRANCH  11  16
ENDBRANCH   1   8
BRANCH   4  18
ATOM     18  C   UNL     1       2.724   4.023  20.616  0.00  0.00    +0.000 C 
BRANCH  18  19
ATOM     19  C   UNL     1       1.872   5.257  20.421  0.00  0.00    +0.000 C 
ATOM     20  O   UNL     1       0.648   5.176  20.531  0.00  0.00    +0.000 OA
ATOM     21  N   UNL     1       2.552   6.447  20.189  0.00  0.00    +0.000 N 
ATOM     22  H   UNL     1       3.503   6.383  19.826  0.00  0.00    +0.000 HD
BRANCH  21  23
ATOM     23  C   UNL     1       1.913   7.696  20.054  0.00  0.00    +0.000 A 
ATOM     24  C   UNL     1       1.302   8.347  21.127  0.00  0.00    +0.000 A 
ATOM     25  C   UNL     1       0.706   9.600  20.942  0.00  0.00    +0.000 A 
ATOM     26  C   UNL     1       0.688  10.204  19.681  0.00  0.00    +0.000 A 
ATOM     27  C   UNL     1       1.245   9.523  18.602  0.00  0.00    +0.000 A 
ATOM     28  C   UNL     1       1.905   8.303  18.798  0.00  0.00    +0.000 A 
BRANCH  26  29
ATOM     29  O   UNL     1       0.053  11.406  19.629  0.00  0.00    +0.000 OA
BRANCH  29  30
ATOM     30  C   UNL     1       0.810  12.600  19.473  0.00  0.00    +0.000 C 
ATOM     31  F   UNL     1       0.249  13.699  20.020  0.00  0.00    +0.000 F 
ATOM     32  F   UNL     1       2.032  12.424  20.022  0.00  0.00    +0.000 F 
ATOM     33  F   UNL     1       0.973  12.838  18.152  0.00  0.00    +0.000 F 
ENDBRANCH  29  30
ENDBRANCH  26  29
ENDBRANCH  21  23
ENDBRANCH  18  19
ENDBRANCH   4  18
TORSDOF 9
ENDMDL
