MODEL 1
REMARK VINA RESULT:      -7.3      0.000      0.000
REMARK  Name = 
REMARK  8 active torsions:
REMARK  status: ('A' for Active; 'I' for Inactive)
REMARK    1  A    between atoms: C_2  and  C_3
REMARK    2  A    between atoms: C_3  and  N_4
REMARK    3  A    between atoms: N_4  and  C_5
REMARK    4  A    between atoms: N_4  and  S_16
REMARK    5  A    between atoms: C_5  and  C_6
REMARK    6  A    between atoms: N_8  and  C_9
REMARK    7  A    between atoms: S_16  and  C_19
REMARK    8  A    between atoms: C_24  and  C_25
REMARK                            x       y       z     vdW  Elec       q    Type
REMARK                         _______ _______ _______ _____ _____    ______ ____
ROOT
ATOM      1  N   UNL     1       2.824   5.068  18.648  0.00  0.00    +0.000 NA
ENDROOT
BRANCH   1   2
ATOM      2  S   UNL     1       4.491   4.702  18.988  0.00  0.00    +0.000 S 
ATOM      3  O   UNL     1       5.094   5.791  19.719  0.00  0.00    +0.000 OA
ATOM      4  O   UNL     1       4.512   3.356  19.517  0.00  0.00    +0.000 OA
BRANCH   2   5
ATOM      5  C   UNL     1       5.254   4.674  17.380  0.00  0.00    +0.000 A 
ATOM      6  C   UNL     1       4.401   4.489  16.273  0.00  0.00    +0.000 A 
ATOM      7  C   UNL     1       4.911   4.489  14.977  0.00  0.00    +0.000 A 
ATOM      8  C   UNL     1       6.272   4.673  14.775  0.00  0.00    +0.000 A 
ATOM      9  C   UNL     1       7.122   4.846  15.871  0.00  0.00    +0.000 A 
ATOM     10  C   UNL     1       6.636   4.844  17.200  0.00  0.00    +0.000 A 
BRANCH  10  11
ATOM     11  C   UNL     1       7.667   5.018  18.293  0.00  0.00    +0.000 C 
ATOM     12  F   UNL     1       7.274   4.824  19.578  0.00  0.00    +0.000 F 
ATOM     13  F   UNL     1       8.737   4.201  18.105  0.00  0.00    +0.000 F 
ATOM     14  F   UNL     1       8.176   6.287  18.285  0.00  0.00    +0.000 F 
ENDBRANCH  10  11
ENDBRANCH   2   5
ENDBRANCH   1   2
BRANCH   1  15
ATOM     15  C   UNL     1       1.980   3.836  18.778  0.00  0.00    +0.000 C 
BRANCH  15  17
ATOM     16  C   UNL     1       1.209   2.947  20.983  0.00  0.00    +0.000 C 
ATOM     17  C   UNL     1       1.116   3.859  20.003  0.00  0.00    +0.000 C 
ENDBRANCH  15  17
ENDBRANCH   1  15
BRANCH   1  18
ATOM     18  C   UNL     1       2.344   6.174  19.552  0.00  0.00    +0.000 C 
BRANCH  18  19
ATOM     19  C   UNL     1       2.269   7.576  18.945  0.00  0.00    +0.000 C 
ATOM     20  O   UNL     1       2.956   7.896  17.978  0.00  0.00    +0.000 OA
ATOM     21  N   UNL     1       1.459   8.482  19.619  0.00  0.00    +0.000 N 
ATOM     22  H   UNL     1       0.710   8.063  20.167  0.00  0.00    +0.000 HD
BRANCH  21  23
ATOM     23  C   UNL     1       1.312   9.853  19.112  0.00  0.00    +0.000 C 
ATOM     24  C   UNL     1       0.827  10.836  20.188  0.00  0.00    +0.000 C 
ATOM     25  C   UNL     1      -0.688  10.762  20.203  0.00  0.00    +0.000 C 
ATOM     26  S   UNL     1      -1.123  10.735  18.482  0.00  0.00    +0.000 S 
ATOM     27  O   UNL     1      -1.147  12.103  18.006  0.00  0.00    +0.000 OA
ATOM     28  O   UNL     1      -2.250   9.840  18.310  0.00  0.00    +0.000 OA
ATOM     29  C   UNL     1       0.372   9.954  17.902  0.00  0.00    +0.000 C 
ENDBRANCH  21  23
ENDBRANCH  18  19
ENDBRANCH   1  18
TORSDOF 8
ENDMDL
MODEL 2
REMARK VINA RESULT:      -7.1      1.316      1.601
REMARK  Name = 
REMARK  8 active torsions:
REMARK  status: ('A' for Active; 'I' for Inactive)
REMARK    1  A    between atoms: C_2  and  C_3
REMARK    2  A    between atoms: C_3  and  N_4
REMARK    3  A    between atoms: N_4  and  C_5
REMARK    4  A    between atoms: N_4  and  S_16
REMARK    5  A    between atoms: C_5  and  C_6
REMARK    6  A    between atoms: N_8  and  C_9
REMARK    7  A    between atoms: S_16  and  C_19
REMARK    8  A    between atoms: C_24  and  C_25
REMARK                            x       y       z     vdW  Elec       q    Type
REMARK                         _______ _______ _______ _____ _____    ______ ____
ROOT
ATOM      1  N   UNL     1       3.430   5.130  18.787  0.00  0.00    +0.000 NA
ENDROOT
BRANCH   1   2
ATOM      2  S   UNL     1       5.114   4.723  18.944  0.00  0.00    +0.000 S 
ATOM      3  O   UNL     1       5.814   5.784  19.630  0.00  0.00    +0.000 OA
ATOM      4  O   UNL     1       5.160   3.367  19.442  0.00  0.00    +0.000 OA
BRANCH   2   5
ATOM      5  C   UNL     1       5.706   4.714  17.265  0.00  0.00    +0.000 A 
ATOM      6  C   UNL     1       5.215   3.697  16.422  0.00  0.00    +0.000 A 
ATOM      7  C   UNL     1       5.600   3.637  15.085  0.00  0.00    +0.000 A 
ATOM      8  C   UNL     1       6.474   4.589  14.579  0.00  0.00    +0.000 A 
ATOM      9  C   UNL     1       6.970   5.593  15.414  0.00  0.00    +0.000 A 
ATOM     10  C   UNL     1       6.604   5.677  16.779  0.00  0.00    +0.000 A 
BRANCH  10  11
ATOM     11  C   UNL     1       7.233   6.799  17.576  0.00  0.00    +0.000 C 
ATOM     12  F   UNL     1       7.906   6.477  18.709  0.00  0.00    +0.000 F 
ATOM     13  F   UNL     1       8.101   7.523  16.820  0.00  0.00    +0.000 F 
ATOM     14  F   UNL     1       6.284   7.693  17.990  0.00  0.00    +0.000 F 
ENDBRANCH  10  11
ENDBRANCH   2   5
ENDBRANCH   1   2
BRANCH   1  15
ATOM     15  C   UNL     1       2.576   4.085  19.439  0.00  0.00    +0.000 C 
BRANCH  15  17
ATOM     16  C   UNL     1       2.226   2.242  17.787  0.00  0.00    +0.000 C 
ATOM     17  C   UNL     1       1.758   3.310  18.449  0.00  0.00    +0.000 C 
ENDBRANCH  15  17
ENDBRANCH   1  15
BRANCH   1  18
ATOM     18  C   UNL     1       3.174   6.500  19.359  0.00  0.00    +0.000 C 
BRANCH  18  19
ATOM     19  C   UNL     1       2.745   7.589  18.375  0.00  0.00    +0.000 C 
ATOM     20  O   UNL     1       3.249   7.680  17.257  0.00  0.00    +0.000 OA
ATOM     21  N   UNL     1       1.834   8.517  18.863  0.00  0.00    +0.000 N 
ATOM     22  H   UNL     1       1.248   8.184  19.626  0.00  0.00    +0.000 HD
BRANCH  21  23
ATOM     23  C   UNL     1       1.351   9.598  17.992  0.00  0.00    +0.000 C 
ATOM     24  C   UNL     1       2.070  10.932  18.247  0.00  0.00    +0.000 C 
ATOM     25  C   UNL     1       1.335  11.621  19.380  0.00  0.00    +0.000 C 
ATOM     26  S   UNL     1      -0.378  11.369  18.983  0.00  0.00    +0.000 S 
ATOM     27  O   UNL     1      -0.772  12.396  18.040  0.00  0.00    +0.000 OA
ATOM     28  O   UNL     1      -1.103  11.137  20.216  0.00  0.00    +0.000 OA
ATOM     29  C   UNL     1      -0.162   9.833  18.101  0.00  0.00    +0.000 C 
ENDBRANCH  21  23
ENDBRANCH  18  19
ENDBRANCH   1  18
TORSDOF 8
ENDMDL
MODEL 3
REMARK VINA RESULT:      -7.1      1.774      2.483
REMARK  Name = 
REMARK  8 active torsions:
REMARK  status: ('A' for Active; 'I' for Inactive)
REMARK    1  A    between atoms: C_2  and  C_3
REMARK    2  A    between atoms: C_3  and  N_4
REMARK    3  A    between atoms: N_4  and  C_5
REMARK    4  A    between atoms: N_4  and  S_16
REMARK    5  A    between atoms: C_5  and  C_6
REMARK    6  A    between atoms: N_8  and  C_9
REMARK    7  A    between atoms: S_16  and  C_19
REMARK    8  A    between atoms: C_24  and  C_25
REMARK                            x       y       z     vdW  Elec       q    Type
REMARK                         _______ _______ _______ _____ _____    ______ ____
ROOT
ATOM      1  N   UNL     1       2.909   5.041  17.933  0.00  0.00    +0.000 NA
ENDROOT
BRANCH   1   2
ATOM      2  S   UNL     1       4.227   3.972  18.315  0.00  0.00    +0.000 S 
ATOM      3  O   UNL     1       4.113   3.519  19.681  0.00  0.00    +0.000 OA
ATOM      4  O   UNL     1       4.310   3.024  17.227  0.00  0.00    +0.000 OA
BRANCH   2   5
ATOM      5  C   UNL     1       5.661   5.025  18.239  0.00  0.00    +0.000 A 
ATOM      6  C   UNL     1       6.379   5.212  19.438  0.00  0.00    +0.000 A 
ATOM      7  C   UNL     1       7.532   5.993  19.459  0.00  0.00    +0.000 A 
ATOM      8  C   UNL     1       7.978   6.591  18.289  0.00  0.00    +0.000 A 
ATOM      9  C   UNL     1       7.263   6.416  17.101  0.00  0.00    +0.000 A 
ATOM     10  C   UNL     1       6.084   5.635  17.048  0.00  0.00    +0.000 A 
BRANCH  10  11
ATOM     11  C   UNL     1       5.395   5.549  15.704  0.00  0.00    +0.000 C 
ATOM     12  F   UNL     1       4.631   4.457  15.446  0.00  0.00    +0.000 F 
ATOM     13  F   UNL     1       4.592   6.624  15.484  0.00  0.00    +0.000 F 
ATOM     14  F   UNL     1       6.308   5.568  14.686  0.00  0.00    +0.000 F 
ENDBRANCH  10  11
ENDBRANCH   2   5
ENDBRANCH   1   2
BRANCH   1  15
ATOM     15  C   UNL     1       1.670   4.256  17.629  0.00  0.00    +0.000 C 
BRANCH  15  17
ATOM     16  C   UNL     1       0.667   3.342  19.728  0.00  0.00    +0.000 C 
ATOM     17  C   UNL     1       1.418   3.168  18.630  0.00  0.00    +0.000 C 
ENDBRANCH  15  17
ENDBRANCH   1  15
BRANCH   1  18
ATOM     18  C   UNL     1       2.691   6.016  19.062  0.00  0.00    +0.000 C 
BRANCH  18  19
ATOM     19  C   UNL     1       2.570   7.493  18.682  0.00  0.00    +0.000 C 
ATOM     20  O   UNL     1       3.307   8.004  17.842  0.00  0.00    +0.000 OA
ATOM     21  N   UNL     1       1.651   8.230  19.418  0.00  0.00    +0.000 N 
ATOM     22  H   UNL     1       0.891   7.687  19.824  0.00  0.00    +0.000 HD
BRANCH  21  23
ATOM     23  C   UNL     1       1.452   9.656  19.126  0.00  0.00    +0.000 C 
ATOM     24  C   UNL     1       0.898  10.438  20.327  0.00  0.00    +0.000 C 
ATOM     25  C   UNL     1      -0.612  10.299  20.285  0.00  0.00    +0.000 C 
ATOM     26  S   UNL     1      -1.007  10.523  18.569  0.00  0.00    +0.000 S 
ATOM     27  O   UNL     1      -1.083  11.946  18.311  0.00  0.00    +0.000 OA
ATOM     28  O   UNL     1      -2.087   9.619  18.227  0.00  0.00    +0.000 OA
ATOM     29  C   UNL     1       0.536   9.906  17.919  0.00  0.00    +0.000 C 
ENDBRANCH  21  23
ENDBRANCH  18  19
ENDBRANCH   1  18
TORSDOF 8
ENDMDL
MODEL 4
REMARK VINA RESULT:      -7.0      1.260      1.621
REMARK  Name = 
REMARK  8 active torsions:
REMARK  status: ('A' for Active; 'I' for Inactive)
REMARK    1  A    between atoms: C_2  and  C_3
REMARK    2  A    between atoms: C_3  and  N_4
REMARK    3  A    between atoms: N_4  and  C_5
REMARK    4  A    between atoms: N_4  and  S_16
REMARK    5  A    between atoms: C_5  and  C_6
REMARK    6  A    between atoms: N_8  and  C_9
REMARK    7  A    between atoms: S_16  and  C_19
REMARK    8  A    between atoms: C_24  and  C_25
REMARK                            x       y       z     vdW  Elec       q    Type
REMARK                         _______ _______ _______ _____ _____    ______ ____
ROOT
ATOM      1  N   UNL     1       3.180   5.380  18.214  0.00  0.00    +0.000 NA
ENDROOT
BRANCH   1   2
ATOM      2  S   UNL     1       4.732   4.673  18.558  0.00  0.00    +0.000 S 
ATOM      3  O   UNL     1       5.480   5.536  19.441  0.00  0.00    +0.000 OA
ATOM      4  O   UNL     1       4.480   3.294  18.912  0.00  0.00    +0.000 OA
BRANCH   2   5
ATOM      5  C   UNL     1       5.564   4.695  16.985  0.00  0.00    +0.000 A 
ATOM      6  C   UNL     1       5.214   3.686  16.064  0.00  0.00    +0.000 A 
ATOM      7  C   UNL     1       5.793   3.650  14.798  0.00  0.00    +0.000 A 
ATOM      8  C   UNL     1       6.722   4.617  14.440  0.00  0.00    +0.000 A 
ATOM      9  C   UNL     1       7.079   5.613  15.353  0.00  0.00    +0.000 A 
ATOM     10  C   UNL     1       6.514   5.672  16.650  0.00  0.00    +0.000 A 
BRANCH  10  11
ATOM     11  C   UNL     1       7.007   6.787  17.547  0.00  0.00    +0.000 C 
ATOM     12  F   UNL     1       7.967   7.617  17.066  0.00  0.00    +0.000 F 
ATOM     13  F   UNL     1       5.987   7.592  17.949  0.00  0.00    +0.000 F 
ATOM     14  F   UNL     1       7.544   6.283  18.699  0.00  0.00    +0.000 F 
ENDBRANCH  10  11
ENDBRANCH   2   5
ENDBRANCH   1   2
BRANCH   1  15
ATOM     15  C   UNL     1       2.080   4.420  18.552  0.00  0.00    +0.000 C 
BRANCH  15  17
ATOM     16  C   UNL     1       1.368   3.690  20.835  0.00  0.00    +0.000 C 
ATOM     17  C   UNL     1       1.508   4.660  19.918  0.00  0.00    +0.000 C 
ENDBRANCH  15  17
ENDBRANCH   1  15
BRANCH   1  18
ATOM     18  C   UNL     1       3.032   6.685  18.954  0.00  0.00    +0.000 C 
BRANCH  18  19
ATOM     19  C   UNL     1       2.559   7.890  18.138  0.00  0.00    +0.000 C 
ATOM     20  O   UNL     1       3.039   8.148  17.036  0.00  0.00    +0.000 OA
ATOM     21  N   UNL     1       1.640   8.719  18.766  0.00  0.00    +0.000 N 
ATOM     22  H   UNL     1       1.077   8.269  19.486  0.00  0.00    +0.000 HD
BRANCH  21  23
ATOM     23  C   UNL     1       1.117   9.899  18.064  0.00  0.00    +0.000 C 
ATOM     24  C   UNL     1       1.894  11.182  18.396  0.00  0.00    +0.000 C 
ATOM     25  C   UNL     1       1.280  11.757  19.657  0.00  0.00    +0.000 C 
ATOM     26  S   UNL     1      -0.467  11.585  19.389  0.00  0.00    +0.000 S 
ATOM     27  O   UNL     1      -0.910  12.717  18.600  0.00  0.00    +0.000 OA
ATOM     28  O   UNL     1      -1.091  11.234  20.649  0.00  0.00    +0.000 OA
ATOM     29  C   UNL     1      -0.374  10.152  18.331  0.00  0.00    +0.000 C 
ENDBRANCH  21  23
ENDBRANCH  18  19
ENDBRANCH   1  18
TORSDOF 8
ENDMDL
MODEL 5
REMARK VINA RESULT:      -7.0      1.884      2.549
REMARK  Name = 
REMARK  8 active torsions:
REMARK  status: ('A' for Active; 'I' for Inactive)
REMARK    1  A    between atoms: C_2  and  C_3
REMARK    2  A    between atoms: C_3  and  N_4
REMARK    3  A    between atoms: N_4  and  C_5
REMARK    4  A    between atoms: N_4  and  S_16
REMARK    5  A    between atoms: C_5  and  C_6
REMARK    6  A    between atoms: N_8  and  C_9
REMARK    7  A    between atoms: S_16  and  C_19
REMARK    8  A    between atoms: C_24  and  C_25
REMARK                            x       y       z     vdW  Elec       q    Type
REMARK                         _______ _______ _______ _____ _____    ______ ____
ROOT
ATOM      1  N   UNL     1       2.888   4.771  18.236  0.00  0.00    +0.000 NA
ENDROOT
BRANCH   1   2
ATOM      2  S   UNL     1       4.268   3.750  18.517  0.00  0.00    +0.000 S 
ATOM      3  O   UNL     1       4.307   3.346  19.902  0.00  0.00    +0.000 OA
ATOM      4  O   UNL     1       4.266   2.763  17.460  0.00  0.00    +0.000 OA
BRANCH   2   5
ATOM      5  C   UNL     1       5.656   4.834  18.255  0.00  0.00    +0.000 A 
ATOM      6  C   UNL     1       6.351   5.268  19.402  0.00  0.00    +0.000 A 
ATOM      7  C   UNL     1       7.469   6.091  19.284  0.00  0.00    +0.000 A 
ATOM      8  C   UNL     1       7.902   6.485  18.026  0.00  0.00    +0.000 A 
ATOM      9  C   UNL     1       7.210   6.064  16.887  0.00  0.00    +0.000 A 
ATOM     10  C   UNL     1       6.066   5.235  16.973  0.00  0.00    +0.000 A 
BRANCH  10  11
ATOM     11  C   UNL     1       5.397   4.874  15.665  0.00  0.00    +0.000 C 
ATOM     12  F   UNL     1       5.699   3.676  15.103  0.00  0.00    +0.000 F 
ATOM     13  F   UNL     1       4.042   4.904  15.772  0.00  0.00    +0.000 F 
ATOM     14  F   UNL     1       5.702   5.788  14.694  0.00  0.00    +0.000 F 
ENDBRANCH  10  11
ENDBRANCH   2   5
ENDBRANCH   1   2
BRANCH   1  15
ATOM     15  C   UNL     1       1.629   4.076  18.658  0.00  0.00    +0.000 C 
BRANCH  15  17
ATOM     16  C   UNL     1       1.161   3.332  20.998  0.00  0.00    +0.000 C 
ATOM     17  C   UNL     1       1.294   4.319  20.100  0.00  0.00    +0.000 C 
ENDBRANCH  15  17
ENDBRANCH   1  15
BRANCH   1  18
ATOM     18  C   UNL     1       3.066   6.088  18.946  0.00  0.00    +0.000 C 
BRANCH  18  19
ATOM     19  C   UNL     1       2.781   7.352  18.134  0.00  0.00    +0.000 C 
ATOM     20  O   UNL     1       3.487   7.679  17.183  0.00  0.00    +0.000 OA
ATOM     21  N   UNL     1       1.746   8.150  18.606  0.00  0.00    +0.000 N 
ATOM     22  H   UNL     1       1.041   7.660  19.154  0.00  0.00    +0.000 HD
BRANCH  21  23
ATOM     23  C   UNL     1       1.387   9.383  17.892  0.00  0.00    +0.000 C 
ATOM     24  C   UNL     1       2.162  10.610  18.396  0.00  0.00    +0.000 C 
ATOM     25  C   UNL     1       1.392  11.163  19.579  0.00  0.00    +0.000 C 
ATOM     26  S   UNL     1      -0.301  11.092  19.048  0.00  0.00    +0.000 S 
ATOM     27  O   UNL     1      -0.570  12.276  18.259  0.00  0.00    +0.000 OA
ATOM     28  O   UNL     1      -1.120  10.721  20.184  0.00  0.00    +0.000 OA
ATOM     29  C   UNL     1      -0.114   9.700  17.948  0.00  0.00    +0.000 C 
ENDBRANCH  21  23
ENDBRANCH  18  19
ENDBRANCH   1  18
TORSDOF 8
ENDMDL
MODEL 6
REMARK VINA RESULT:      -6.9      2.302      2.873
REMARK  Name = 
REMARK  8 active torsions:
REMARK  status: ('A' for Active; 'I' for Inactive)
REMARK    1  A    between atoms: C_2  and  C_3
REMARK    2  A    between atoms: C_3  and  N_4
REMARK    3  A    between atoms: N_4  and  C_5
REMARK    4  A    between atoms: N_4  and  S_16
REMARK    5  A    between atoms: C_5  and  C_6
REMARK    6  A    between atoms: N_8  and  C_9
REMARK    7  A    between atoms: S_16  and  C_19
REMARK    8  A    between atoms: C_24  and  C_25
REMARK                            x       y       z     vdW  Elec       q    Type
REMARK                         _______ _______ _______ _____ _____    ______ ____
ROOT
ATOM      1  N   UNL     1       3.530   5.214  19.439  0.00  0.00    +0.000 NA
ENDROOT
BRANCH   1   2
ATOM      2  S   UNL     1       5.093   4.462  19.308  0.00  0.00    +0.000 S 
ATOM      3  O   UNL     1       6.097   5.307  19.910  0.00  0.00    +0.000 OA
ATOM      4  O   UNL     1       4.923   3.093  19.743  0.00  0.00    +0.000 OA
BRANCH   2   5
ATOM      5  C   UNL     1       5.411   4.448  17.557  0.00  0.00    +0.000 A 
ATOM      6  C   UNL     1       6.656   4.952  17.131  0.00  0.00    +0.000 A 
ATOM      7  C   UNL     1       6.999   4.946  15.781  0.00  0.00    +0.000 A 
ATOM      8  C   UNL     1       6.106   4.438  14.847  0.00  0.00    +0.000 A 
ATOM      9  C   UNL     1       4.867   3.946  15.265  0.00  0.00    +0.000 A 
ATOM     10  C   UNL     1       4.485   3.945  16.628  0.00  0.00    +0.000 A 
BRANCH  10  11
ATOM     11  C   UNL     1       3.106   3.407  16.940  0.00  0.00    +0.000 C 
ATOM     12  F   UNL     1       2.996   2.444  17.890  0.00  0.00    +0.000 F 
ATOM     13  F   UNL     1       2.256   4.399  17.316  0.00  0.00    +0.000 F 
ATOM     14  F   UNL     1       2.539   2.849  15.828  0.00  0.00    +0.000 F 
ENDBRANCH  10  11
ENDBRANCH   2   5
ENDBRANCH   1   2
BRANCH   1  15
ATOM     15  C   UNL     1       2.838   4.771  20.692  0.00  0.00    +0.000 C 
BRANCH  15  17
ATOM     16  C   UNL     1       1.128   2.951  20.578  0.00  0.00    +0.000 C 
ATOM     17  C   UNL     1       1.459   4.242  20.431  0.00  0.00    +0.000 C 
ENDBRANCH  15  17
ENDBRANCH   1  15
BRANCH   1  18
ATOM     18  C   UNL     1       3.672   6.713  19.378  0.00  0.00    +0.000 C 
BRANCH  18  19
ATOM     19  C   UNL     1       2.483   7.496  18.817  0.00  0.00    +0.000 C 
ATOM     20  O   UNL     1       2.133   7.380  17.645  0.00  0.00    +0.000 OA
ATOM     21  N   UNL     1       1.903   8.412  19.685  0.00  0.00    +0.000 N 
ATOM     22  H   UNL     1       2.026   8.204  20.674  0.00  0.00    +0.000 HD
BRANCH  21  23
ATOM     23  C   UNL     1       0.748   9.208  19.245  0.00  0.00    +0.000 C 
ATOM     24  C   UNL     1       1.157  10.526  18.570  0.00  0.00    +0.000 C 
ATOM     25  C   UNL     1       1.344  11.548  19.674  0.00  0.00    +0.000 C 
ATOM     26  S   UNL     1      -0.042  11.263  20.748  0.00  0.00    +0.000 S 
ATOM     27  O   UNL     1      -1.178  11.982  20.210  0.00  0.00    +0.000 OA
ATOM     28  O   UNL     1       0.400  11.436  22.118  0.00  0.00    +0.000 OA
ATOM     29  C   UNL     1      -0.235   9.528  20.381  0.00  0.00    +0.000 C 
ENDBRANCH  21  23
ENDBRANCH  18  19
ENDBRANCH   1  18
TORSDOF 8
ENDMDL
MODEL 7
REMARK VINA RESULT:      -6.9      5.153      9.563
REMARK  Name = 
REMARK  8 active torsions:
REMARK  status: ('A' for Active; 'I' for Inactive)
REMARK    1  A    between atoms: C_2  and  C_3
REMARK    2  A    between atoms: C_3  and  N_4
REMARK    3  A    between atoms: N_4  and  C_5
REMARK    4  A    between atoms: N_4  and  S_16
REMARK    5  A    between atoms: C_5  and  C_6
REMARK    6  A    between atoms: N_8  and  C_9
REMARK    7  A    between atoms: S_16  and  C_19
REMARK    8  A    between atoms: C_24  and  C_25
REMARK                            x       y       z     vdW  Elec       q    Type
REMARK                         _______ _______ _______ _____ _____    ______ ____
ROOT
ATOM      1  N   UNL     1       0.848  11.194  19.279  0.00  0.00    +0.000 NA
ENDROOT
BRANCH   1   2
ATOM      2  S   UNL     1      -0.600  11.561  20.170  0.00  0.00    +0.000 S 
ATOM      3  O   UNL     1      -0.833  10.545  21.170  0.00  0.00    +0.000 OA
ATOM      4  O   UNL     1      -0.506  12.955  20.542  0.00  0.00    +0.000 OA
BRANCH   2   5
ATOM      5  C   UNL     1      -1.894  11.400  18.959  0.00  0.00    +0.000 A 
ATOM      6  C   UNL     1      -1.572  10.716  17.769  0.00  0.00    +0.000 A 
ATOM      7  C   UNL     1      -2.536  10.516  16.783  0.00  0.00    +0.000 A 
ATOM      8  C   UNL     1      -3.824  10.994  16.975  0.00  0.00    +0.000 A 
ATOM      9  C   UNL     1      -4.145  11.681  18.149  0.00  0.00    +0.000 A 
ATOM     10  C   UNL     1      -3.187  11.907  19.167  0.00  0.00    +0.000 A 
BRANCH  10  11
ATOM     11  C   UNL     1      -3.660  12.686  20.374  0.00  0.00    +0.000 C 
ATOM     12  F   UNL     1      -3.380  12.187  21.605  0.00  0.00    +0.000 F 
ATOM     13  F   UNL     1      -3.177  13.957  20.370  0.00  0.00    +0.000 F 
ATOM     14  F   UNL     1      -5.021  12.818  20.366  0.00  0.00    +0.000 F 
ENDBRANCH  10  11
ENDBRANCH   2   5
ENDBRANCH   1   2
BRANCH   1  15
ATOM     15  C   UNL     1       1.870  12.274  19.472  0.00  0.00    +0.000 C 
BRANCH  15  17
ATOM     16  C   UNL     1       3.227  13.862  18.100  0.00  0.00    +0.000 C 
ATOM     17  C   UNL     1       2.308  12.888  18.175  0.00  0.00    +0.000 C 
ENDBRANCH  15  17
ENDBRANCH   1  15
BRANCH   1  18
ATOM     18  C   UNL     1       1.377   9.843  19.688  0.00  0.00    +0.000 C 
BRANCH  18  19
ATOM     19  C   UNL     1       1.856   8.922  18.564  0.00  0.00    +0.000 C 
ATOM     20  O   UNL     1       1.844   9.282  17.389  0.00  0.00    +0.000 OA
ATOM     21  N   UNL     1       2.199   7.632  18.948  0.00  0.00    +0.000 N 
ATOM     22  H   UNL     1       2.491   7.536  19.919  0.00  0.00    +0.000 HD
BRANCH  21  23
ATOM     23  C   UNL     1       2.680   6.672  17.944  0.00  0.00    +0.000 C 
ATOM     24  C   UNL     1       2.205   5.237  18.219  0.00  0.00    +0.000 C 
ATOM     25  C   UNL     1       3.204   4.617  19.177  0.00  0.00    +0.000 C 
ATOM     26  S   UNL     1       4.776   5.136  18.537  0.00  0.00    +0.000 S 
ATOM     27  O   UNL     1       5.151   4.220  17.479  0.00  0.00    +0.000 OA
ATOM     28  O   UNL     1       5.653   5.420  19.655  0.00  0.00    +0.000 OA
ATOM     29  C   UNL     1       4.209   6.659  17.801  0.00  0.00    +0.000 C 
ENDBRANCH  21  23
ENDBRANCH  18  19
ENDBRANCH   1  18
TORSDOF 8
ENDMDL
MODEL 8
REMARK VINA RESULT:      -6.8      2.056      2.547
REMARK  Name = 
REMARK  8 active torsions:
REMARK  status: ('A' for Active; 'I' for Inactive)
REMARK    1  A    between atoms: C_2  and  C_3
REMARK    2  A    between atoms: C_3  and  N_4
REMARK    3  A    between atoms: N_4  and  C_5
REMARK    4  A    between atoms: N_4  and  S_16
REMARK    5  A    between atoms: C_5  and  C_6
REMARK    6  A    between atoms: N_8  and  C_9
REMARK    7  A    between atoms: S_16  and  C_19
REMARK    8  A    between atoms: C_24  and  C_25
REMARK                            x       y       z     vdW  Elec       q    Type
REMARK                         _______ _______ _______ _____ _____    ______ ____
ROOT
ATOM      1  N   UNL     1       3.314   4.397  18.622  0.00  0.00    +0.000 NA
ENDROOT
BRANCH   1   2
ATOM      2  S   UNL     1       4.456   5.699  18.456  0.00  0.00    +0.000 S 
ATOM      3  O   UNL     1       3.765   6.918  18.108  0.00  0.00    +0.000 OA
ATOM      4  O   UNL     1       5.311   5.641  19.620  0.00  0.00    +0.000 OA
BRANCH   2   5
ATOM      5  C   UNL     1       5.426   5.232  17.038  0.00  0.00    +0.000 A 
ATOM      6  C   UNL     1       4.951   4.151  16.269  0.00  0.00    +0.000 A 
ATOM      7  C   UNL     1       5.630   3.742  15.123  0.00  0.00    +0.000 A 
ATOM      8  C   UNL     1       6.785   4.408  14.736  0.00  0.00    +0.000 A 
ATOM      9  C   UNL     1       7.264   5.475  15.501  0.00  0.00    +0.000 A 
ATOM     10  C   UNL     1       6.601   5.909  16.674  0.00  0.00    +0.000 A 
BRANCH  10  11
ATOM     11  C   UNL     1       7.240   7.059  17.421  0.00  0.00    +0.000 C 
ATOM     12  F   UNL     1       6.453   8.105  17.778  0.00  0.00    +0.000 F 
ATOM     13  F   UNL     1       7.841   6.638  18.566  0.00  0.00    +0.000 F 
ATOM     14  F   UNL     1       8.239   7.626  16.679  0.00  0.00    +0.000 F 
ENDBRANCH  10  11
ENDBRANCH   2   5
ENDBRANCH   1   2
BRANCH   1  15
ATOM     15  C   UNL     1       3.769   3.434  19.676  0.00  0.00    +0.000 C 
BRANCH  15  17
ATOM     16  C   UNL     1       3.504   1.387  18.266  0.00  0.00    +0.000 C 
ATOM     17  C   UNL     1       3.291   2.035  19.421  0.00  0.00    +0.000 C 
ENDBRANCH  15  17
ENDBRANCH   1  15
BRANCH   1  18
ATOM     18  C   UNL     1       1.944   4.948  18.919  0.00  0.00    +0.000 C 
BRANCH  18  19
ATOM     19  C   UNL     1       1.791   5.754  20.210  0.00  0.00    +0.000 C 
ATOM     20  O   UNL     1       1.925   5.232  21.315  0.00  0.00    +0.000 OA
ATOM     21  N   UNL     1       1.391   7.075  20.052  0.00  0.00    +0.000 N 
ATOM     22  H   UNL     1       1.625   7.490  19.152  0.00  0.00    +0.000 HD
BRANCH  21  23
ATOM     23  C   UNL     1       1.223   7.937  21.230  0.00  0.00    +0.000 C 
ATOM     24  C   UNL     1      -0.251   8.232  21.546  0.00  0.00    +0.000 C 
ATOM     25  C   UNL     1      -0.651   9.431  20.709  0.00  0.00    +0.000 C 
ATOM     26  S   UNL     1       0.733  10.532  20.864  0.00  0.00    +0.000 S 
ATOM     27  O   UNL     1       0.573  11.278  22.095  0.00  0.00    +0.000 OA
ATOM     28  O   UNL     1       0.942  11.186  19.589  0.00  0.00    +0.000 OA
ATOM     29  C   UNL     1       1.972   9.272  21.115  0.00  0.00    +0.000 C 
ENDBRANCH  21  23
ENDBRANCH  18  19
ENDBRANCH   1  18
TORSDOF 8
ENDMDL
MODEL 9
REMARK VINA RESULT:      -6.8      3.902      8.623
REMARK  Name = 
REMARK  8 active torsions:
REMARK  status: ('A' for Active; 'I' for Inactive)
REMARK    1  A    between atoms: C_2  and  C_3
REMARK    2  A    between atoms: C_3  and  N_4
REMARK    3  A    between atoms: N_4  and  C_5
REMARK    4  A    between atoms: N_4  and  S_16
REMARK    5  A    between atoms: C_5  and  C_6
REMARK    6  A    between atoms: N_8  and  C_9
REMARK    7  A    between atoms: S_16  and  C_19
REMARK    8  A    between atoms: C_24  and  C_25
REMARK                            x       y       z     vdW  Elec       q    Type
REMARK                         _______ _______ _______ _____ _____    ______ ____
ROOT
ATOM      1  N   UNL     1      -0.009  10.164  19.078  0.00  0.00    +0.000 NA
ENDROOT
BRANCH   1   2
ATOM      2  S   UNL     1       0.374  11.730  19.734  0.00  0.00    +0.000 S 
ATOM      3  O   UNL     1       1.719  11.727  20.259  0.00  0.00    +0.000 OA
ATOM      4  O   UNL     1      -0.028  12.697  18.738  0.00  0.00    +0.000 OA
BRANCH   2   5
ATOM      5  C   UNL     1      -0.723  11.884  21.127  0.00  0.00    +0.000 A 
ATOM      6  C   UNL     1      -1.604  12.985  21.125  0.00  0.00    +0.000 A 
ATOM      7  C   UNL     1      -2.520  13.162  22.160  0.00  0.00    +0.000 A 
ATOM      8  C   UNL     1      -2.565  12.245  23.202  0.00  0.00    +0.000 A 
ATOM      9  C   UNL     1      -1.686  11.159  23.211  0.00  0.00    +0.000 A 
ATOM     10  C   UNL     1      -0.740  10.955  22.179  0.00  0.00    +0.000 A 
BRANCH  10  11
ATOM     11  C   UNL     1       0.166   9.752  22.326  0.00  0.00    +0.000 C 
ATOM     12  F   UNL     1       1.467   9.885  21.962  0.00  0.00    +0.000 F 
ATOM     13  F   UNL     1       0.183   9.293  23.606  0.00  0.00    +0.000 F 
ATOM     14  F   UNL     1      -0.289   8.705  21.573  0.00  0.00    +0.000 F 
ENDBRANCH  10  11
ENDBRANCH   2   5
ENDBRANCH   1   2
BRANCH   1  15
ATOM     15  C   UNL     1      -1.465  10.084  18.732  0.00  0.00    +0.000 C 
BRANCH  15  17
ATOM     16  C   UNL     1      -2.664  10.650  16.613  0.00  0.00    +0.000 C 
ATOM     17  C   UNL     1      -1.700   9.974  17.255  0.00  0.00    +0.000 C 
ENDBRANCH  15  17
ENDBRANCH   1  15
BRANCH   1  18
ATOM     18  C   UNL     1       0.867   9.876  17.887  0.00  0.00    +0.000 C 
BRANCH  18  19
ATOM     19  C   UNL     1       1.998   8.867  18.092  0.00  0.00    +0.000 C 
ATOM     20  O   UNL     1       3.068   8.970  17.495  0.00  0.00    +0.000 OA
ATOM     21  N   UNL     1       1.698   7.783  18.907  0.00  0.00    +0.000 N 
ATOM     22  H   UNL     1       0.960   7.950  19.589  0.00  0.00    +0.000 HD
BRANCH  21  23
ATOM     23  C   UNL     1       2.720   6.762  19.175  0.00  0.00    +0.000 C 
ATOM     24  C   UNL     1       2.963   5.835  17.974  0.00  0.00    +0.000 C 
ATOM     25  C   UNL     1       1.938   4.721  18.061  0.00  0.00    +0.000 C 
ATOM     26  S   UNL     1       1.935   4.288  19.783  0.00  0.00    +0.000 S 
ATOM     27  O   UNL     1       3.027   3.365  20.012  0.00  0.00    +0.000 OA
ATOM     28  O   UNL     1       0.574   3.982  20.174  0.00  0.00    +0.000 OA
ATOM     29  C   UNL     1       2.403   5.894  20.401  0.00  0.00    +0.000 C 
ENDBRANCH  21  23
ENDBRANCH  18  19
ENDBRANCH   1  18
TORSDOF 8
ENDMDL
