MODEL 1
REMARK VINA RESULT:      -6.9      0.000      0.000
REMARK  Name = 
REMARK  5 active torsions:
REMARK  status: ('A' for Active; 'I' for Inactive)
REMARK    1  A    between atoms: C_1  and  C_2
REMARK    2  A    between atoms: N_7  and  C_8
REMARK    3  A    between atoms: C_8  and  C_9
REMARK    4  A    between atoms: N_11  and  C_12
REMARK    5  A    between atoms: C_15  and  C_16
REMARK                            x       y       z     vdW  Elec       q    Type
REMARK                         _______ _______ _______ _____ _____    ______ ____
ROOT
ATOM      1  C   UNL     1       1.989   5.871  20.459  0.00  0.00    +0.000 C 
ATOM      2  O   UNL     1       0.873   5.379  20.620  0.00  0.00    +0.000 OA
ATOM      3  N   UNL     1       2.289   7.224  20.435  0.00  0.00    +0.000 N 
ATOM      4  H   UNL     1       3.228   7.456  20.129  0.00  0.00    +0.000 HD
ENDROOT
BRANCH   3   5
ATOM      5  C   UNL     1       1.398   8.269  20.753  0.00  0.00    +0.000 A 
ATOM      6  C   UNL     1       0.901   9.149  19.787  0.00  0.00    +0.000 A 
ATOM      7  C   UNL     1       0.077  10.218  20.137  0.00  0.00    +0.000 A 
ATOM      8  C   UNL     1      -0.274  10.423  21.474  0.00  0.00    +0.000 A 
ATOM      9  C   UNL     1      -1.089  11.612  21.874  0.00  0.00    +0.000 C 
ATOM     10  C   UNL     1       0.179   9.507  22.426  0.00  0.00    +0.000 A 
ATOM     11  F   UNL     1      -0.156   9.675  23.716  0.00  0.00    +0.000 F 
ATOM     12  C   UNL     1       0.994   8.428  22.080  0.00  0.00    +0.000 A 
ENDBRANCH   3   5
BRANCH   1  13
ATOM     13  C   UNL     1       3.179   4.952  20.187  0.00  0.00    +0.000 C 
BRANCH  13  20
ATOM     14  C   UNL     1       7.085   4.576  15.761  0.00  0.00    +0.000 C 
ATOM     15  C   UNL     1       5.904   5.485  15.983  0.00  0.00    +0.000 C 
ATOM     16  O   UNL     1       5.552   6.263  15.097  0.00  0.00    +0.000 OA
ATOM     17  N   UNL     1       5.238   5.374  17.190  0.00  0.00    +0.000 N 
ATOM     18  C   UNL     1       4.016   6.147  17.407  0.00  0.00    +0.000 C 
ATOM     19  C   UNL     1       2.842   5.210  17.756  0.00  0.00    +0.000 C 
ATOM     20  N   UNL     1       3.091   4.260  18.879  0.00  0.00    +0.000 NA
ATOM     21  C   UNL     1       4.365   3.542  18.614  0.00  0.00    +0.000 C 
ATOM     22  C   UNL     1       5.571   4.448  18.275  0.00  0.00    +0.000 C 
ENDBRANCH  13  20
ENDBRANCH   1  13
TORSDOF 3
ENDMDL
MODEL 2
REMARK VINA RESULT:      -6.9      1.018      1.198
REMARK  Name = 
REMARK  5 active torsions:
REMARK  status: ('A' for Active; 'I' for Inactive)
REMARK    1  A    between atoms: C_1  and  C_2
REMARK    2  A    between atoms: N_7  and  C_8
REMARK    3  A    between atoms: C_8  and  C_9
REMARK    4  A    between atoms: N_11  and  C_12
REMARK    5  A    between atoms: C_15  and  C_16
REMARK                            x       y       z     vdW  Elec       q    Type
REMARK                         _______ _______ _______ _____ _____    ______ ____
ROOT
ATOM      1  C   UNL     1       2.087   6.429  20.179  0.00  0.00    +0.000 C 
ATOM      2  O   UNL     1       1.256   5.720  20.744  0.00  0.00    +0.000 OA
ATOM      3  N   UNL     1       2.057   7.812  20.094  0.00  0.00    +0.000 N 
ATOM      4  H   UNL     1       2.729   8.224  19.455  0.00  0.00    +0.000 HD
ENDROOT
BRANCH   3   5
ATOM      5  C   UNL     1       1.161   8.658  20.778  0.00  0.00    +0.000 A 
ATOM      6  C   UNL     1       0.341   9.575  20.114  0.00  0.00    +0.000 A 
ATOM      7  C   UNL     1      -0.486  10.451  20.817  0.00  0.00    +0.000 A 
ATOM      8  C   UNL     1      -0.513  10.418  22.214  0.00  0.00    +0.000 A 
ATOM      9  C   UNL     1      -1.333  11.405  22.983  0.00  0.00    +0.000 C 
ATOM     10  C   UNL     1       0.263   9.460  22.870  0.00  0.00    +0.000 A 
ATOM     11  F   UNL     1       0.244   9.400  24.210  0.00  0.00    +0.000 F 
ATOM     12  C   UNL     1       1.084   8.574  22.170  0.00  0.00    +0.000 A 
ENDBRANCH   3   5
BRANCH   1  13
ATOM     13  C   UNL     1       3.242   5.772  19.425  0.00  0.00    +0.000 C 
BRANCH  13  20
ATOM     14  C   UNL     1       6.646   3.656  15.075  0.00  0.00    +0.000 C 
ATOM     15  C   UNL     1       6.648   4.977  15.799  0.00  0.00    +0.000 C 
ATOM     16  O   UNL     1       7.398   5.880  15.429  0.00  0.00    +0.000 OA
ATOM     17  N   UNL     1       5.764   5.123  16.852  0.00  0.00    +0.000 N 
ATOM     18  C   UNL     1       5.643   6.424  17.510  0.00  0.00    +0.000 C 
ATOM     19  C   UNL     1       4.184   6.921  17.455  0.00  0.00    +0.000 C 
ATOM     20  N   UNL     1       3.159   5.960  17.958  0.00  0.00    +0.000 NA
ATOM     21  C   UNL     1       3.367   4.653  17.280  0.00  0.00    +0.000 C 
ATOM     22  C   UNL     1       4.815   4.113  17.327  0.00  0.00    +0.000 C 
ENDBRANCH  13  20
ENDBRANCH   1  13
TORSDOF 3
ENDMDL
MODEL 3
REMARK VINA RESULT:      -6.9      1.241      1.655
REMARK  Name = 
REMARK  5 active torsions:
REMARK  status: ('A' for Active; 'I' for Inactive)
REMARK    1  A    between atoms: C_1  and  C_2
REMARK    2  A    between atoms: N_7  and  C_8
REMARK    3  A    between atoms: C_8  and  C_9
REMARK    4  A    between atoms: N_11  and  C_12
REMARK    5  A    between atoms: C_15  and  C_16
REMARK                            x       y       z     vdW  Elec       q    Type
REMARK                         _______ _______ _______ _____ _____    ______ ____
ROOT
ATOM      1  C   UNL     1       2.097   6.125  20.171  0.00  0.00    +0.000 C 
ATOM      2  O   UNL     1       1.146   5.493  20.629  0.00  0.00    +0.000 OA
ATOM      3  N   UNL     1       2.197   7.505  20.090  0.00  0.00    +0.000 N 
ATOM      4  H   UNL     1       2.974   7.853  19.537  0.00  0.00    +0.000 HD
ENDROOT
BRANCH   3   5
ATOM      5  C   UNL     1       1.301   8.429  20.663  0.00  0.00    +0.000 A 
ATOM      6  C   UNL     1       0.576   9.345  19.896  0.00  0.00    +0.000 A 
ATOM      7  C   UNL     1      -0.251  10.296  20.492  0.00  0.00    +0.000 A 
ATOM      8  C   UNL     1      -0.373  10.344  21.884  0.00  0.00    +0.000 A 
ATOM      9  C   UNL     1      -1.192  11.410  22.540  0.00  0.00    +0.000 C 
ATOM     10  C   UNL     1       0.308   9.390  22.642  0.00  0.00    +0.000 A 
ATOM     11  F   UNL     1       0.197   9.406  23.979  0.00  0.00    +0.000 F 
ATOM     12  C   UNL     1       1.128   8.427  22.049  0.00  0.00    +0.000 A 
ENDBRANCH   3   5
BRANCH   1  13
ATOM     13  C   UNL     1       3.274   5.365  19.560  0.00  0.00    +0.000 C 
BRANCH  13  20
ATOM     14  C   UNL     1       6.692   4.633  14.789  0.00  0.00    +0.000 C 
ATOM     15  C   UNL     1       6.957   4.415  16.257  0.00  0.00    +0.000 C 
ATOM     16  O   UNL     1       8.088   4.119  16.640  0.00  0.00    +0.000 OA
ATOM     17  N   UNL     1       5.895   4.593  17.124  0.00  0.00    +0.000 N 
ATOM     18  C   UNL     1       6.127   4.511  18.566  0.00  0.00    +0.000 C 
ATOM     19  C   UNL     1       5.682   5.815  19.257  0.00  0.00    +0.000 C 
ATOM     20  N   UNL     1       4.290   6.259  18.955  0.00  0.00    +0.000 NA
ATOM     21  C   UNL     1       4.112   6.279  17.479  0.00  0.00    +0.000 C 
ATOM     22  C   UNL     1       4.533   4.983  16.750  0.00  0.00    +0.000 C 
ENDBRANCH  13  20
ENDBRANCH   1  13
TORSDOF 3
ENDMDL
MODEL 4
REMARK VINA RESULT:      -6.8      1.359      1.827
REMARK  Name = 
REMARK  5 active torsions:
REMARK  status: ('A' for Active; 'I' for Inactive)
REMARK    1  A    between atoms: C_1  and  C_2
REMARK    2  A    between atoms: N_7  and  C_8
REMARK    3  A    between atoms: C_8  and  C_9
REMARK    4  A    between atoms: N_11  and  C_12
REMARK    5  A    between atoms: C_15  and  C_16
REMARK                            x       y       z     vdW  Elec       q    Type
REMARK                         _______ _______ _______ _____ _____    ______ ____
ROOT
ATOM      1  C   UNL     1       2.098   6.513  20.338  0.00  0.00    +0.000 C 
ATOM      2  O   UNL     1       1.316   5.828  20.995  0.00  0.00    +0.000 OA
ATOM      3  N   UNL     1       2.058   7.892  20.200  0.00  0.00    +0.000 N 
ATOM      4  H   UNL     1       2.676   8.276  19.493  0.00  0.00    +0.000 HD
ENDROOT
BRANCH   3   5
ATOM      5  C   UNL     1       1.216   8.765  20.917  0.00  0.00    +0.000 A 
ATOM      6  C   UNL     1       1.124   8.741  22.312  0.00  0.00    +0.000 A 
ATOM      7  C   UNL     1       0.231   9.567  22.994  0.00  0.00    +0.000 A 
ATOM      8  C   UNL     1      -0.590  10.447  22.284  0.00  0.00    +0.000 A 
ATOM      9  C   UNL     1      -1.610  11.279  22.996  0.00  0.00    +0.000 C 
ATOM     10  C   UNL     1      -0.453  10.508  20.896  0.00  0.00    +0.000 A 
ATOM     11  F   UNL     1      -1.221  11.355  20.193  0.00  0.00    +0.000 F 
ATOM     12  C   UNL     1       0.449   9.692  20.209  0.00  0.00    +0.000 A 
ENDBRANCH   3   5
BRANCH   1  13
ATOM     13  C   UNL     1       3.192   5.825  19.523  0.00  0.00    +0.000 C 
BRANCH  13  20
ATOM     14  C   UNL     1       6.283   3.630  14.983  0.00  0.00    +0.000 C 
ATOM     15  C   UNL     1       6.403   4.923  15.748  0.00  0.00    +0.000 C 
ATOM     16  O   UNL     1       7.201   5.784  15.378  0.00  0.00    +0.000 OA
ATOM     17  N   UNL     1       5.569   5.093  16.837  0.00  0.00    +0.000 N 
ATOM     18  C   UNL     1       5.563   6.376  17.540  0.00  0.00    +0.000 C 
ATOM     19  C   UNL     1       4.141   6.974  17.556  0.00  0.00    +0.000 C 
ATOM     20  N   UNL     1       3.070   6.069  18.066  0.00  0.00    +0.000 NA
ATOM     21  C   UNL     1       3.163   4.774  17.341  0.00  0.00    +0.000 C 
ATOM     22  C   UNL     1       4.570   4.135  17.315  0.00  0.00    +0.000 C 
ENDBRANCH  13  20
ENDBRANCH   1  13
TORSDOF 3
ENDMDL
MODEL 5
REMARK VINA RESULT:      -6.7      5.927      7.470
REMARK  Name = 
REMARK  5 active torsions:
REMARK  status: ('A' for Active; 'I' for Inactive)
REMARK    1  A    between atoms: C_1  and  C_2
REMARK    2  A    between atoms: N_7  and  C_8
REMARK    3  A    between atoms: C_8  and  C_9
REMARK    4  A    between atoms: N_11  and  C_12
REMARK    5  A    between atoms: C_15  and  C_16
REMARK                            x       y       z     vdW  Elec       q    Type
REMARK                         _______ _______ _______ _____ _____    ______ ____
ROOT
ATOM      1  C   UNL     1       8.112   8.490  18.040  0.00  0.00    +0.000 C 
ATOM      2  O   UNL     1       7.764   9.158  17.068  0.00  0.00    +0.000 OA
ATOM      3  N   UNL     1       8.936   8.915  19.070  0.00  0.00    +0.000 N 
ATOM      4  H   UNL     1       9.251   8.188  19.703  0.00  0.00    +0.000 HD
ENDROOT
BRANCH   3   5
ATOM      5  C   UNL     1       9.389  10.235  19.269  0.00  0.00    +0.000 A 
ATOM      6  C   UNL     1       9.863  11.031  18.221  0.00  0.00    +0.000 A 
ATOM      7  C   UNL     1      10.372  12.308  18.454  0.00  0.00    +0.000 A 
ATOM      8  C   UNL     1      10.408  12.821  19.754  0.00  0.00    +0.000 A 
ATOM      9  C   UNL     1      11.026  14.155  20.028  0.00  0.00    +0.000 C 
ATOM     10  C   UNL     1       9.880  12.045  20.787  0.00  0.00    +0.000 A 
ATOM     11  F   UNL     1       9.891  12.521  22.043  0.00  0.00    +0.000 F 
ATOM     12  C   UNL     1       9.358  10.770  20.558  0.00  0.00    +0.000 A 
ENDBRANCH   3   5
BRANCH   1  13
ATOM     13  C   UNL     1       7.678   7.028  18.136  0.00  0.00    +0.000 C 
BRANCH  13  20
ATOM     14  C   UNL     1       2.403   4.392  17.677  0.00  0.00    +0.000 C 
ATOM     15  C   UNL     1       3.804   3.838  17.699  0.00  0.00    +0.000 C 
ATOM     16  O   UNL     1       3.993   2.638  17.500  0.00  0.00    +0.000 OA
ATOM     17  N   UNL     1       4.835   4.732  17.917  0.00  0.00    +0.000 N 
ATOM     18  C   UNL     1       6.218   4.266  17.829  0.00  0.00    +0.000 C 
ATOM     19  C   UNL     1       6.996   5.083  16.778  0.00  0.00    +0.000 C 
ATOM     20  N   UNL     1       6.932   6.565  16.942  0.00  0.00    +0.000 NA
ATOM     21  C   UNL     1       5.505   6.963  17.068  0.00  0.00    +0.000 C 
ATOM     22  C   UNL     1       4.694   6.176  18.122  0.00  0.00    +0.000 C 
ENDBRANCH  13  20
ENDBRANCH   1  13
TORSDOF 3
ENDMDL
MODEL 6
REMARK VINA RESULT:      -6.7      5.933      7.775
REMARK  Name = 
REMARK  5 active torsions:
REMARK  status: ('A' for Active; 'I' for Inactive)
REMARK    1  A    between atoms: C_1  and  C_2
REMARK    2  A    between atoms: N_7  and  C_8
REMARK    3  A    between atoms: C_8  and  C_9
REMARK    4  A    between atoms: N_11  and  C_12
REMARK    5  A    between atoms: C_15  and  C_16
REMARK                            x       y       z     vdW  Elec       q    Type
REMARK                         _______ _______ _______ _____ _____    ______ ____
ROOT
ATOM      1  C   UNL     1       8.006   7.885  18.189  0.00  0.00    +0.000 C 
ATOM      2  O   UNL     1       8.712   7.279  18.993  0.00  0.00    +0.000 OA
ATOM      3  N   UNL     1       8.035   9.249  17.943  0.00  0.00    +0.000 N 
ATOM      4  H   UNL     1       7.277   9.604  17.370  0.00  0.00    +0.000 HD
ENDROOT
BRANCH   3   5
ATOM      5  C   UNL     1       8.987  10.155  18.451  0.00  0.00    +0.000 A 
ATOM      6  C   UNL     1       9.170  10.360  19.822  0.00  0.00    +0.000 A 
ATOM      7  C   UNL     1      10.069  11.314  20.300  0.00  0.00    +0.000 A 
ATOM      8  C   UNL     1      10.815  12.083  19.402  0.00  0.00    +0.000 A 
ATOM      9  C   UNL     1      11.721  13.165  19.898  0.00  0.00    +0.000 C 
ATOM     10  C   UNL     1      10.671  11.834  18.036  0.00  0.00    +0.000 A 
ATOM     11  F   UNL     1      11.386  12.550  17.155  0.00  0.00    +0.000 F 
ATOM     12  C   UNL     1       9.781  10.872  17.554  0.00  0.00    +0.000 A 
ENDBRANCH   3   5
BRANCH   1  13
ATOM     13  C   UNL     1       6.934   7.123  17.412  0.00  0.00    +0.000 C 
BRANCH  13  20
ATOM     14  C   UNL     1       2.552   3.153  17.257  0.00  0.00    +0.000 C 
ATOM     15  C   UNL     1       3.161   3.932  18.394  0.00  0.00    +0.000 C 
ATOM     16  O   UNL     1       2.813   3.703  19.552  0.00  0.00    +0.000 OA
ATOM     17  N   UNL     1       4.127   4.868  18.074  0.00  0.00    +0.000 N 
ATOM     18  C   UNL     1       4.833   5.564  19.149  0.00  0.00    +0.000 C 
ATOM     19  C   UNL     1       6.355   5.345  19.023  0.00  0.00    +0.000 C 
ATOM     20  N   UNL     1       6.941   5.667  17.689  0.00  0.00    +0.000 NA
ATOM     21  C   UNL     1       6.151   4.962  16.645  0.00  0.00    +0.000 C 
ATOM     22  C   UNL     1       4.621   5.169  16.728  0.00  0.00    +0.000 C 
ENDBRANCH  13  20
ENDBRANCH   1  13
TORSDOF 3
ENDMDL
MODEL 7
REMARK VINA RESULT:      -6.7      1.147      1.550
REMARK  Name = 
REMARK  5 active torsions:
REMARK  status: ('A' for Active; 'I' for Inactive)
REMARK    1  A    between atoms: C_1  and  C_2
REMARK    2  A    between atoms: N_7  and  C_8
REMARK    3  A    between atoms: C_8  and  C_9
REMARK    4  A    between atoms: N_11  and  C_12
REMARK    5  A    between atoms: C_15  and  C_16
REMARK                            x       y       z     vdW  Elec       q    Type
REMARK                         _______ _______ _______ _____ _____    ______ ____
ROOT
ATOM      1  C   UNL     1       1.874   5.745  20.438  0.00  0.00    +0.000 C 
ATOM      2  O   UNL     1       0.710   5.352  20.495  0.00  0.00    +0.000 OA
ATOM      3  N   UNL     1       2.291   7.067  20.443  0.00  0.00    +0.000 N 
ATOM      4  H   UNL     1       3.271   7.215  20.225  0.00  0.00    +0.000 HD
ENDROOT
BRANCH   3   5
ATOM      5  C   UNL     1       1.468   8.186  20.678  0.00  0.00    +0.000 A 
ATOM      6  C   UNL     1       1.029   8.538  21.958  0.00  0.00    +0.000 A 
ATOM      7  C   UNL     1       0.157   9.609  22.157  0.00  0.00    +0.000 A 
ATOM      8  C   UNL     1      -0.289  10.360  21.066  0.00  0.00    +0.000 A 
ATOM      9  C   UNL     1      -1.287  11.458  21.255  0.00  0.00    +0.000 C 
ATOM     10  C   UNL     1       0.199  10.040  19.797  0.00  0.00    +0.000 A 
ATOM     11  F   UNL     1      -0.204  10.755  18.735  0.00  0.00    +0.000 F 
ATOM     12  C   UNL     1       1.081   8.977  19.594  0.00  0.00    +0.000 A 
ENDBRANCH   3   5
BRANCH   1  13
ATOM     13  C   UNL     1       3.001   4.725  20.276  0.00  0.00    +0.000 C 
BRANCH  13  20
ATOM     14  C   UNL     1       7.077   4.628  15.991  0.00  0.00    +0.000 C 
ATOM     15  C   UNL     1       5.846   5.474  16.186  0.00  0.00    +0.000 C 
ATOM     16  O   UNL     1       5.489   6.253  15.303  0.00  0.00    +0.000 OA
ATOM     17  N   UNL     1       5.144   5.307  17.366  0.00  0.00    +0.000 N 
ATOM     18  C   UNL     1       3.879   6.017  17.552  0.00  0.00    +0.000 C 
ATOM     19  C   UNL     1       2.739   5.018  17.839  0.00  0.00    +0.000 C 
ATOM     20  N   UNL     1       2.993   4.057  18.952  0.00  0.00    +0.000 NA
ATOM     21  C   UNL     1       4.309   3.407  18.721  0.00  0.00    +0.000 C 
ATOM     22  C   UNL     1       5.482   4.375  18.445  0.00  0.00    +0.000 C 
ENDBRANCH  13  20
ENDBRANCH   1  13
TORSDOF 3
ENDMDL
MODEL 8
REMARK VINA RESULT:      -6.7      6.115      7.615
REMARK  Name = 
REMARK  5 active torsions:
REMARK  status: ('A' for Active; 'I' for Inactive)
REMARK    1  A    between atoms: C_1  and  C_2
REMARK    2  A    between atoms: N_7  and  C_8
REMARK    3  A    between atoms: C_8  and  C_9
REMARK    4  A    between atoms: N_11  and  C_12
REMARK    5  A    between atoms: C_15  and  C_16
REMARK                            x       y       z     vdW  Elec       q    Type
REMARK                         _______ _______ _______ _____ _____    ______ ____
ROOT
ATOM      1  C   UNL     1       8.070   8.538  18.047  0.00  0.00    +0.000 C 
ATOM      2  O   UNL     1       7.655   9.234  17.122  0.00  0.00    +0.000 OA
ATOM      3  N   UNL     1       8.931   8.948  19.054  0.00  0.00    +0.000 N 
ATOM      4  H   UNL     1       9.299   8.206  19.640  0.00  0.00    +0.000 HD
ENDROOT
BRANCH   3   5
ATOM      5  C   UNL     1       9.352  10.273  19.286  0.00  0.00    +0.000 A 
ATOM      6  C   UNL     1       9.381  10.836  20.566  0.00  0.00    +0.000 A 
ATOM      7  C   UNL     1       9.733  12.171  20.762  0.00  0.00    +0.000 A 
ATOM      8  C   UNL     1      10.075  12.973  19.669  0.00  0.00    +0.000 A 
ATOM      9  C   UNL     1      10.375  14.426  19.856  0.00  0.00    +0.000 C 
ATOM     10  C   UNL     1      10.100  12.389  18.401  0.00  0.00    +0.000 A 
ATOM     11  F   UNL     1      10.437  13.135  17.337  0.00  0.00    +0.000 F 
ATOM     12  C   UNL     1       9.759  11.050  18.201  0.00  0.00    +0.000 A 
ENDBRANCH   3   5
BRANCH   1  13
ATOM     13  C   UNL     1       7.687   7.060  18.101  0.00  0.00    +0.000 C 
BRANCH  13  20
ATOM     14  C   UNL     1       2.405   4.431  17.688  0.00  0.00    +0.000 C 
ATOM     15  C   UNL     1       3.806   3.877  17.678  0.00  0.00    +0.000 C 
ATOM     16  O   UNL     1       3.992   2.680  17.457  0.00  0.00    +0.000 OA
ATOM     17  N   UNL     1       4.841   4.768  17.893  0.00  0.00    +0.000 N 
ATOM     18  C   UNL     1       6.222   4.303  17.775  0.00  0.00    +0.000 C 
ATOM     19  C   UNL     1       6.983   5.137  16.724  0.00  0.00    +0.000 C 
ATOM     20  N   UNL     1       6.922   6.616  16.912  0.00  0.00    +0.000 NA
ATOM     21  C   UNL     1       5.497   7.012  17.068  0.00  0.00    +0.000 C 
ATOM     22  C   UNL     1       4.703   6.208  18.123  0.00  0.00    +0.000 C 
ENDBRANCH  13  20
ENDBRANCH   1  13
TORSDOF 3
ENDMDL
MODEL 9
REMARK VINA RESULT:      -6.6      5.302      7.083
REMARK  Name = 
REMARK  5 active torsions:
REMARK  status: ('A' for Active; 'I' for Inactive)
REMARK    1  A    between atoms: C_1  and  C_2
REMARK    2  A    between atoms: N_7  and  C_8
REMARK    3  A    between atoms: C_8  and  C_9
REMARK    4  A    between atoms: N_11  and  C_12
REMARK    5  A    between atoms: C_15  and  C_16
REMARK                            x       y       z     vdW  Elec       q    Type
REMARK                         _______ _______ _______ _____ _____    ______ ____
ROOT
ATOM      1  C   UNL     1       7.824   7.255  17.866  0.00  0.00    +0.000 C 
ATOM      2  O   UNL     1       8.233   6.880  18.963  0.00  0.00    +0.000 OA
ATOM      3  N   UNL     1       7.808   8.562  17.404  0.00  0.00    +0.000 N 
ATOM      4  H   UNL     1       7.288   8.714  16.546  0.00  0.00    +0.000 HD
ENDROOT
BRANCH   3   5
ATOM      5  C   UNL     1       8.407   9.666  18.043  0.00  0.00    +0.000 A 
ATOM      6  C   UNL     1       9.098   9.549  19.252  0.00  0.00    +0.000 A 
ATOM      7  C   UNL     1       9.620  10.667  19.901  0.00  0.00    +0.000 A 
ATOM      8  C   UNL     1       9.464  11.938  19.340  0.00  0.00    +0.000 A 
ATOM      9  C   UNL     1       9.947  13.154  20.065  0.00  0.00    +0.000 C 
ATOM     10  C   UNL     1       8.824  12.043  18.104  0.00  0.00    +0.000 A 
ATOM     11  F   UNL     1       8.673  13.250  17.538  0.00  0.00    +0.000 F 
ATOM     12  C   UNL     1       8.310  10.924  17.445  0.00  0.00    +0.000 A 
ENDBRANCH   3   5
BRANCH   1  13
ATOM     13  C   UNL     1       7.201   6.237  16.912  0.00  0.00    +0.000 C 
BRANCH  13  20
ATOM     14  C   UNL     1       1.869   4.448  18.743  0.00  0.00    +0.000 C 
ATOM     15  C   UNL     1       2.733   4.011  17.589  0.00  0.00    +0.000 C 
ATOM     16  O   UNL     1       2.299   3.204  16.767  0.00  0.00    +0.000 OA
ATOM     17  N   UNL     1       3.992   4.575  17.491  0.00  0.00    +0.000 N 
ATOM     18  C   UNL     1       4.822   4.274  16.325  0.00  0.00    +0.000 C 
ATOM     19  C   UNL     1       5.219   5.575  15.598  0.00  0.00    +0.000 C 
ATOM     20  N   UNL     1       5.845   6.624  16.455  0.00  0.00    +0.000 NA
ATOM     21  C   UNL     1       4.973   6.847  17.638  0.00  0.00    +0.000 C 
ATOM     22  C   UNL     1       4.564   5.567  18.404  0.00  0.00    +0.000 C 
ENDBRANCH  13  20
ENDBRANCH   1  13
TORSDOF 3
ENDMDL
