MODEL 1
REMARK VINA RESULT:      -8.0      0.000      0.000
REMARK  Name = 
REMARK  3 active torsions:
REMARK  status: ('A' for Active; 'I' for Inactive)
REMARK    1  A    between atoms: C_1  and  N_2
REMARK    2  A    between atoms: C_6  and  C_7
REMARK    3  A    between atoms: C_11  and  N_12
REMARK                            x       y       z     vdW  Elec       q    Type
REMARK                         _______ _______ _______ _____ _____    ______ ____
ROOT
ATOM      1  C   UNL     1      -0.031   9.342  22.685  0.00  0.00    +0.000 C 
ATOM      2  N   UNL     1       0.720   9.777  21.491  0.00  0.00    +0.000 N 
ATOM      3  C   UNL     1       1.112   8.791  20.544  0.00  0.00    +0.000 A 
ATOM      4  N   UNL     1       1.289   7.551  21.052  0.00  0.00    +0.000 NA
ATOM      5  C   UNL     1       1.955   6.671  20.264  0.00  0.00    +0.000 A 
ATOM      6  C   UNL     1       2.473   6.984  19.007  0.00  0.00    +0.000 A 
ATOM      7  N   UNL     1       2.280   8.218  18.477  0.00  0.00    +0.000 NA
ATOM      8  C   UNL     1       1.621   9.109  19.285  0.00  0.00    +0.000 A 
ATOM      9  C   UNL     1       1.534  10.516  18.789  0.00  0.00    +0.000 C 
ATOM     10  N   UNL     1       2.138  10.817  17.588  0.00  0.00    +0.000 N 
ATOM     11  N   UNL     1       0.918  11.471  19.408  0.00  0.00    +0.000 NA
ATOM     12  S   UNL     1       0.098  11.173  20.766  0.00  0.00    +0.000 S 
ATOM     13  O   UNL     1      -1.257  10.838  20.369  0.00  0.00    +0.000 OA
ATOM     14  O   UNL     1       0.325  12.249  21.706  0.00  0.00    +0.000 OA
ATOM     15  H   UNL     1       2.314  10.032  16.966  0.00  0.00    +0.000 HD
ATOM     16  H   UNL     1       1.779  11.648  17.132  0.00  0.00    +0.000 HD
ENDROOT
BRANCH   6  17
ATOM     17  C   UNL     1       3.263   6.016  18.221  0.00  0.00    +0.000 A 
ATOM     18  C   UNL     1       2.730   4.758  17.861  0.00  0.00    +0.000 A 
ATOM     19  C   UNL     1       3.436   3.861  17.055  0.00  0.00    +0.000 A 
ATOM     20  C   UNL     1       4.714   4.181  16.611  0.00  0.00    +0.000 A 
ATOM     21  C   UNL     1       5.285   5.399  16.998  0.00  0.00    +0.000 A 
ATOM     22  C   UNL     1       4.569   6.312  17.792  0.00  0.00    +0.000 A 
BRANCH  21  23
ATOM     23  N   UNL     1       6.648   5.724  16.565  0.00  0.00    +0.000 N 
ATOM     24  O   UNL     1       6.949   6.921  16.450  0.00  0.00    +0.000 OA
ATOM     25  O   UNL     1       7.421   4.782  16.338  0.00  0.00    +0.000 OA
ENDBRANCH  21  23
ENDBRANCH   6  17
TORSDOF 2
ENDMDL
MODEL 2
REMARK VINA RESULT:      -8.0      2.842      7.626
REMARK  Name = 
REMARK  3 active torsions:
REMARK  status: ('A' for Active; 'I' for Inactive)
REMARK    1  A    between atoms: C_1  and  N_2
REMARK    2  A    between atoms: C_6  and  C_7
REMARK    3  A    between atoms: C_11  and  N_12
REMARK                            x       y       z     vdW  Elec       q    Type
REMARK                         _______ _______ _______ _____ _____    ______ ____
ROOT
ATOM      1  C   UNL     1       5.320   6.067  16.416  0.00  0.00    +0.000 C 
ATOM      2  N   UNL     1       4.748   5.906  17.768  0.00  0.00    +0.000 N 
ATOM      3  C   UNL     1       3.576   6.642  18.095  0.00  0.00    +0.000 A 
ATOM      4  N   UNL     1       3.422   7.802  17.419  0.00  0.00    +0.000 NA
ATOM      5  C   UNL     1       2.506   8.669  17.917  0.00  0.00    +0.000 A 
ATOM      6  C   UNL     1       1.760   8.439  19.073  0.00  0.00    +0.000 A 
ATOM      7  N   UNL     1       1.888   7.268  19.747  0.00  0.00    +0.000 NA
ATOM      8  C   UNL     1       2.828   6.402  19.248  0.00  0.00    +0.000 A 
ATOM      9  C   UNL     1       3.098   5.176  20.060  0.00  0.00    +0.000 C 
ATOM     10  N   UNL     1       2.415   5.023  21.246  0.00  0.00    +0.000 N 
ATOM     11  N   UNL     1       3.926   4.243  19.718  0.00  0.00    +0.000 NA
ATOM     12  S   UNL     1       4.684   4.300  18.294  0.00  0.00    +0.000 S 
ATOM     13  O   UNL     1       3.834   3.609  17.342  0.00  0.00    +0.000 OA
ATOM     14  O   UNL     1       6.057   3.878  18.468  0.00  0.00    +0.000 OA
ATOM     15  H   UNL     1       1.555   5.558  21.341  0.00  0.00    +0.000 HD
ATOM     16  H   UNL     1       2.359   4.068  21.581  0.00  0.00    +0.000 HD
ENDROOT
BRANCH   6  17
ATOM     17  C   UNL     1       0.834   9.448  19.623  0.00  0.00    +0.000 A 
ATOM     18  C   UNL     1       0.175  10.372  18.781  0.00  0.00    +0.000 A 
ATOM     19  C   UNL     1      -0.759  11.285  19.276  0.00  0.00    +0.000 A 
ATOM     20  C   UNL     1      -1.041  11.325  20.636  0.00  0.00    +0.000 A 
ATOM     21  C   UNL     1      -0.362  10.455  21.498  0.00  0.00    +0.000 A 
ATOM     22  C   UNL     1       0.564   9.523  21.000  0.00  0.00    +0.000 A 
BRANCH  21  23
ATOM     23  N   UNL     1      -0.626  10.521  22.940  0.00  0.00    +0.000 N 
ATOM     24  O   UNL     1      -1.596  11.192  23.320  0.00  0.00    +0.000 OA
ATOM     25  O   UNL     1       0.138   9.903  23.695  0.00  0.00    +0.000 OA
ENDBRANCH  21  23
ENDBRANCH   6  17
TORSDOF 2
ENDMDL
MODEL 3
REMARK VINA RESULT:      -7.9      4.300      6.161
REMARK  Name = 
REMARK  3 active torsions:
REMARK  status: ('A' for Active; 'I' for Inactive)
REMARK    1  A    between atoms: C_1  and  N_2
REMARK    2  A    between atoms: C_6  and  C_7
REMARK    3  A    between atoms: C_11  and  N_12
REMARK                            x       y       z     vdW  Elec       q    Type
REMARK                         _______ _______ _______ _____ _____    ______ ____
ROOT
ATOM      1  C   UNL     1       2.432   6.861  19.894  0.00  0.00    +0.000 C 
ATOM      2  N   UNL     1       2.352   5.565  19.190  0.00  0.00    +0.000 N 
ATOM      3  C   UNL     1       3.376   5.242  18.257  0.00  0.00    +0.000 A 
ATOM      4  N   UNL     1       3.973   6.304  17.674  0.00  0.00    +0.000 NA
ATOM      5  C   UNL     1       4.716   6.043  16.569  0.00  0.00    +0.000 A 
ATOM      6  C   UNL     1       4.864   4.773  16.010  0.00  0.00    +0.000 A 
ATOM      7  N   UNL     1       4.288   3.695  16.601  0.00  0.00    +0.000 NA
ATOM      8  C   UNL     1       3.524   3.969  17.707  0.00  0.00    +0.000 A 
ATOM      9  C   UNL     1       2.756   2.823  18.282  0.00  0.00    +0.000 C 
ATOM     10  N   UNL     1       2.847   1.602  17.651  0.00  0.00    +0.000 N 
ATOM     11  N   UNL     1       2.017   2.899  19.342  0.00  0.00    +0.000 NA
ATOM     12  S   UNL     1       1.945   4.268  20.195  0.00  0.00    +0.000 S 
ATOM     13  O   UNL     1       3.000   4.195  21.189  0.00  0.00    +0.000 OA
ATOM     14  O   UNL     1       0.579   4.496  20.614  0.00  0.00    +0.000 OA
ATOM     15  H   UNL     1       3.658   1.466  17.053  0.00  0.00    +0.000 HD
ATOM     16  H   UNL     1       2.611   0.807  18.234  0.00  0.00    +0.000 HD
ENDROOT
BRANCH   6  17
ATOM     17  C   UNL     1       5.615   4.550  14.760  0.00  0.00    +0.000 A 
ATOM     18  C   UNL     1       6.863   5.173  14.535  0.00  0.00    +0.000 A 
ATOM     19  C   UNL     1       7.621   4.915  13.389  0.00  0.00    +0.000 A 
ATOM     20  C   UNL     1       7.138   4.048  12.416  0.00  0.00    +0.000 A 
ATOM     21  C   UNL     1       5.880   3.460  12.591  0.00  0.00    +0.000 A 
ATOM     22  C   UNL     1       5.124   3.703  13.751  0.00  0.00    +0.000 A 
BRANCH  21  23
ATOM     23  N   UNL     1       5.348   2.577  11.547  0.00  0.00    +0.000 N 
ATOM     24  O   UNL     1       6.023   1.588  11.227  0.00  0.00    +0.000 OA
ATOM     25  O   UNL     1       4.255   2.871  11.044  0.00  0.00    +0.000 OA
ENDBRANCH  21  23
ENDBRANCH   6  17
TORSDOF 2
ENDMDL
MODEL 4
REMARK VINA RESULT:      -7.7      2.083      2.426
REMARK  Name = 
REMARK  3 active torsions:
REMARK  status: ('A' for Active; 'I' for Inactive)
REMARK    1  A    between atoms: C_1  and  N_2
REMARK    2  A    between atoms: C_6  and  C_7
REMARK    3  A    between atoms: C_11  and  N_12
REMARK                            x       y       z     vdW  Elec       q    Type
REMARK                         _______ _______ _______ _____ _____    ______ ____
ROOT
ATOM      1  C   UNL     1      -0.113   9.836  22.882  0.00  0.00    +0.000 C 
ATOM      2  N   UNL     1       0.631  10.213  21.663  0.00  0.00    +0.000 N 
ATOM      3  C   UNL     1       0.933   9.196  20.716  0.00  0.00    +0.000 A 
ATOM      4  N   UNL     1       1.046   7.952  21.231  0.00  0.00    +0.000 NA
ATOM      5  C   UNL     1       1.632   7.025  20.434  0.00  0.00    +0.000 A 
ATOM      6  C   UNL     1       2.134   7.294  19.160  0.00  0.00    +0.000 A 
ATOM      7  N   UNL     1       2.006   8.534  18.624  0.00  0.00    +0.000 NA
ATOM      8  C   UNL     1       1.427   9.471  19.441  0.00  0.00    +0.000 A 
ATOM      9  C   UNL     1       1.415  10.878  18.933  0.00  0.00    +0.000 C 
ATOM     10  N   UNL     1       2.004  11.129  17.714  0.00  0.00    +0.000 N 
ATOM     11  N   UNL     1       0.879  11.874  19.560  0.00  0.00    +0.000 NA
ATOM     12  S   UNL     1       0.079  11.640  20.942  0.00  0.00    +0.000 S 
ATOM     13  O   UNL     1      -1.305  11.389  20.585  0.00  0.00    +0.000 OA
ATOM     14  O   UNL     1       0.399  12.707  21.865  0.00  0.00    +0.000 OA
ATOM     15  H   UNL     1       2.113  10.330  17.095  0.00  0.00    +0.000 HD
ATOM     16  H   UNL     1       1.687  11.978  17.260  0.00  0.00    +0.000 HD
ENDROOT
BRANCH   6  17
ATOM     17  C   UNL     1       2.840   6.272  18.363  0.00  0.00    +0.000 A 
ATOM     18  C   UNL     1       3.904   6.622  17.502  0.00  0.00    +0.000 A 
ATOM     19  C   UNL     1       4.630   5.659  16.797  0.00  0.00    +0.000 A 
ATOM     20  C   UNL     1       4.293   4.315  16.907  0.00  0.00    +0.000 A 
ATOM     21  C   UNL     1       3.209   3.948  17.713  0.00  0.00    +0.000 A 
ATOM     22  C   UNL     1       2.489   4.913  18.438  0.00  0.00    +0.000 A 
BRANCH  21  23
ATOM     23  N   UNL     1       2.824   2.535  17.800  0.00  0.00    +0.000 N 
ATOM     24  O   UNL     1       3.728   1.687  17.794  0.00  0.00    +0.000 OA
ATOM     25  O   UNL     1       1.616   2.270  17.872  0.00  0.00    +0.000 OA
ENDBRANCH  21  23
ENDBRANCH   6  17
TORSDOF 2
ENDMDL
MODEL 5
REMARK VINA RESULT:      -7.7      2.046      3.296
REMARK  Name = 
REMARK  3 active torsions:
REMARK  status: ('A' for Active; 'I' for Inactive)
REMARK    1  A    between atoms: C_1  and  N_2
REMARK    2  A    between atoms: C_6  and  C_7
REMARK    3  A    between atoms: C_11  and  N_12
REMARK                            x       y       z     vdW  Elec       q    Type
REMARK                         _______ _______ _______ _____ _____    ______ ____
ROOT
ATOM      1  C   UNL     1       0.571  12.450  18.676  0.00  0.00    +0.000 C 
ATOM      2  N   UNL     1       0.197  11.575  19.806  0.00  0.00    +0.000 N 
ATOM      3  C   UNL     1       0.925  10.368  19.993  0.00  0.00    +0.000 A 
ATOM      4  N   UNL     1       1.461   9.844  18.869  0.00  0.00    +0.000 NA
ATOM      5  C   UNL     1       1.883   8.558  18.949  0.00  0.00    +0.000 A 
ATOM      6  C   UNL     1       1.766   7.767  20.092  0.00  0.00    +0.000 A 
ATOM      7  N   UNL     1       1.251   8.289  21.234  0.00  0.00    +0.000 NA
ATOM      8  C   UNL     1       0.811   9.585  21.142  0.00  0.00    +0.000 A 
ATOM      9  C   UNL     1       0.100  10.131  22.339  0.00  0.00    +0.000 C 
ATOM     10  N   UNL     1      -0.084   9.294  23.418  0.00  0.00    +0.000 N 
ATOM     11  N   UNL     1      -0.346  11.342  22.432  0.00  0.00    +0.000 NA
ATOM     12  S   UNL     1      -0.075  12.409  21.252  0.00  0.00    +0.000 S 
ATOM     13  O   UNL     1       1.179  13.068  21.567  0.00  0.00    +0.000 OA
ATOM     14  O   UNL     1      -1.268  13.200  21.042  0.00  0.00    +0.000 OA
ATOM     15  H   UNL     1       0.539   8.493  23.475  0.00  0.00    +0.000 HD
ATOM     16  H   UNL     1      -0.246   9.771  24.297  0.00  0.00    +0.000 HD
ENDROOT
BRANCH   6  17
ATOM     17  C   UNL     1       2.163   6.346  20.106  0.00  0.00    +0.000 A 
ATOM     18  C   UNL     1       1.405   5.381  20.808  0.00  0.00    +0.000 A 
ATOM     19  C   UNL     1       1.725   4.022  20.771  0.00  0.00    +0.000 A 
ATOM     20  C   UNL     1       2.834   3.587  20.055  0.00  0.00    +0.000 A 
ATOM     21  C   UNL     1       3.632   4.529  19.395  0.00  0.00    +0.000 A 
ATOM     22  C   UNL     1       3.301   5.895  19.414  0.00  0.00    +0.000 A 
BRANCH  21  23
ATOM     23  N   UNL     1       4.826   4.079  18.672  0.00  0.00    +0.000 N 
ATOM     24  O   UNL     1       5.916   4.143  19.258  0.00  0.00    +0.000 OA
ATOM     25  O   UNL     1       4.677   3.663  17.514  0.00  0.00    +0.000 OA
ENDBRANCH  21  23
ENDBRANCH   6  17
TORSDOF 2
ENDMDL
MODEL 6
REMARK VINA RESULT:      -7.6      3.212      7.409
REMARK  Name = 
REMARK  3 active torsions:
REMARK  status: ('A' for Active; 'I' for Inactive)
REMARK    1  A    between atoms: C_1  and  N_2
REMARK    2  A    between atoms: C_6  and  C_7
REMARK    3  A    between atoms: C_11  and  N_12
REMARK                            x       y       z     vdW  Elec       q    Type
REMARK                         _______ _______ _______ _____ _____    ______ ____
ROOT
ATOM      1  C   UNL     1       2.335   2.243  21.032  0.00  0.00    +0.000 C 
ATOM      2  N   UNL     1       2.663   3.084  19.862  0.00  0.00    +0.000 N 
ATOM      3  C   UNL     1       2.614   4.497  20.012  0.00  0.00    +0.000 A 
ATOM      4  N   UNL     1       1.755   4.941  20.956  0.00  0.00    +0.000 NA
ATOM      5  C   UNL     1       1.449   6.261  20.914  0.00  0.00    +0.000 A 
ATOM      6  C   UNL     1       1.941   7.147  19.955  0.00  0.00    +0.000 A 
ATOM      7  N   UNL     1       2.822   6.718  19.017  0.00  0.00    +0.000 NA
ATOM      8  C   UNL     1       3.114   5.378  19.054  0.00  0.00    +0.000 A 
ATOM      9  C   UNL     1       3.959   4.852  17.938  0.00  0.00    +0.000 C 
ATOM     10  N   UNL     1       4.351   5.732  16.954  0.00  0.00    +0.000 N 
ATOM     11  N   UNL     1       4.356   3.625  17.841  0.00  0.00    +0.000 NA
ATOM     12  S   UNL     1       4.026   2.561  19.009  0.00  0.00    +0.000 S 
ATOM     13  O   UNL     1       5.128   2.623  19.952  0.00  0.00    +0.000 OA
ATOM     14  O   UNL     1       3.665   1.294  18.411  0.00  0.00    +0.000 OA
ATOM     15  H   UNL     1       4.330   6.719  17.200  0.00  0.00    +0.000 HD
ATOM     16  H   UNL     1       5.169   5.442  16.430  0.00  0.00    +0.000 HD
ENDROOT
BRANCH   6  17
ATOM     17  C   UNL     1       1.514   8.559  19.900  0.00  0.00    +0.000 A 
ATOM     18  C   UNL     1       1.570   9.293  18.693  0.00  0.00    +0.000 A 
ATOM     19  C   UNL     1       1.101  10.606  18.606  0.00  0.00    +0.000 A 
ATOM     20  C   UNL     1       0.589  11.239  19.733  0.00  0.00    +0.000 A 
ATOM     21  C   UNL     1       0.571  10.551  20.952  0.00  0.00    +0.000 A 
ATOM     22  C   UNL     1       1.025   9.223  21.038  0.00  0.00    +0.000 A 
BRANCH  21  23
ATOM     23  N   UNL     1       0.070  11.228  22.153  0.00  0.00    +0.000 N 
ATOM     24  O   UNL     1      -0.067  12.459  22.108  0.00  0.00    +0.000 OA
ATOM     25  O   UNL     1      -0.186  10.530  23.144  0.00  0.00    +0.000 OA
ENDBRANCH  21  23
ENDBRANCH   6  17
TORSDOF 2
ENDMDL
MODEL 7
REMARK VINA RESULT:      -7.5      3.476      7.804
REMARK  Name = 
REMARK  3 active torsions:
REMARK  status: ('A' for Active; 'I' for Inactive)
REMARK    1  A    between atoms: C_1  and  N_2
REMARK    2  A    between atoms: C_6  and  C_7
REMARK    3  A    between atoms: C_11  and  N_12
REMARK                            x       y       z     vdW  Elec       q    Type
REMARK                         _______ _______ _______ _____ _____    ______ ____
ROOT
ATOM      1  C   UNL     1       5.676   3.815  17.953  0.00  0.00    +0.000 C 
ATOM      2  N   UNL     1       4.748   3.829  19.103  0.00  0.00    +0.000 N 
ATOM      3  C   UNL     1       3.754   4.845  19.153  0.00  0.00    +0.000 A 
ATOM      4  N   UNL     1       4.077   5.992  18.518  0.00  0.00    +0.000 NA
ATOM      5  C   UNL     1       3.310   7.073  18.805  0.00  0.00    +0.000 A 
ATOM      6  C   UNL     1       2.254   7.061  19.717  0.00  0.00    +0.000 A 
ATOM      7  N   UNL     1       1.905   5.908  20.343  0.00  0.00    +0.000 NA
ATOM      8  C   UNL     1       2.695   4.824  20.061  0.00  0.00    +0.000 A 
ATOM      9  C   UNL     1       2.429   3.584  20.854  0.00  0.00    +0.000 C 
ATOM     10  N   UNL     1       1.443   3.632  21.815  0.00  0.00    +0.000 N 
ATOM     11  N   UNL     1       3.056   2.465  20.690  0.00  0.00    +0.000 NA
ATOM     12  S   UNL     1       4.150   2.302  19.514  0.00  0.00    +0.000 S 
ATOM     13  O   UNL     1       3.434   1.832  18.342  0.00  0.00    +0.000 OA
ATOM     14  O   UNL     1       5.279   1.549  20.014  0.00  0.00    +0.000 OA
ATOM     15  H   UNL     1       0.750   4.369  21.710  0.00  0.00    +0.000 HD
ATOM     16  H   UNL     1       1.065   2.728  22.076  0.00  0.00    +0.000 HD
ENDROOT
BRANCH   6  17
ATOM     17  C   UNL     1       1.499   8.282  20.059  0.00  0.00    +0.000 A 
ATOM     18  C   UNL     1       1.193   9.252  19.077  0.00  0.00    +0.000 A 
ATOM     19  C   UNL     1       0.417  10.377  19.369  0.00  0.00    +0.000 A 
ATOM     20  C   UNL     1      -0.051  10.584  20.661  0.00  0.00    +0.000 A 
ATOM     21  C   UNL     1       0.283   9.665  21.663  0.00  0.00    +0.000 A 
ATOM     22  C   UNL     1       1.048   8.523  21.368  0.00  0.00    +0.000 A 
BRANCH  21  23
ATOM     23  N   UNL     1      -0.174   9.901  23.036  0.00  0.00    +0.000 N 
ATOM     24  O   UNL     1      -1.280  10.438  23.194  0.00  0.00    +0.000 OA
ATOM     25  O   UNL     1       0.573   9.552  23.961  0.00  0.00    +0.000 OA
ENDBRANCH  21  23
ENDBRANCH   6  17
TORSDOF 2
ENDMDL
MODEL 8
REMARK VINA RESULT:      -7.5      2.455      3.453
REMARK  Name = 
REMARK  3 active torsions:
REMARK  status: ('A' for Active; 'I' for Inactive)
REMARK    1  A    between atoms: C_1  and  N_2
REMARK    2  A    between atoms: C_6  and  C_7
REMARK    3  A    between atoms: C_11  and  N_12
REMARK                            x       y       z     vdW  Elec       q    Type
REMARK                         _______ _______ _______ _____ _____    ______ ____
ROOT
ATOM      1  C   UNL     1      -0.526  12.211  18.675  0.00  0.00    +0.000 C 
ATOM      2  N   UNL     1      -0.199  11.143  19.643  0.00  0.00    +0.000 N 
ATOM      3  C   UNL     1       0.786  10.184  19.280  0.00  0.00    +0.000 A 
ATOM      4  N   UNL     1       0.910   9.967  17.952  0.00  0.00    +0.000 NA
ATOM      5  C   UNL     1       1.597   8.856  17.588  0.00  0.00    +0.000 A 
ATOM      6  C   UNL     1       2.139   7.941  18.491  0.00  0.00    +0.000 A 
ATOM      7  N   UNL     1       2.041   8.160  19.827  0.00  0.00    +0.000 NA
ATOM      8  C   UNL     1       1.330   9.276  20.189  0.00  0.00    +0.000 A 
ATOM      9  C   UNL     1       1.076   9.455  21.651  0.00  0.00    +0.000 C 
ATOM     10  N   UNL     1       1.541   8.485  22.511  0.00  0.00    +0.000 N 
ATOM     11  N   UNL     1       0.455  10.468  22.165  0.00  0.00    +0.000 NA
ATOM     12  S   UNL     1      -0.026  11.694  21.232  0.00  0.00    +0.000 S 
ATOM     13  O   UNL     1       1.069  12.647  21.200  0.00  0.00    +0.000 OA
ATOM     14  O   UNL     1      -1.340  12.126  21.654  0.00  0.00    +0.000 OA
ATOM     15  H   UNL     1       2.291   7.895  22.159  0.00  0.00    +0.000 HD
ATOM     16  H   UNL     1       1.657   8.792  23.470  0.00  0.00    +0.000 HD
ENDROOT
BRANCH   6  17
ATOM     17  C   UNL     1       2.807   6.703  18.046  0.00  0.00    +0.000 A 
ATOM     18  C   UNL     1       4.115   6.728  17.513  0.00  0.00    +0.000 A 
ATOM     19  C   UNL     1       4.789   5.557  17.156  0.00  0.00    +0.000 A 
ATOM     20  C   UNL     1       4.162   4.324  17.293  0.00  0.00    +0.000 A 
ATOM     21  C   UNL     1       2.847   4.277  17.770  0.00  0.00    +0.000 A 
ATOM     22  C   UNL     1       2.174   5.451  18.147  0.00  0.00    +0.000 A 
BRANCH  21  23
ATOM     23  N   UNL     1       2.168   2.981  17.878  0.00  0.00    +0.000 N 
ATOM     24  O   UNL     1       2.854   1.956  17.762  0.00  0.00    +0.000 OA
ATOM     25  O   UNL     1       0.944   2.986  18.076  0.00  0.00    +0.000 OA
ENDBRANCH  21  23
ENDBRANCH   6  17
TORSDOF 2
ENDMDL
MODEL 9
REMARK VINA RESULT:      -7.4      2.823      4.203
REMARK  Name = 
REMARK  3 active torsions:
REMARK  status: ('A' for Active; 'I' for Inactive)
REMARK    1  A    between atoms: C_1  and  N_2
REMARK    2  A    between atoms: C_6  and  C_7
REMARK    3  A    between atoms: C_11  and  N_12
REMARK                            x       y       z     vdW  Elec       q    Type
REMARK                         _______ _______ _______ _____ _____    ______ ____
ROOT
ATOM      1  C   UNL     1      -2.017  13.323  20.105  0.00  0.00    +0.000 C 
ATOM      2  N   UNL     1      -1.712  12.152  20.952  0.00  0.00    +0.000 N 
ATOM      3  C   UNL     1      -0.595  11.342  20.605  0.00  0.00    +0.000 A 
ATOM      4  N   UNL     1      -0.278  11.340  19.291  0.00  0.00    +0.000 NA
ATOM      5  C   UNL     1       0.560  10.357  18.879  0.00  0.00    +0.000 A 
ATOM      6  C   UNL     1       1.070   9.364  19.715  0.00  0.00    +0.000 A 
ATOM      7  N   UNL     1       0.778   9.370  21.041  0.00  0.00    +0.000 NA
ATOM      8  C   UNL     1      -0.084  10.356  21.448  0.00  0.00    +0.000 A 
ATOM      9  C   UNL     1      -0.543  10.290  22.869  0.00  0.00    +0.000 C 
ATOM     10  N   UNL     1      -0.097   9.243  23.644  0.00  0.00    +0.000 N 
ATOM     11  N   UNL     1      -1.325  11.159  23.423  0.00  0.00    +0.000 NA
ATOM     12  S   UNL     1      -1.803  12.469  22.610  0.00  0.00    +0.000 S 
ATOM     13  O   UNL     1      -0.817  13.502  22.868  0.00  0.00    +0.000 OA
ATOM     14  O   UNL     1      -3.199  12.724  22.895  0.00  0.00    +0.000 OA
ATOM     15  H   UNL     1       0.749   8.777  23.325  0.00  0.00    +0.000 HD
ATOM     16  H   UNL     1      -0.139   9.410  24.643  0.00  0.00    +0.000 HD
ENDROOT
BRANCH   6  17
ATOM     17  C   UNL     1       1.913   8.265  19.204  0.00  0.00    +0.000 A 
ATOM     18  C   UNL     1       2.617   8.389  17.985  0.00  0.00    +0.000 A 
ATOM     19  C   UNL     1       3.477   7.389  17.524  0.00  0.00    +0.000 A 
ATOM     20  C   UNL     1       3.634   6.216  18.253  0.00  0.00    +0.000 A 
ATOM     21  C   UNL     1       2.907   6.047  19.437  0.00  0.00    +0.000 A 
ATOM     22  C   UNL     1       2.056   7.060  19.913  0.00  0.00    +0.000 A 
BRANCH  21  23
ATOM     23  N   UNL     1       3.039   4.794  20.189  0.00  0.00    +0.000 N 
ATOM     24  O   UNL     1       3.842   3.949  19.769  0.00  0.00    +0.000 OA
ATOM     25  O   UNL     1       2.337   4.652  21.201  0.00  0.00    +0.000 OA
ENDBRANCH  21  23
ENDBRANCH   6  17
TORSDOF 2
ENDMDL
