MODEL 1
REMARK VINA RESULT:      -7.1      0.000      0.000
REMARK  Name = 
REMARK  9 active torsions:
REMARK  status: ('A' for Active; 'I' for Inactive)
REMARK    1  A    between atoms: C_1  and  O_2
REMARK    2  A    between atoms: O_2  and  C_3
REMARK    3  A    between atoms: C_8  and  N_9
REMARK    4  A    between atoms: N_9  and  C_10
REMARK    5  A    between atoms: C_10  and  N_12
REMARK    6  A    between atoms: C_14  and  C_15
REMARK    7  A    between atoms: C_20  and  O_21
REMARK    8  A    between atoms: C_23  and  C_24
REMARK    9  A    between atoms: C_27  and  O_28
REMARK                            x       y       z     vdW  Elec       q    Type
REMARK                         _______ _______ _______ _____ _____    ______ ____
ROOT
ATOM      1  N   UNL     1       0.237  10.122  20.549  0.00  0.00    +0.000 N 
ATOM      2  N   UNL     1       1.155   9.092  20.553  0.00  0.00    +0.000 NA
ATOM      3  C   UNL     1       1.460   8.852  19.309  0.00  0.00    +0.000 C 
ATOM      4  C   UNL     1       0.796   9.744  18.297  0.00  0.00    +0.000 C 
ATOM      5  C   UNL     1      -0.022  10.649  19.202  0.00  0.00    +0.000 C 
ENDROOT
BRANCH   3   6
ATOM      6  C   UNL     1       2.362   7.740  18.905  0.00  0.00    +0.000 A 
ATOM      7  C   UNL     1       3.089   7.906  17.716  0.00  0.00    +0.000 A 
ATOM      8  C   UNL     1       3.964   6.915  17.269  0.00  0.00    +0.000 A 
ATOM      9  C   UNL     1       4.121   5.744  18.005  0.00  0.00    +0.000 A 
ATOM     10  C   UNL     1       3.413   5.567  19.193  0.00  0.00    +0.000 A 
ATOM     11  C   UNL     1       2.539   6.562  19.645  0.00  0.00    +0.000 A 
BRANCH  11  12
ATOM     12  O   UNL     1       1.871   6.352  20.818  0.00  0.00    +0.000 OA
ATOM     13  H   UNL     1       1.941   7.142  21.378  0.00  0.00    +0.000 HD
ENDBRANCH  11  12
ENDBRANCH   3   6
BRANCH   5  14
ATOM     14  C   UNL     1       0.407  12.098  19.000  0.00  0.00    +0.000 A 
ATOM     15  C   UNL     1       1.702  12.490  19.385  0.00  0.00    +0.000 A 
ATOM     16  C   UNL     1       2.087  13.833  19.345  0.00  0.00    +0.000 A 
ATOM     17  C   UNL     1       1.179  14.794  18.916  0.00  0.00    +0.000 A 
ATOM     18  C   UNL     1      -0.097  14.430  18.508  0.00  0.00    +0.000 A 
ATOM     19  C   UNL     1      -0.485  13.086  18.551  0.00  0.00    +0.000 A 
BRANCH  17  20
ATOM     20  O   UNL     1       1.501  16.119  18.903  0.00  0.00    +0.000 OA
ATOM     21  H   UNL     1       1.023  16.546  18.172  0.00  0.00    +0.000 HD
ENDBRANCH  17  20
ENDBRANCH   5  14
BRANCH   1  22
ATOM     22  C   UNL     1      -0.470  10.430  21.714  0.00  0.00    +0.000 C 
ATOM     23  S   UNL     1      -0.227   9.614  23.171  0.00  0.00    +0.000 S 
BRANCH  22  24
ATOM     24  N   UNL     1      -1.334  11.509  21.527  0.00  0.00    +0.000 N 
ATOM     25  H   UNL     1      -1.978  11.374  20.756  0.00  0.00    +0.000 HD
BRANCH  24  31
ATOM     26  C   UNL     1      -2.460  12.848  23.285  0.00  0.00    +0.000 A 
ATOM     27  C   UNL     1      -2.480  14.033  24.045  0.00  0.00    +0.000 A 
ATOM     28  C   UNL     1      -1.511  15.023  23.876  0.00  0.00    +0.000 A 
ATOM     29  C   UNL     1      -0.484  14.826  22.969  0.00  0.00    +0.000 A 
ATOM     30  C   UNL     1      -0.455  13.660  22.206  0.00  0.00    +0.000 A 
ATOM     31  C   UNL     1      -1.457  12.673  22.317  0.00  0.00    +0.000 A 
BRANCH  26  33
ATOM     32  C   UNL     1      -4.382  12.406  24.632  0.00  0.00    +0.000 C 
ATOM     33  O   UNL     1      -3.461  11.982  23.640  0.00  0.00    +0.000 OA
ENDBRANCH  26  33
ENDBRANCH  24  31
ENDBRANCH  22  24
ENDBRANCH   1  22
TORSDOF 8
ENDMDL
MODEL 2
REMARK VINA RESULT:      -7.1      4.785      8.735
REMARK  Name = 
REMARK  9 active torsions:
REMARK  status: ('A' for Active; 'I' for Inactive)
REMARK    1  A    between atoms: C_1  and  O_2
REMARK    2  A    between atoms: O_2  and  C_3
REMARK    3  A    between atoms: C_8  and  N_9
REMARK    4  A    between atoms: N_9  and  C_10
REMARK    5  A    between atoms: C_10  and  N_12
REMARK    6  A    between atoms: C_14  and  C_15
REMARK    7  A    between atoms: C_20  and  O_21
REMARK    8  A    between atoms: C_23  and  C_24
REMARK    9  A    between atoms: C_27  and  O_28
REMARK                            x       y       z     vdW  Elec       q    Type
REMARK                         _______ _______ _______ _____ _____    ______ ____
ROOT
ATOM      1  N   UNL     1       5.000   5.787  16.690  0.00  0.00    +0.000 N 
ATOM      2  N   UNL     1       5.215   5.713  15.329  0.00  0.00    +0.000 NA
ATOM      3  C   UNL     1       5.619   4.500  15.075  0.00  0.00    +0.000 C 
ATOM      4  C   UNL     1       5.686   3.579  16.261  0.00  0.00    +0.000 C 
ATOM      5  C   UNL     1       5.206   4.500  17.370  0.00  0.00    +0.000 C 
ENDROOT
BRANCH   3   6
ATOM      6  C   UNL     1       6.039   4.063  13.716  0.00  0.00    +0.000 A 
ATOM      7  C   UNL     1       5.227   3.117  13.069  0.00  0.00    +0.000 A 
ATOM      8  C   UNL     1       5.544   2.660  11.790  0.00  0.00    +0.000 A 
ATOM      9  C   UNL     1       6.677   3.142  11.141  0.00  0.00    +0.000 A 
ATOM     10  C   UNL     1       7.489   4.089  11.765  0.00  0.00    +0.000 A 
ATOM     11  C   UNL     1       7.169   4.552  13.046  0.00  0.00    +0.000 A 
BRANCH  11  12
ATOM     12  O   UNL     1       7.987   5.485  13.619  0.00  0.00    +0.000 OA
ATOM     13  H   UNL     1       8.903   5.334  13.334  0.00  0.00    +0.000 HD
ENDBRANCH  11  12
ENDBRANCH   3   6
BRANCH   5  14
ATOM     14  C   UNL     1       3.950   3.919  18.010  0.00  0.00    +0.000 A 
ATOM     15  C   UNL     1       2.740   3.945  17.294  0.00  0.00    +0.000 A 
ATOM     16  C   UNL     1       1.541   3.550  17.896  0.00  0.00    +0.000 A 
ATOM     17  C   UNL     1       1.547   3.123  19.218  0.00  0.00    +0.000 A 
ATOM     18  C   UNL     1       2.732   3.065  19.939  0.00  0.00    +0.000 A 
ATOM     19  C   UNL     1       3.932   3.464  19.339  0.00  0.00    +0.000 A 
BRANCH  17  20
ATOM     20  O   UNL     1       0.393   2.770  19.855  0.00  0.00    +0.000 OA
ATOM     21  H   UNL     1      -0.360   3.081  19.324  0.00  0.00    +0.000 HD
ENDBRANCH  17  20
ENDBRANCH   5  14
BRANCH   1  22
ATOM     22  C   UNL     1       4.809   7.030  17.299  0.00  0.00    +0.000 C 
ATOM     23  S   UNL     1       6.089   7.977  17.857  0.00  0.00    +0.000 S 
BRANCH  22  24
ATOM     24  N   UNL     1       3.462   7.391  17.329  0.00  0.00    +0.000 N 
ATOM     25  H   UNL     1       3.001   7.280  16.433  0.00  0.00    +0.000 HD
BRANCH  24  31
ATOM     26  C   UNL     1       2.015   9.017  18.517  0.00  0.00    +0.000 A 
ATOM     27  C   UNL     1       1.247   9.310  19.661  0.00  0.00    +0.000 A 
ATOM     28  C   UNL     1       1.126   8.397  20.709  0.00  0.00    +0.000 A 
ATOM     29  C   UNL     1       1.739   7.160  20.613  0.00  0.00    +0.000 A 
ATOM     30  C   UNL     1       2.507   6.859  19.489  0.00  0.00    +0.000 A 
ATOM     31  C   UNL     1       2.693   7.789  18.444  0.00  0.00    +0.000 A 
BRANCH  26  33
ATOM     32  C   UNL     1       2.127  11.353  18.031  0.00  0.00    +0.000 C 
ATOM     33  O   UNL     1       1.961  10.017  17.582  0.00  0.00    +0.000 OA
ENDBRANCH  26  33
ENDBRANCH  24  31
ENDBRANCH  22  24
ENDBRANCH   1  22
TORSDOF 8
ENDMDL
MODEL 3
REMARK VINA RESULT:      -7.1      3.170      5.258
REMARK  Name = 
REMARK  9 active torsions:
REMARK  status: ('A' for Active; 'I' for Inactive)
REMARK    1  A    between atoms: C_1  and  O_2
REMARK    2  A    between atoms: O_2  and  C_3
REMARK    3  A    between atoms: C_8  and  N_9
REMARK    4  A    between atoms: N_9  and  C_10
REMARK    5  A    between atoms: C_10  and  N_12
REMARK    6  A    between atoms: C_14  and  C_15
REMARK    7  A    between atoms: C_20  and  O_21
REMARK    8  A    between atoms: C_23  and  C_24
REMARK    9  A    between atoms: C_27  and  O_28
REMARK                            x       y       z     vdW  Elec       q    Type
REMARK                         _______ _______ _______ _____ _____    ______ ____
ROOT
ATOM      1  N   UNL     1       0.008  11.900  19.416  0.00  0.00    +0.000 N 
ATOM      2  N   UNL     1       0.330  10.671  18.879  0.00  0.00    +0.000 NA
ATOM      3  C   UNL     1       0.961  10.007  19.807  0.00  0.00    +0.000 C 
ATOM      4  C   UNL     1       1.105  10.716  21.125  0.00  0.00    +0.000 C 
ATOM      5  C   UNL     1       0.390  12.023  20.830  0.00  0.00    +0.000 C 
ENDROOT
BRANCH   3   6
ATOM      6  C   UNL     1       1.549   8.661  19.570  0.00  0.00    +0.000 A 
ATOM      7  C   UNL     1       1.472   7.735  20.623  0.00  0.00    +0.000 A 
ATOM      8  C   UNL     1       1.991   6.448  20.482  0.00  0.00    +0.000 A 
ATOM      9  C   UNL     1       2.594   6.070  19.286  0.00  0.00    +0.000 A 
ATOM     10  C   UNL     1       2.671   6.974  18.227  0.00  0.00    +0.000 A 
ATOM     11  C   UNL     1       2.147   8.264  18.366  0.00  0.00    +0.000 A 
BRANCH  11  12
ATOM     12  O   UNL     1       2.236   9.116  17.301  0.00  0.00    +0.000 OA
ATOM     13  H   UNL     1       3.138   9.472  17.244  0.00  0.00    +0.000 HD
ENDBRANCH  11  12
ENDBRANCH   3   6
BRANCH   5  14
ATOM     14  C   UNL     1      -0.785  12.191  21.787  0.00  0.00    +0.000 A 
ATOM     15  C   UNL     1      -1.096  11.150  22.680  0.00  0.00    +0.000 A 
ATOM     16  C   UNL     1      -2.245  11.206  23.475  0.00  0.00    +0.000 A 
ATOM     17  C   UNL     1      -3.088  12.307  23.384  0.00  0.00    +0.000 A 
ATOM     18  C   UNL     1      -2.790  13.358  22.527  0.00  0.00    +0.000 A 
ATOM     19  C   UNL     1      -1.643  13.302  21.728  0.00  0.00    +0.000 A 
BRANCH  17  20
ATOM     20  O   UNL     1      -4.241  12.381  24.110  0.00  0.00    +0.000 OA
ATOM     21  H   UNL     1      -4.331  13.285  24.454  0.00  0.00    +0.000 HD
ENDBRANCH  17  20
ENDBRANCH   5  14
BRANCH   1  22
ATOM     22  C   UNL     1      -0.445  12.927  18.583  0.00  0.00    +0.000 C 
ATOM     23  S   UNL     1       0.020  14.536  18.785  0.00  0.00    +0.000 S 
BRANCH  22  24
ATOM     24  N   UNL     1      -1.262  12.444  17.561  0.00  0.00    +0.000 N 
ATOM     25  H   UNL     1      -0.804  12.436  16.656  0.00  0.00    +0.000 HD
BRANCH  24  31
ATOM     26  C   UNL     1      -3.097  10.984  16.753  0.00  0.00    +0.000 A 
ATOM     27  C   UNL     1      -4.396  10.482  16.964  0.00  0.00    +0.000 A 
ATOM     28  C   UNL     1      -5.151  10.862  18.074  0.00  0.00    +0.000 A 
ATOM     29  C   UNL     1      -4.605  11.720  19.013  0.00  0.00    +0.000 A 
ATOM     30  C   UNL     1      -3.322  12.229  18.813  0.00  0.00    +0.000 A 
ATOM     31  C   UNL     1      -2.563  11.907  17.668  0.00  0.00    +0.000 A 
BRANCH  26  33
ATOM     32  C   UNL     1      -3.321  10.204  14.508  0.00  0.00    +0.000 C 
ATOM     33  O   UNL     1      -2.504  10.448  15.641  0.00  0.00    +0.000 OA
ENDBRANCH  26  33
ENDBRANCH  24  31
ENDBRANCH  22  24
ENDBRANCH   1  22
TORSDOF 8
ENDMDL
MODEL 4
REMARK VINA RESULT:      -7.0      0.930      1.708
REMARK  Name = 
REMARK  9 active torsions:
REMARK  status: ('A' for Active; 'I' for Inactive)
REMARK    1  A    between atoms: C_1  and  O_2
REMARK    2  A    between atoms: O_2  and  C_3
REMARK    3  A    between atoms: C_8  and  N_9
REMARK    4  A    between atoms: N_9  and  C_10
REMARK    5  A    between atoms: C_10  and  N_12
REMARK    6  A    between atoms: C_14  and  C_15
REMARK    7  A    between atoms: C_20  and  O_21
REMARK    8  A    between atoms: C_23  and  C_24
REMARK    9  A    between atoms: C_27  and  O_28
REMARK                            x       y       z     vdW  Elec       q    Type
REMARK                         _______ _______ _______ _____ _____    ______ ____
ROOT
ATOM      1  N   UNL     1       0.326  10.025  20.544  0.00  0.00    +0.000 N 
ATOM      2  N   UNL     1       1.255   9.004  20.540  0.00  0.00    +0.000 NA
ATOM      3  C   UNL     1       1.534   8.752  19.292  0.00  0.00    +0.000 C 
ATOM      4  C   UNL     1       0.838   9.625  18.285  0.00  0.00    +0.000 C 
ATOM      5  C   UNL     1       0.031  10.533  19.197  0.00  0.00    +0.000 C 
ENDROOT
BRANCH   3   6
ATOM      6  C   UNL     1       2.437   7.644  18.881  0.00  0.00    +0.000 A 
ATOM      7  C   UNL     1       3.169   7.821  17.696  0.00  0.00    +0.000 A 
ATOM      8  C   UNL     1       4.045   6.834  17.243  0.00  0.00    +0.000 A 
ATOM      9  C   UNL     1       4.199   5.657  17.968  0.00  0.00    +0.000 A 
ATOM     10  C   UNL     1       3.487   5.468  19.152  0.00  0.00    +0.000 A 
ATOM     11  C   UNL     1       2.611   6.459  19.610  0.00  0.00    +0.000 A 
BRANCH  11  12
ATOM     12  O   UNL     1       1.939   6.238  20.778  0.00  0.00    +0.000 OA
ATOM     13  H   UNL     1       2.186   5.368  21.137  0.00  0.00    +0.000 HD
ENDBRANCH  11  12
ENDBRANCH   3   6
BRANCH   5  14
ATOM     14  C   UNL     1       0.442  11.984  18.968  0.00  0.00    +0.000 A 
ATOM     15  C   UNL     1       1.785  12.354  19.157  0.00  0.00    +0.000 A 
ATOM     16  C   UNL     1       2.176  13.695  19.092  0.00  0.00    +0.000 A 
ATOM     17  C   UNL     1       1.223  14.674  18.834  0.00  0.00    +0.000 A 
ATOM     18  C   UNL     1      -0.105  14.331  18.621  0.00  0.00    +0.000 A 
ATOM     19  C   UNL     1      -0.498  12.990  18.689  0.00  0.00    +0.000 A 
BRANCH  17  20
ATOM     20  O   UNL     1       1.555  15.997  18.805  0.00  0.00    +0.000 OA
ATOM     21  H   UNL     1       0.759  16.519  19.001  0.00  0.00    +0.000 HD
ENDBRANCH  17  20
ENDBRANCH   5  14
BRANCH   1  22
ATOM     22  C   UNL     1      -0.357  10.341  21.722  0.00  0.00    +0.000 C 
ATOM     23  S   UNL     1      -0.071   9.546  23.182  0.00  0.00    +0.000 S 
BRANCH  22  24
ATOM     24  N   UNL     1      -1.237  11.407  21.540  0.00  0.00    +0.000 N 
ATOM     25  H   UNL     1      -1.674  11.412  20.626  0.00  0.00    +0.000 HD
BRANCH  24  31
ATOM     26  C   UNL     1      -0.849  13.501  22.813  0.00  0.00    +0.000 A 
ATOM     27  C   UNL     1      -1.343  14.433  23.746  0.00  0.00    +0.000 A 
ATOM     28  C   UNL     1      -2.601  14.280  24.330  0.00  0.00    +0.000 A 
ATOM     29  C   UNL     1      -3.402  13.213  23.961  0.00  0.00    +0.000 A 
ATOM     30  C   UNL     1      -2.923  12.280  23.043  0.00  0.00    +0.000 A 
ATOM     31  C   UNL     1      -1.631  12.381  22.485  0.00  0.00    +0.000 A 
BRANCH  26  33
ATOM     32  C   UNL     1       0.731  15.231  22.353  0.00  0.00    +0.000 C 
ATOM     33  O   UNL     1       0.376  13.858  22.316  0.00  0.00    +0.000 OA
ENDBRANCH  26  33
ENDBRANCH  24  31
ENDBRANCH  22  24
ENDBRANCH   1  22
TORSDOF 8
ENDMDL
MODEL 5
REMARK VINA RESULT:      -6.9      3.234      6.711
REMARK  Name = 
REMARK  9 active torsions:
REMARK  status: ('A' for Active; 'I' for Inactive)
REMARK    1  A    between atoms: C_1  and  O_2
REMARK    2  A    between atoms: O_2  and  C_3
REMARK    3  A    between atoms: C_8  and  N_9
REMARK    4  A    between atoms: N_9  and  C_10
REMARK    5  A    between atoms: C_10  and  N_12
REMARK    6  A    between atoms: C_14  and  C_15
REMARK    7  A    between atoms: C_20  and  O_21
REMARK    8  A    between atoms: C_23  and  C_24
REMARK    9  A    between atoms: C_27  and  O_28
REMARK                            x       y       z     vdW  Elec       q    Type
REMARK                         _______ _______ _______ _____ _____    ______ ____
ROOT
ATOM      1  N   UNL     1      -1.231  11.950  18.477  0.00  0.00    +0.000 N 
ATOM      2  N   UNL     1      -0.657  13.124  18.034  0.00  0.00    +0.000 NA
ATOM      3  C   UNL     1       0.073  13.582  19.013  0.00  0.00    +0.000 C 
ATOM      4  C   UNL     1       0.109  12.724  20.247  0.00  0.00    +0.000 C 
ATOM      5  C   UNL     1      -0.781  11.569  19.824  0.00  0.00    +0.000 C 
ENDROOT
BRANCH   3   6
ATOM      6  C   UNL     1       0.782  14.887  18.942  0.00  0.00    +0.000 A 
ATOM      7  C   UNL     1       2.184  14.852  18.893  0.00  0.00    +0.000 A 
ATOM      8  C   UNL     1       2.926  16.031  18.817  0.00  0.00    +0.000 A 
ATOM      9  C   UNL     1       2.275  17.261  18.789  0.00  0.00    +0.000 A 
ATOM     10  C   UNL     1       0.882  17.314  18.827  0.00  0.00    +0.000 A 
ATOM     11  C   UNL     1       0.137  16.132  18.899  0.00  0.00    +0.000 A 
BRANCH  11  12
ATOM     12  O   UNL     1      -1.226  16.228  18.925  0.00  0.00    +0.000 OA
ATOM     13  H   UNL     1      -1.511  16.975  18.374  0.00  0.00    +0.000 HD
ENDBRANCH  11  12
ENDBRANCH   3   6
BRANCH   5  14
ATOM     14  C   UNL     1       0.010  10.266  19.878  0.00  0.00    +0.000 A 
ATOM     15  C   UNL     1      -0.087   9.452  21.020  0.00  0.00    +0.000 A 
ATOM     16  C   UNL     1       0.726   8.324  21.168  0.00  0.00    +0.000 A 
ATOM     17  C   UNL     1       1.638   8.001  20.171  0.00  0.00    +0.000 A 
ATOM     18  C   UNL     1       1.736   8.776  19.023  0.00  0.00    +0.000 A 
ATOM     19  C   UNL     1       0.927   9.908  18.875  0.00  0.00    +0.000 A 
BRANCH  17  20
ATOM     20  O   UNL     1       2.479   6.934  20.296  0.00  0.00    +0.000 OA
ATOM     21  H   UNL     1       2.218   6.258  19.647  0.00  0.00    +0.000 HD
ENDBRANCH  17  20
ENDBRANCH   5  14
BRANCH   1  22
ATOM     22  C   UNL     1      -2.266  11.361  17.747  0.00  0.00    +0.000 C 
ATOM     23  S   UNL     1      -2.091   9.888  16.943  0.00  0.00    +0.000 S 
BRANCH  22  24
ATOM     24  N   UNL     1      -3.443  12.107  17.820  0.00  0.00    +0.000 N 
ATOM     25  H   UNL     1      -3.444  12.910  17.201  0.00  0.00    +0.000 HD
BRANCH  24  31
ATOM     26  C   UNL     1      -4.819  12.278  19.876  0.00  0.00    +0.000 A 
ATOM     27  C   UNL     1      -6.029  11.965  20.525  0.00  0.00    +0.000 A 
ATOM     28  C   UNL     1      -7.032  11.238  19.883  0.00  0.00    +0.000 A 
ATOM     29  C   UNL     1      -6.856  10.843  18.568  0.00  0.00    +0.000 A 
ATOM     30  C   UNL     1      -5.659  11.140  17.916  0.00  0.00    +0.000 A 
ATOM     31  C   UNL     1      -4.608  11.822  18.565  0.00  0.00    +0.000 A 
BRANCH  26  33
ATOM     32  C   UNL     1      -4.048  12.860  22.060  0.00  0.00    +0.000 C 
ATOM     33  O   UNL     1      -3.992  13.043  20.655  0.00  0.00    +0.000 OA
ENDBRANCH  26  33
ENDBRANCH  24  31
ENDBRANCH  22  24
ENDBRANCH   1  22
TORSDOF 8
ENDMDL
MODEL 6
REMARK VINA RESULT:      -6.8      2.931      6.839
REMARK  Name = 
REMARK  9 active torsions:
REMARK  status: ('A' for Active; 'I' for Inactive)
REMARK    1  A    between atoms: C_1  and  O_2
REMARK    2  A    between atoms: O_2  and  C_3
REMARK    3  A    between atoms: C_8  and  N_9
REMARK    4  A    between atoms: N_9  and  C_10
REMARK    5  A    between atoms: C_10  and  N_12
REMARK    6  A    between atoms: C_14  and  C_15
REMARK    7  A    between atoms: C_20  and  O_21
REMARK    8  A    between atoms: C_23  and  C_24
REMARK    9  A    between atoms: C_27  and  O_28
REMARK                            x       y       z     vdW  Elec       q    Type
REMARK                         _______ _______ _______ _____ _____    ______ ____
ROOT
ATOM      1  N   UNL     1      -0.830  12.882  20.294  0.00  0.00    +0.000 N 
ATOM      2  N   UNL     1      -0.444  13.816  19.356  0.00  0.00    +0.000 NA
ATOM      3  C   UNL     1       0.829  14.031  19.537  0.00  0.00    +0.000 C 
ATOM      4  C   UNL     1       1.474  13.214  20.622  0.00  0.00    +0.000 C 
ATOM      5  C   UNL     1       0.293  12.389  21.104  0.00  0.00    +0.000 C 
ENDROOT
BRANCH   3   6
ATOM      6  C   UNL     1       1.587  15.052  18.765  0.00  0.00    +0.000 A 
ATOM      7  C   UNL     1       2.790  14.640  18.170  0.00  0.00    +0.000 A 
ATOM      8  C   UNL     1       3.559  15.532  17.422  0.00  0.00    +0.000 A 
ATOM      9  C   UNL     1       3.136  16.847  17.259  0.00  0.00    +0.000 A 
ATOM     10  C   UNL     1       1.939  17.271  17.836  0.00  0.00    +0.000 A 
ATOM     11  C   UNL     1       1.164  16.376  18.583  0.00  0.00    +0.000 A 
BRANCH  11  12
ATOM     12  O   UNL     1      -0.006  16.829  19.124  0.00  0.00    +0.000 OA
ATOM     13  H   UNL     1       0.031  16.750  20.092  0.00  0.00    +0.000 HD
ENDBRANCH  11  12
ENDBRANCH   3   6
BRANCH   5  14
ATOM     14  C   UNL     1       0.597  10.906  20.923  0.00  0.00    +0.000 A 
ATOM     15  C   UNL     1       0.583  10.060  22.046  0.00  0.00    +0.000 A 
ATOM     16  C   UNL     1       0.990   8.726  21.946  0.00  0.00    +0.000 A 
ATOM     17  C   UNL     1       1.410   8.229  20.718  0.00  0.00    +0.000 A 
ATOM     18  C   UNL     1       1.410   9.037  19.590  0.00  0.00    +0.000 A 
ATOM     19  C   UNL     1       1.008  10.373  19.689  0.00  0.00    +0.000 A 
BRANCH  17  20
ATOM     20  O   UNL     1       1.855   6.946  20.587  0.00  0.00    +0.000 OA
ATOM     21  H   UNL     1       2.535   6.785  21.262  0.00  0.00    +0.000 HD
ENDBRANCH  17  20
ENDBRANCH   5  14
BRANCH   1  22
ATOM     22  C   UNL     1      -2.188  12.638  20.518  0.00  0.00    +0.000 C 
ATOM     23  S   UNL     1      -2.826  12.387  22.060  0.00  0.00    +0.000 S 
BRANCH  22  24
ATOM     24  N   UNL     1      -2.926  12.688  19.335  0.00  0.00    +0.000 N 
ATOM     25  H   UNL     1      -3.383  13.581  19.189  0.00  0.00    +0.000 HD
BRANCH  24  31
ATOM     26  C   UNL     1      -4.130  11.576  17.475  0.00  0.00    +0.000 A 
ATOM     27  C   UNL     1      -4.118  10.579  16.479  0.00  0.00    +0.000 A 
ATOM     28  C   UNL     1      -3.019   9.736  16.307  0.00  0.00    +0.000 A 
ATOM     29  C   UNL     1      -1.899   9.901  17.103  0.00  0.00    +0.000 A 
ATOM     30  C   UNL     1      -1.900  10.879  18.096  0.00  0.00    +0.000 A 
ATOM     31  C   UNL     1      -3.022  11.704  18.328  0.00  0.00    +0.000 A 
BRANCH  26  33
ATOM     32  C   UNL     1      -6.480  11.724  17.874  0.00  0.00    +0.000 C 
ATOM     33  O   UNL     1      -5.272  12.331  17.444  0.00  0.00    +0.000 OA
ENDBRANCH  26  33
ENDBRANCH  24  31
ENDBRANCH  22  24
ENDBRANCH   1  22
TORSDOF 8
ENDMDL
MODEL 7
REMARK VINA RESULT:      -6.7      3.698      6.515
REMARK  Name = 
REMARK  9 active torsions:
REMARK  status: ('A' for Active; 'I' for Inactive)
REMARK    1  A    between atoms: C_1  and  O_2
REMARK    2  A    between atoms: O_2  and  C_3
REMARK    3  A    between atoms: C_8  and  N_9
REMARK    4  A    between atoms: N_9  and  C_10
REMARK    5  A    between atoms: C_10  and  N_12
REMARK    6  A    between atoms: C_14  and  C_15
REMARK    7  A    between atoms: C_20  and  O_21
REMARK    8  A    between atoms: C_23  and  C_24
REMARK    9  A    between atoms: C_27  and  O_28
REMARK                            x       y       z     vdW  Elec       q    Type
REMARK                         _______ _______ _______ _____ _____    ______ ____
ROOT
ATOM      1  N   UNL     1      -1.335  12.435  18.665  0.00  0.00    +0.000 N 
ATOM      2  N   UNL     1      -0.327  13.071  17.968  0.00  0.00    +0.000 NA
ATOM      3  C   UNL     1       0.193  13.951  18.776  0.00  0.00    +0.000 C 
ATOM      4  C   UNL     1      -0.392  13.984  20.161  0.00  0.00    +0.000 C 
ATOM      5  C   UNL     1      -1.431  12.880  20.062  0.00  0.00    +0.000 C 
ENDROOT
BRANCH   3   6
ATOM      6  C   UNL     1       1.256  14.901  18.350  0.00  0.00    +0.000 A 
ATOM      7  C   UNL     1       0.968  16.271  18.450  0.00  0.00    +0.000 A 
ATOM      8  C   UNL     1       1.913  17.229  18.080  0.00  0.00    +0.000 A 
ATOM      9  C   UNL     1       3.157  16.828  17.603  0.00  0.00    +0.000 A 
ATOM     10  C   UNL     1       3.463  15.471  17.505  0.00  0.00    +0.000 A 
ATOM     11  C   UNL     1       2.518  14.510  17.881  0.00  0.00    +0.000 A 
BRANCH  11  12
ATOM     12  O   UNL     1       2.861  13.191  17.777  0.00  0.00    +0.000 OA
ATOM     13  H   UNL     1       2.347  12.776  17.065  0.00  0.00    +0.000 HD
ENDBRANCH  11  12
ENDBRANCH   3   6
BRANCH   5  14
ATOM     14  C   UNL     1      -1.127  11.797  21.091  0.00  0.00    +0.000 A 
ATOM     15  C   UNL     1      -1.804  11.811  22.323  0.00  0.00    +0.000 A 
ATOM     16  C   UNL     1      -1.456  10.921  23.344  0.00  0.00    +0.000 A 
ATOM     17  C   UNL     1      -0.429  10.008  23.136  0.00  0.00    +0.000 A 
ATOM     18  C   UNL     1       0.239   9.959  21.920  0.00  0.00    +0.000 A 
ATOM     19  C   UNL     1      -0.106  10.851  20.899  0.00  0.00    +0.000 A 
BRANCH  17  20
ATOM     20  O   UNL     1      -0.030   9.152  24.120  0.00  0.00    +0.000 OA
ATOM     21  H   UNL     1       0.775   8.696  23.825  0.00  0.00    +0.000 HD
ENDBRANCH  17  20
ENDBRANCH   5  14
BRANCH   1  22
ATOM     22  C   UNL     1      -2.244  11.619  17.986  0.00  0.00    +0.000 C 
ATOM     23  S   UNL     1      -1.833  10.096  17.389  0.00  0.00    +0.000 S 
BRANCH  22  24
ATOM     24  N   UNL     1      -3.512  12.197  17.923  0.00  0.00    +0.000 N 
ATOM     25  H   UNL     1      -3.588  12.915  17.212  0.00  0.00    +0.000 HD
BRANCH  24  31
ATOM     26  C   UNL     1      -5.169  12.591  19.726  0.00  0.00    +0.000 A 
ATOM     27  C   UNL     1      -6.347  12.167  20.371  0.00  0.00    +0.000 A 
ATOM     28  C   UNL     1      -7.040  11.033  19.946  0.00  0.00    +0.000 A 
ATOM     29  C   UNL     1      -6.587  10.325  18.847  0.00  0.00    +0.000 A 
ATOM     30  C   UNL     1      -5.417  10.730  18.204  0.00  0.00    +0.000 A 
ATOM     31  C   UNL     1      -4.668  11.839  18.651  0.00  0.00    +0.000 A 
BRANCH  26  33
ATOM     32  C   UNL     1      -4.763  13.931  21.661  0.00  0.00    +0.000 C 
ATOM     33  O   UNL     1      -4.674  13.753  20.256  0.00  0.00    +0.000 OA
ENDBRANCH  26  33
ENDBRANCH  24  31
ENDBRANCH  22  24
ENDBRANCH   1  22
TORSDOF 8
ENDMDL
MODEL 8
REMARK VINA RESULT:      -6.7      2.774      6.983
REMARK  Name = 
REMARK  9 active torsions:
REMARK  status: ('A' for Active; 'I' for Inactive)
REMARK    1  A    between atoms: C_1  and  O_2
REMARK    2  A    between atoms: O_2  and  C_3
REMARK    3  A    between atoms: C_8  and  N_9
REMARK    4  A    between atoms: N_9  and  C_10
REMARK    5  A    between atoms: C_10  and  N_12
REMARK    6  A    between atoms: C_14  and  C_15
REMARK    7  A    between atoms: C_20  and  O_21
REMARK    8  A    between atoms: C_23  and  C_24
REMARK    9  A    between atoms: C_27  and  O_28
REMARK                            x       y       z     vdW  Elec       q    Type
REMARK                         _______ _______ _______ _____ _____    ______ ____
ROOT
ATOM      1  N   UNL     1       0.157  10.415  19.846  0.00  0.00    +0.000 N 
ATOM      2  N   UNL     1      -0.948  10.241  19.038  0.00  0.00    +0.000 NA
ATOM      3  C   UNL     1      -1.618  11.358  19.068  0.00  0.00    +0.000 C 
ATOM      4  C   UNL     1      -1.005  12.458  19.889  0.00  0.00    +0.000 C 
ATOM      5  C   UNL     1       0.259  11.779  20.386  0.00  0.00    +0.000 C 
ENDROOT
BRANCH   3   6
ATOM      6  C   UNL     1      -2.928  11.525  18.383  0.00  0.00    +0.000 A 
ATOM      7  C   UNL     1      -3.988  12.038  19.148  0.00  0.00    +0.000 A 
ATOM      8  C   UNL     1      -5.248  12.234  18.581  0.00  0.00    +0.000 A 
ATOM      9  C   UNL     1      -5.464  11.919  17.243  0.00  0.00    +0.000 A 
ATOM     10  C   UNL     1      -4.420  11.416  16.467  0.00  0.00    +0.000 A 
ATOM     11  C   UNL     1      -3.155  11.224  17.033  0.00  0.00    +0.000 A 
BRANCH  11  12
ATOM     12  O   UNL     1      -2.158  10.738  16.236  0.00  0.00    +0.000 OA
ATOM     13  H   UNL     1      -2.128  11.243  15.406  0.00  0.00    +0.000 HD
ENDBRANCH  11  12
ENDBRANCH   3   6
BRANCH   5  14
ATOM     14  C   UNL     1       1.480  12.556  19.908  0.00  0.00    +0.000 A 
ATOM     15  C   UNL     1       2.135  13.423  20.801  0.00  0.00    +0.000 A 
ATOM     16  C   UNL     1       3.170  14.255  20.365  0.00  0.00    +0.000 A 
ATOM     17  C   UNL     1       3.560  14.222  19.031  0.00  0.00    +0.000 A 
ATOM     18  C   UNL     1       2.945  13.358  18.136  0.00  0.00    +0.000 A 
ATOM     19  C   UNL     1       1.906  12.527  18.570  0.00  0.00    +0.000 A 
BRANCH  17  20
ATOM     20  O   UNL     1       4.536  15.048  18.557  0.00  0.00    +0.000 OA
ATOM     21  H   UNL     1       5.287  14.503  18.268  0.00  0.00    +0.000 HD
ENDBRANCH  17  20
ENDBRANCH   5  14
BRANCH   1  22
ATOM     22  C   UNL     1       0.930   9.312  20.218  0.00  0.00    +0.000 C 
ATOM     23  S   UNL     1       1.486   9.079  21.794  0.00  0.00    +0.000 S 
BRANCH  22  24
ATOM     24  N   UNL     1       1.122   8.430  19.154  0.00  0.00    +0.000 N 
ATOM     25  H   UNL     1       0.387   8.481  18.458  0.00  0.00    +0.000 HD
BRANCH  24  31
ATOM     26  C   UNL     1       2.464   6.402  19.638  0.00  0.00    +0.000 A 
ATOM     27  C   UNL     1       3.578   5.607  19.304  0.00  0.00    +0.000 A 
ATOM     28  C   UNL     1       4.431   5.953  18.255  0.00  0.00    +0.000 A 
ATOM     29  C   UNL     1       4.163   7.081  17.499  0.00  0.00    +0.000 A 
ATOM     30  C   UNL     1       3.067   7.881  17.823  0.00  0.00    +0.000 A 
ATOM     31  C   UNL     1       2.226   7.583  18.916  0.00  0.00    +0.000 A 
BRANCH  26  33
ATOM     32  C   UNL     1       1.429   4.476  20.598  0.00  0.00    +0.000 C 
ATOM     33  O   UNL     1       1.724   5.862  20.656  0.00  0.00    +0.000 OA
ENDBRANCH  26  33
ENDBRANCH  24  31
ENDBRANCH  22  24
ENDBRANCH   1  22
TORSDOF 8
ENDMDL
MODEL 9
REMARK VINA RESULT:      -6.7      5.022      8.822
REMARK  Name = 
REMARK  9 active torsions:
REMARK  status: ('A' for Active; 'I' for Inactive)
REMARK    1  A    between atoms: C_1  and  O_2
REMARK    2  A    between atoms: O_2  and  C_3
REMARK    3  A    between atoms: C_8  and  N_9
REMARK    4  A    between atoms: N_9  and  C_10
REMARK    5  A    between atoms: C_10  and  N_12
REMARK    6  A    between atoms: C_14  and  C_15
REMARK    7  A    between atoms: C_20  and  O_21
REMARK    8  A    between atoms: C_23  and  C_24
REMARK    9  A    between atoms: C_27  and  O_28
REMARK                            x       y       z     vdW  Elec       q    Type
REMARK                         _______ _______ _______ _____ _____    ______ ____
ROOT
ATOM      1  N   UNL     1       4.872   5.604  16.631  0.00  0.00    +0.000 N 
ATOM      2  N   UNL     1       5.173   5.591  15.285  0.00  0.00    +0.000 NA
ATOM      3  C   UNL     1       5.583   4.387  15.000  0.00  0.00    +0.000 C 
ATOM      4  C   UNL     1       5.566   3.412  16.144  0.00  0.00    +0.000 C 
ATOM      5  C   UNL     1       5.023   4.285  17.262  0.00  0.00    +0.000 C 
ENDROOT
BRANCH   3   6
ATOM      6  C   UNL     1       6.085   4.009  13.652  0.00  0.00    +0.000 A 
ATOM      7  C   UNL     1       5.363   3.030  12.952  0.00  0.00    +0.000 A 
ATOM      8  C   UNL     1       5.761   2.623  11.678  0.00  0.00    +0.000 A 
ATOM      9  C   UNL     1       6.887   3.190  11.088  0.00  0.00    +0.000 A 
ATOM     10  C   UNL     1       7.611   4.170  11.767  0.00  0.00    +0.000 A 
ATOM     11  C   UNL     1       7.210   4.582  13.042  0.00  0.00    +0.000 A 
BRANCH  11  12
ATOM     12  O   UNL     1       7.942   5.551  13.668  0.00  0.00    +0.000 OA
ATOM     13  H   UNL     1       7.351   6.119  14.190  0.00  0.00    +0.000 HD
ENDBRANCH  11  12
ENDBRANCH   3   6
BRANCH   5  14
ATOM     14  C   UNL     1       3.724   3.689  17.793  0.00  0.00    +0.000 A 
ATOM     15  C   UNL     1       2.500   4.118  17.250  0.00  0.00    +0.000 A 
ATOM     16  C   UNL     1       1.284   3.701  17.801  0.00  0.00    +0.000 A 
ATOM     17  C   UNL     1       1.287   2.848  18.898  0.00  0.00    +0.000 A 
ATOM     18  C   UNL     1       2.481   2.391  19.437  0.00  0.00    +0.000 A 
ATOM     19  C   UNL     1       3.699   2.811  18.889  0.00  0.00    +0.000 A 
BRANCH  17  20
ATOM     20  O   UNL     1       0.124   2.452  19.491  0.00  0.00    +0.000 OA
ATOM     21  H   UNL     1       0.132   2.751  20.415  0.00  0.00    +0.000 HD
ENDBRANCH  17  20
ENDBRANCH   5  14
BRANCH   1  22
ATOM     22  C   UNL     1       4.651   6.820  17.285  0.00  0.00    +0.000 C 
ATOM     23  S   UNL     1       5.887   7.685  18.040  0.00  0.00    +0.000 S 
BRANCH  22  24
ATOM     24  N   UNL     1       3.323   7.233  17.179  0.00  0.00    +0.000 N 
ATOM     25  H   UNL     1       2.886   6.949  16.309  0.00  0.00    +0.000 HD
BRANCH  24  31
ATOM     26  C   UNL     1       2.299   7.378  19.433  0.00  0.00    +0.000 A 
ATOM     27  C   UNL     1       1.526   8.129  20.340  0.00  0.00    +0.000 A 
ATOM     28  C   UNL     1       1.018   9.382  20.000  0.00  0.00    +0.000 A 
ATOM     29  C   UNL     1       1.305   9.924  18.758  0.00  0.00    +0.000 A 
ATOM     30  C   UNL     1       2.063   9.188  17.848  0.00  0.00    +0.000 A 
ATOM     31  C   UNL     1       2.538   7.894  18.148  0.00  0.00    +0.000 A 
BRANCH  26  33
ATOM     32  C   UNL     1       1.945   5.581  20.964  0.00  0.00    +0.000 C 
ATOM     33  O   UNL     1       2.749   6.204  19.976  0.00  0.00    +0.000 OA
ENDBRANCH  26  33
ENDBRANCH  24  31
ENDBRANCH  22  24
ENDBRANCH   1  22
TORSDOF 8
ENDMDL
