MODEL 1
REMARK VINA RESULT:      -7.3      0.000      0.000
REMARK  Name = 
REMARK  9 active torsions:
REMARK  status: ('A' for Active; 'I' for Inactive)
REMARK    1  A    between atoms: C_1  and  C_2
REMARK    2  A    between atoms: C_2  and  C_3
REMARK    3  A    between atoms: C_2  and  N_9
REMARK    4  A    between atoms: C_13  and  C_14
REMARK    5  A    between atoms: C_14  and  O_16
REMARK    6  A    between atoms: O_16  and  C_17
REMARK    7  A    between atoms: C_17  and  C_18
REMARK    8  A    between atoms: C_18  and  C_19
REMARK    9  A    between atoms: C_19  and  C_20
REMARK                            x       y       z     vdW  Elec       q    Type
REMARK                         _______ _______ _______ _____ _____    ______ ____
ROOT
ATOM      1  N   UNL     1       5.184   4.967  18.135  0.00  0.00    +0.000 N 
ATOM      2  C   UNL     1       5.591   4.802  19.434  0.00  0.00    +0.000 A 
ATOM      3  N   UNL     1       6.750   5.367  19.664  0.00  0.00    +0.000 NA
ATOM      4  C   UNL     1       7.111   5.926  18.471  0.00  0.00    +0.000 A 
ATOM      5  C   UNL     1       6.171   5.682  17.482  0.00  0.00    +0.000 A 
ENDROOT
BRANCH   1   7
ATOM      6  C   UNL     1       4.165   3.206  16.715  0.00  0.00    +0.000 C 
ATOM      7  C   UNL     1       3.925   4.448  17.585  0.00  0.00    +0.000 C 
BRANCH   7   8
ATOM      8  C   UNL     1       2.895   4.241  18.695  0.00  0.00    +0.000 A 
ATOM      9  C   UNL     1       2.483   5.283  19.546  0.00  0.00    +0.000 A 
ATOM     10  C   UNL     1       1.549   5.057  20.559  0.00  0.00    +0.000 A 
ATOM     11  C   UNL     1       1.001   3.791  20.736  0.00  0.00    +0.000 A 
ATOM     12  C   UNL     1       1.384   2.750  19.895  0.00  0.00    +0.000 A 
ATOM     13  C   UNL     1       2.320   2.972  18.881  0.00  0.00    +0.000 A 
ENDBRANCH   7   8
ENDBRANCH   1   7
BRANCH   5  14
ATOM     14  C   UNL     1       6.260   6.023  16.091  0.00  0.00    +0.000 C 
ATOM     15  O   UNL     1       5.483   6.742  15.481  0.00  0.00    +0.000 OA
BRANCH  14  16
ATOM     16  O   UNL     1       7.304   5.345  15.527  0.00  0.00    +0.000 OA
BRANCH  16  17
ATOM     17  C   UNL     1       7.184   5.024  14.135  0.00  0.00    +0.000 C 
BRANCH  17  18
ATOM     18  C   UNL     1       6.171   3.923  13.833  0.00  0.00    +0.000 C 
BRANCH  18  19
ATOM     19  C   UNL     1       6.127   3.604  12.363  0.00  0.00    +0.000 C 
ATOM     20  C   UNL     1       7.207   4.170  11.493  0.00  0.00    +0.000 C 
ATOM     21  N   UNL     1       5.574   2.345  11.983  0.00  0.00    +0.000 NA
ATOM     22  N   UNL     1       4.859   3.342  11.769  0.00  0.00    +0.000 NA
ENDBRANCH  18  19
ENDBRANCH  17  18
ENDBRANCH  16  17
ENDBRANCH  14  16
ENDBRANCH   5  14
TORSDOF 7
ENDMDL
MODEL 2
REMARK VINA RESULT:      -7.3      0.084      1.028
REMARK  Name = 
REMARK  9 active torsions:
REMARK  status: ('A' for Active; 'I' for Inactive)
REMARK    1  A    between atoms: C_1  and  C_2
REMARK    2  A    between atoms: C_2  and  C_3
REMARK    3  A    between atoms: C_2  and  N_9
REMARK    4  A    between atoms: C_13  and  C_14
REMARK    5  A    between atoms: C_14  and  O_16
REMARK    6  A    between atoms: O_16  and  C_17
REMARK    7  A    between atoms: C_17  and  C_18
REMARK    8  A    between atoms: C_18  and  C_19
REMARK    9  A    between atoms: C_19  and  C_20
REMARK                            x       y       z     vdW  Elec       q    Type
REMARK                         _______ _______ _______ _____ _____    ______ ____
ROOT
ATOM      1  N   UNL     1       5.203   4.949  18.174  0.00  0.00    +0.000 N 
ATOM      2  C   UNL     1       5.625   4.778  19.467  0.00  0.00    +0.000 A 
ATOM      3  N   UNL     1       6.781   5.352  19.690  0.00  0.00    +0.000 NA
ATOM      4  C   UNL     1       7.124   5.924  18.497  0.00  0.00    +0.000 A 
ATOM      5  C   UNL     1       6.176   5.678  17.516  0.00  0.00    +0.000 A 
ENDROOT
BRANCH   1   7
ATOM      6  C   UNL     1       4.185   3.188  16.754  0.00  0.00    +0.000 C 
ATOM      7  C   UNL     1       3.942   4.423  17.633  0.00  0.00    +0.000 C 
BRANCH   7   8
ATOM      8  C   UNL     1       2.925   4.202  18.752  0.00  0.00    +0.000 A 
ATOM      9  C   UNL     1       2.399   2.932  19.053  0.00  0.00    +0.000 A 
ATOM     10  C   UNL     1       1.460   2.767  20.074  0.00  0.00    +0.000 A 
ATOM     11  C   UNL     1       1.036   3.862  20.819  0.00  0.00    +0.000 A 
ATOM     12  C   UNL     1       1.556   5.124  20.546  0.00  0.00    +0.000 A 
ATOM     13  C   UNL     1       2.494   5.294  19.524  0.00  0.00    +0.000 A 
ENDBRANCH   7   8
ENDBRANCH   1   7
BRANCH   5  14
ATOM     14  C   UNL     1       6.248   6.030  16.126  0.00  0.00    +0.000 C 
ATOM     15  O   UNL     1       5.483   6.783  15.541  0.00  0.00    +0.000 OA
BRANCH  14  16
ATOM     16  O   UNL     1       7.255   5.322  15.534  0.00  0.00    +0.000 OA
BRANCH  16  17
ATOM     17  C   UNL     1       7.108   5.047  14.134  0.00  0.00    +0.000 C 
BRANCH  17  18
ATOM     18  C   UNL     1       6.225   3.843  13.823  0.00  0.00    +0.000 C 
BRANCH  18  19
ATOM     19  C   UNL     1       6.173   3.564  12.345  0.00  0.00    +0.000 C 
ATOM     20  C   UNL     1       7.253   4.150  11.487  0.00  0.00    +0.000 C 
ATOM     21  N   UNL     1       5.614   2.319  11.933  0.00  0.00    +0.000 NA
ATOM     22  N   UNL     1       4.902   3.323  11.749  0.00  0.00    +0.000 NA
ENDBRANCH  18  19
ENDBRANCH  17  18
ENDBRANCH  16  17
ENDBRANCH  14  16
ENDBRANCH   5  14
TORSDOF 7
ENDMDL
MODEL 3
REMARK VINA RESULT:      -7.2      3.401      5.697
REMARK  Name = 
REMARK  9 active torsions:
REMARK  status: ('A' for Active; 'I' for Inactive)
REMARK    1  A    between atoms: C_1  and  C_2
REMARK    2  A    between atoms: C_2  and  C_3
REMARK    3  A    between atoms: C_2  and  N_9
REMARK    4  A    between atoms: C_13  and  C_14
REMARK    5  A    between atoms: C_14  and  O_16
REMARK    6  A    between atoms: O_16  and  C_17
REMARK    7  A    between atoms: C_17  and  C_18
REMARK    8  A    between atoms: C_18  and  C_19
REMARK    9  A    between atoms: C_19  and  C_20
REMARK                            x       y       z     vdW  Elec       q    Type
REMARK                         _______ _______ _______ _____ _____    ______ ____
ROOT
ATOM      1  N   UNL     1       5.337   5.420  16.857  0.00  0.00    +0.000 N 
ATOM      2  C   UNL     1       5.019   4.779  15.687  0.00  0.00    +0.000 A 
ATOM      3  N   UNL     1       6.067   4.593  14.924  0.00  0.00    +0.000 NA
ATOM      4  C   UNL     1       7.110   5.128  15.625  0.00  0.00    +0.000 A 
ATOM      5  C   UNL     1       6.695   5.675  16.829  0.00  0.00    +0.000 A 
ENDROOT
BRANCH   1   7
ATOM      6  C   UNL     1       3.642   7.074  17.595  0.00  0.00    +0.000 C 
ATOM      7  C   UNL     1       4.370   5.759  17.909  0.00  0.00    +0.000 C 
BRANCH   7   8
ATOM      8  C   UNL     1       3.438   4.581  18.188  0.00  0.00    +0.000 A 
ATOM      9  C   UNL     1       3.896   3.369  18.736  0.00  0.00    +0.000 A 
ATOM     10  C   UNL     1       3.018   2.307  18.966  0.00  0.00    +0.000 A 
ATOM     11  C   UNL     1       1.668   2.437  18.663  0.00  0.00    +0.000 A 
ATOM     12  C   UNL     1       1.192   3.633  18.133  0.00  0.00    +0.000 A 
ATOM     13  C   UNL     1       2.067   4.698  17.899  0.00  0.00    +0.000 A 
ENDBRANCH   7   8
ENDBRANCH   1   7
BRANCH   5  14
ATOM     14  C   UNL     1       7.489   6.409  17.774  0.00  0.00    +0.000 C 
ATOM     15  O   UNL     1       7.847   6.007  18.871  0.00  0.00    +0.000 OA
BRANCH  14  16
ATOM     16  O   UNL     1       7.711   7.668  17.292  0.00  0.00    +0.000 OA
BRANCH  16  17
ATOM     17  C   UNL     1       8.368   8.587  18.177  0.00  0.00    +0.000 C 
BRANCH  17  18
ATOM     18  C   UNL     1       8.221  10.052  17.778  0.00  0.00    +0.000 C 
BRANCH  18  19
ATOM     19  C   UNL     1       9.238  10.916  18.472  0.00  0.00    +0.000 C 
ATOM     20  C   UNL     1       9.451  10.702  19.940  0.00  0.00    +0.000 C 
ATOM     21  N   UNL     1      10.360  11.351  17.706  0.00  0.00    +0.000 NA
ATOM     22  N   UNL     1       9.494  12.213  17.942  0.00  0.00    +0.000 NA
ENDBRANCH  18  19
ENDBRANCH  17  18
ENDBRANCH  16  17
ENDBRANCH  14  16
ENDBRANCH   5  14
TORSDOF 7
ENDMDL
MODEL 4
REMARK VINA RESULT:      -7.1      3.421      4.512
REMARK  Name = 
REMARK  9 active torsions:
REMARK  status: ('A' for Active; 'I' for Inactive)
REMARK    1  A    between atoms: C_1  and  C_2
REMARK    2  A    between atoms: C_2  and  C_3
REMARK    3  A    between atoms: C_2  and  N_9
REMARK    4  A    between atoms: C_13  and  C_14
REMARK    5  A    between atoms: C_14  and  O_16
REMARK    6  A    between atoms: O_16  and  C_17
REMARK    7  A    between atoms: C_17  and  C_18
REMARK    8  A    between atoms: C_18  and  C_19
REMARK    9  A    between atoms: C_19  and  C_20
REMARK                            x       y       z     vdW  Elec       q    Type
REMARK                         _______ _______ _______ _____ _____    ______ ____
ROOT
ATOM      1  N   UNL     1       3.011   3.146  19.802  0.00  0.00    +0.000 N 
ATOM      2  C   UNL     1       2.880   2.486  20.997  0.00  0.00    +0.000 A 
ATOM      3  N   UNL     1       4.017   1.989  21.415  0.00  0.00    +0.000 NA
ATOM      4  C   UNL     1       4.927   2.342  20.459  0.00  0.00    +0.000 A 
ATOM      5  C   UNL     1       4.337   3.048  19.422  0.00  0.00    +0.000 A 
ENDROOT
BRANCH   1   7
ATOM      6  C   UNL     1       0.555   3.181  19.452  0.00  0.00    +0.000 C 
ATOM      7  C   UNL     1       1.909   3.809  19.093  0.00  0.00    +0.000 C 
BRANCH   7   8
ATOM      8  C   UNL     1       1.968   5.322  19.296  0.00  0.00    +0.000 A 
ATOM      9  C   UNL     1       1.574   5.938  20.498  0.00  0.00    +0.000 A 
ATOM     10  C   UNL     1       1.628   7.325  20.646  0.00  0.00    +0.000 A 
ATOM     11  C   UNL     1       2.085   8.124  19.603  0.00  0.00    +0.000 A 
ATOM     12  C   UNL     1       2.494   7.533  18.411  0.00  0.00    +0.000 A 
ATOM     13  C   UNL     1       2.439   6.144  18.258  0.00  0.00    +0.000 A 
ENDBRANCH   7   8
ENDBRANCH   1   7
BRANCH   5  14
ATOM     14  C   UNL     1       4.955   3.490  18.204  0.00  0.00    +0.000 C 
ATOM     15  O   UNL     1       4.502   3.344  17.079  0.00  0.00    +0.000 OA
BRANCH  14  16
ATOM     16  O   UNL     1       6.180   4.024  18.490  0.00  0.00    +0.000 OA
BRANCH  16  17
ATOM     17  C   UNL     1       6.192   5.364  19.001  0.00  0.00    +0.000 C 
BRANCH  17  18
ATOM     18  C   UNL     1       7.494   6.117  18.747  0.00  0.00    +0.000 C 
BRANCH  18  19
ATOM     19  C   UNL     1       7.375   7.042  17.566  0.00  0.00    +0.000 C 
ATOM     20  C   UNL     1       7.923   8.429  17.708  0.00  0.00    +0.000 C 
ATOM     21  N   UNL     1       7.416   6.453  16.267  0.00  0.00    +0.000 NA
ATOM     22  N   UNL     1       6.298   6.837  16.657  0.00  0.00    +0.000 NA
ENDBRANCH  18  19
ENDBRANCH  17  18
ENDBRANCH  16  17
ENDBRANCH  14  16
ENDBRANCH   5  14
TORSDOF 7
ENDMDL
MODEL 5
REMARK VINA RESULT:      -7.1      2.735      5.885
REMARK  Name = 
REMARK  9 active torsions:
REMARK  status: ('A' for Active; 'I' for Inactive)
REMARK    1  A    between atoms: C_1  and  C_2
REMARK    2  A    between atoms: C_2  and  C_3
REMARK    3  A    between atoms: C_2  and  N_9
REMARK    4  A    between atoms: C_13  and  C_14
REMARK    5  A    between atoms: C_14  and  O_16
REMARK    6  A    between atoms: O_16  and  C_17
REMARK    7  A    between atoms: C_17  and  C_18
REMARK    8  A    between atoms: C_18  and  C_19
REMARK    9  A    between atoms: C_19  and  C_20
REMARK                            x       y       z     vdW  Elec       q    Type
REMARK                         _______ _______ _______ _____ _____    ______ ____
ROOT
ATOM      1  N   UNL     1       5.809   4.551  17.274  0.00  0.00    +0.000 N 
ATOM      2  C   UNL     1       6.935   4.737  16.515  0.00  0.00    +0.000 A 
ATOM      3  N   UNL     1       6.854   4.137  15.354  0.00  0.00    +0.000 NA
ATOM      4  C   UNL     1       5.624   3.541  15.352  0.00  0.00    +0.000 A 
ATOM      5  C   UNL     1       4.946   3.756  16.542  0.00  0.00    +0.000 A 
ENDROOT
BRANCH   1   7
ATOM      6  C   UNL     1       6.904   5.732  19.161  0.00  0.00    +0.000 C 
ATOM      7  C   UNL     1       5.610   5.108  18.618  0.00  0.00    +0.000 C 
BRANCH   7   8
ATOM      8  C   UNL     1       4.407   6.050  18.641  0.00  0.00    +0.000 A 
ATOM      9  C   UNL     1       4.171   6.998  17.629  0.00  0.00    +0.000 A 
ATOM     10  C   UNL     1       3.068   7.853  17.687  0.00  0.00    +0.000 A 
ATOM     11  C   UNL     1       2.175   7.771  18.750  0.00  0.00    +0.000 A 
ATOM     12  C   UNL     1       2.381   6.830  19.754  0.00  0.00    +0.000 A 
ATOM     13  C   UNL     1       3.485   5.974  19.701  0.00  0.00    +0.000 A 
ENDBRANCH   7   8
ENDBRANCH   1   7
BRANCH   5  14
ATOM     14  C   UNL     1       3.682   3.203  16.938  0.00  0.00    +0.000 C 
ATOM     15  O   UNL     1       2.588   3.552  16.522  0.00  0.00    +0.000 OA
BRANCH  14  16
ATOM     16  O   UNL     1       3.885   2.279  17.924  0.00  0.00    +0.000 OA
BRANCH  16  17
ATOM     17  C   UNL     1       2.721   1.829  18.631  0.00  0.00    +0.000 C 
BRANCH  17  18
ATOM     18  C   UNL     1       2.856   1.874  20.150  0.00  0.00    +0.000 C 
BRANCH  18  19
ATOM     19  C   UNL     1       1.833   2.790  20.767  0.00  0.00    +0.000 C 
ATOM     20  C   UNL     1       0.791   3.379  19.866  0.00  0.00    +0.000 C 
ATOM     21  N   UNL     1       1.459   2.537  22.120  0.00  0.00    +0.000 NA
ATOM     22  N   UNL     1       2.200   3.520  21.933  0.00  0.00    +0.000 NA
ENDBRANCH  18  19
ENDBRANCH  17  18
ENDBRANCH  16  17
ENDBRANCH  14  16
ENDBRANCH   5  14
TORSDOF 7
ENDMDL
MODEL 6
REMARK VINA RESULT:      -7.1      3.047      4.618
REMARK  Name = 
REMARK  9 active torsions:
REMARK  status: ('A' for Active; 'I' for Inactive)
REMARK    1  A    between atoms: C_1  and  C_2
REMARK    2  A    between atoms: C_2  and  C_3
REMARK    3  A    between atoms: C_2  and  N_9
REMARK    4  A    between atoms: C_13  and  C_14
REMARK    5  A    between atoms: C_14  and  O_16
REMARK    6  A    between atoms: O_16  and  C_17
REMARK    7  A    between atoms: C_17  and  C_18
REMARK    8  A    between atoms: C_18  and  C_19
REMARK    9  A    between atoms: C_19  and  C_20
REMARK                            x       y       z     vdW  Elec       q    Type
REMARK                         _______ _______ _______ _____ _____    ______ ____
ROOT
ATOM      1  N   UNL     1       2.747   5.231  18.333  0.00  0.00    +0.000 N 
ATOM      2  C   UNL     1       1.543   4.925  17.752  0.00  0.00    +0.000 A 
ATOM      3  N   UNL     1       1.279   3.644  17.808  0.00  0.00    +0.000 NA
ATOM      4  C   UNL     1       2.349   3.092  18.454  0.00  0.00    +0.000 A 
ATOM      5  C   UNL     1       3.300   4.046  18.781  0.00  0.00    +0.000 A 
ENDROOT
BRANCH   1   7
ATOM      6  C   UNL     1       3.754   7.100  17.049  0.00  0.00    +0.000 C 
ATOM      7  C   UNL     1       3.306   6.586  18.425  0.00  0.00    +0.000 C 
BRANCH   7   8
ATOM      8  C   UNL     1       2.343   7.520  19.156  0.00  0.00    +0.000 A 
ATOM      9  C   UNL     1       1.823   8.684  18.561  0.00  0.00    +0.000 A 
ATOM     10  C   UNL     1       0.954   9.523  19.262  0.00  0.00    +0.000 A 
ATOM     11  C   UNL     1       0.580   9.212  20.565  0.00  0.00    +0.000 A 
ATOM     12  C   UNL     1       1.072   8.057  21.166  0.00  0.00    +0.000 A 
ATOM     13  C   UNL     1       1.943   7.216  20.469  0.00  0.00    +0.000 A 
ENDBRANCH   7   8
ENDBRANCH   1   7
BRANCH   5  14
ATOM     14  C   UNL     1       4.591   3.824  19.369  0.00  0.00    +0.000 C 
ATOM     15  O   UNL     1       4.970   2.785  19.888  0.00  0.00    +0.000 OA
BRANCH  14  16
ATOM     16  O   UNL     1       5.305   4.989  19.337  0.00  0.00    +0.000 OA
BRANCH  16  17
ATOM     17  C   UNL     1       6.651   4.903  18.848  0.00  0.00    +0.000 C 
BRANCH  17  18
ATOM     18  C   UNL     1       6.756   4.528  17.373  0.00  0.00    +0.000 C 
BRANCH  18  19
ATOM     19  C   UNL     1       7.050   5.731  16.518  0.00  0.00    +0.000 C 
ATOM     20  C   UNL     1       7.430   7.003  17.212  0.00  0.00    +0.000 C 
ATOM     21  N   UNL     1       7.613   5.496  15.229  0.00  0.00    +0.000 NA
ATOM     22  N   UNL     1       6.413   5.826  15.248  0.00  0.00    +0.000 NA
ENDBRANCH  18  19
ENDBRANCH  17  18
ENDBRANCH  16  17
ENDBRANCH  14  16
ENDBRANCH   5  14
TORSDOF 7
ENDMDL
MODEL 7
REMARK VINA RESULT:      -7.0      1.562      2.251
REMARK  Name = 
REMARK  9 active torsions:
REMARK  status: ('A' for Active; 'I' for Inactive)
REMARK    1  A    between atoms: C_1  and  C_2
REMARK    2  A    between atoms: C_2  and  C_3
REMARK    3  A    between atoms: C_2  and  N_9
REMARK    4  A    between atoms: C_13  and  C_14
REMARK    5  A    between atoms: C_14  and  O_16
REMARK    6  A    between atoms: O_16  and  C_17
REMARK    7  A    between atoms: C_17  and  C_18
REMARK    8  A    between atoms: C_18  and  C_19
REMARK    9  A    between atoms: C_19  and  C_20
REMARK                            x       y       z     vdW  Elec       q    Type
REMARK                         _______ _______ _______ _____ _____    ______ ____
ROOT
ATOM      1  N   UNL     1       5.027   5.374  18.361  0.00  0.00    +0.000 N 
ATOM      2  C   UNL     1       5.503   5.091  19.615  0.00  0.00    +0.000 A 
ATOM      3  N   UNL     1       6.804   5.218  19.691  0.00  0.00    +0.000 NA
ATOM      4  C   UNL     1       7.192   5.603  18.439  0.00  0.00    +0.000 A 
ATOM      5  C   UNL     1       6.116   5.692  17.570  0.00  0.00    +0.000 A 
ENDROOT
BRANCH   1   7
ATOM      6  C   UNL     1       2.954   4.013  18.438  0.00  0.00    +0.000 C 
ATOM      7  C   UNL     1       3.610   5.323  17.978  0.00  0.00    +0.000 C 
BRANCH   7   8
ATOM      8  C   UNL     1       2.879   6.582  18.440  0.00  0.00    +0.000 A 
ATOM      9  C   UNL     1       2.717   7.707  17.612  0.00  0.00    +0.000 A 
ATOM     10  C   UNL     1       2.054   8.848  18.071  0.00  0.00    +0.000 A 
ATOM     11  C   UNL     1       1.532   8.884  19.359  0.00  0.00    +0.000 A 
ATOM     12  C   UNL     1       1.669   7.775  20.189  0.00  0.00    +0.000 A 
ATOM     13  C   UNL     1       2.334   6.632  19.735  0.00  0.00    +0.000 A 
ENDBRANCH   7   8
ENDBRANCH   1   7
BRANCH   5  14
ATOM     14  C   UNL     1       6.151   5.966  16.161  0.00  0.00    +0.000 C 
ATOM     15  O   UNL     1       5.554   6.868  15.594  0.00  0.00    +0.000 OA
BRANCH  14  16
ATOM     16  O   UNL     1       6.890   5.003  15.535  0.00  0.00    +0.000 OA
BRANCH  16  17
ATOM     17  C   UNL     1       6.682   4.851  14.124  0.00  0.00    +0.000 C 
BRANCH  17  18
ATOM     18  C   UNL     1       6.070   3.513  13.723  0.00  0.00    +0.000 C 
BRANCH  18  19
ATOM     19  C   UNL     1       6.031   3.351  12.227  0.00  0.00    +0.000 C 
ATOM     20  C   UNL     1       7.156   3.940  11.432  0.00  0.00    +0.000 C 
ATOM     21  N   UNL     1       5.414   2.172  11.712  0.00  0.00    +0.000 NA
ATOM     22  N   UNL     1       4.760   3.225  11.596  0.00  0.00    +0.000 NA
ENDBRANCH  18  19
ENDBRANCH  17  18
ENDBRANCH  16  17
ENDBRANCH  14  16
ENDBRANCH   5  14
TORSDOF 7
ENDMDL
MODEL 8
REMARK VINA RESULT:      -7.0      3.613      5.152
REMARK  Name = 
REMARK  9 active torsions:
REMARK  status: ('A' for Active; 'I' for Inactive)
REMARK    1  A    between atoms: C_1  and  C_2
REMARK    2  A    between atoms: C_2  and  C_3
REMARK    3  A    between atoms: C_2  and  N_9
REMARK    4  A    between atoms: C_13  and  C_14
REMARK    5  A    between atoms: C_14  and  O_16
REMARK    6  A    between atoms: O_16  and  C_17
REMARK    7  A    between atoms: C_17  and  C_18
REMARK    8  A    between atoms: C_18  and  C_19
REMARK    9  A    between atoms: C_19  and  C_20
REMARK                            x       y       z     vdW  Elec       q    Type
REMARK                         _______ _______ _______ _____ _____    ______ ____
ROOT
ATOM      1  N   UNL     1       2.170   3.849  19.761  0.00  0.00    +0.000 N 
ATOM      2  C   UNL     1       1.046   3.750  20.541  0.00  0.00    +0.000 A 
ATOM      3  N   UNL     1       1.234   2.980  21.583  0.00  0.00    +0.000 NA
ATOM      4  C   UNL     1       2.532   2.564  21.483  0.00  0.00    +0.000 A 
ATOM      5  C   UNL     1       3.147   3.067  20.347  0.00  0.00    +0.000 A 
ENDROOT
BRANCH   1   7
ATOM      6  C   UNL     1       1.309   4.115  17.449  0.00  0.00    +0.000 C 
ATOM      7  C   UNL     1       2.261   4.647  18.531  0.00  0.00    +0.000 C 
BRANCH   7   8
ATOM      8  C   UNL     1       2.089   6.134  18.836  0.00  0.00    +0.000 A 
ATOM      9  C   UNL     1       1.897   6.619  20.143  0.00  0.00    +0.000 A 
ATOM     10  C   UNL     1       1.730   7.984  20.386  0.00  0.00    +0.000 A 
ATOM     11  C   UNL     1       1.761   8.891  19.332  0.00  0.00    +0.000 A 
ATOM     12  C   UNL     1       1.965   8.433  18.034  0.00  0.00    +0.000 A 
ATOM     13  C   UNL     1       2.130   7.067  17.786  0.00  0.00    +0.000 A 
ENDBRANCH   7   8
ENDBRANCH   1   7
BRANCH   5  14
ATOM     14  C   UNL     1       4.464   2.765  19.863  0.00  0.00    +0.000 C 
ATOM     15  O   UNL     1       5.222   1.927  20.329  0.00  0.00    +0.000 OA
BRANCH  14  16
ATOM     16  O   UNL     1       4.778   3.624  18.848  0.00  0.00    +0.000 OA
BRANCH  16  17
ATOM     17  C   UNL     1       5.642   4.720  19.180  0.00  0.00    +0.000 C 
BRANCH  17  18
ATOM     18  C   UNL     1       5.646   5.846  18.150  0.00  0.00    +0.000 C 
BRANCH  18  19
ATOM     19  C   UNL     1       7.045   6.318  17.857  0.00  0.00    +0.000 C 
ATOM     20  C   UNL     1       8.061   6.212  18.952  0.00  0.00    +0.000 C 
ATOM     21  N   UNL     1       7.513   6.186  16.516  0.00  0.00    +0.000 NA
ATOM     22  N   UNL     1       7.219   7.340  16.879  0.00  0.00    +0.000 NA
ENDBRANCH  18  19
ENDBRANCH  17  18
ENDBRANCH  16  17
ENDBRANCH  14  16
ENDBRANCH   5  14
TORSDOF 7
ENDMDL
MODEL 9
REMARK VINA RESULT:      -6.9      2.519      3.655
REMARK  Name = 
REMARK  9 active torsions:
REMARK  status: ('A' for Active; 'I' for Inactive)
REMARK    1  A    between atoms: C_1  and  C_2
REMARK    2  A    between atoms: C_2  and  C_3
REMARK    3  A    between atoms: C_2  and  N_9
REMARK    4  A    between atoms: C_13  and  C_14
REMARK    5  A    between atoms: C_14  and  O_16
REMARK    6  A    between atoms: O_16  and  C_17
REMARK    7  A    between atoms: C_17  and  C_18
REMARK    8  A    between atoms: C_18  and  C_19
REMARK    9  A    between atoms: C_19  and  C_20
REMARK                            x       y       z     vdW  Elec       q    Type
REMARK                         _______ _______ _______ _____ _____    ______ ____
ROOT
ATOM      1  N   UNL     1       2.662   7.035  19.275  0.00  0.00    +0.000 N 
ATOM      2  C   UNL     1       2.132   8.114  18.616  0.00  0.00    +0.000 A 
ATOM      3  N   UNL     1       2.723   8.332  17.468  0.00  0.00    +0.000 NA
ATOM      4  C   UNL     1       3.673   7.355  17.371  0.00  0.00    +0.000 A 
ATOM      5  C   UNL     1       3.684   6.535  18.489  0.00  0.00    +0.000 A 
ENDROOT
BRANCH   1   7
ATOM      6  C   UNL     1       1.042   7.402  21.117  0.00  0.00    +0.000 C 
ATOM      7  C   UNL     1       2.199   6.547  20.581  0.00  0.00    +0.000 C 
BRANCH   7   8
ATOM      8  C   UNL     1       1.894   5.051  20.522  0.00  0.00    +0.000 A 
ATOM      9  C   UNL     1       2.296   4.159  21.533  0.00  0.00    +0.000 A 
ATOM     10  C   UNL     1       2.012   2.794  21.443  0.00  0.00    +0.000 A 
ATOM     11  C   UNL     1       1.315   2.296  20.348  0.00  0.00    +0.000 A 
ATOM     12  C   UNL     1       0.895   3.164  19.344  0.00  0.00    +0.000 A 
ATOM     13  C   UNL     1       1.179   4.530  19.430  0.00  0.00    +0.000 A 
ENDBRANCH   7   8
ENDBRANCH   1   7
BRANCH   5  14
ATOM     14  C   UNL     1       4.605   5.474  18.784  0.00  0.00    +0.000 C 
ATOM     15  O   UNL     1       5.521   5.528  19.591  0.00  0.00    +0.000 OA
BRANCH  14  16
ATOM     16  O   UNL     1       4.356   4.418  17.953  0.00  0.00    +0.000 OA
BRANCH  16  17
ATOM     17  C   UNL     1       5.386   4.084  17.013  0.00  0.00    +0.000 C 
BRANCH  17  18
ATOM     18  C   UNL     1       5.236   4.762  15.655  0.00  0.00    +0.000 C 
BRANCH  18  19
ATOM     19  C   UNL     1       6.461   4.567  14.803  0.00  0.00    +0.000 C 
ATOM     20  C   UNL     1       6.297   3.844  13.501  0.00  0.00    +0.000 C 
ATOM     21  N   UNL     1       7.472   5.571  14.870  0.00  0.00    +0.000 NA
ATOM     22  N   UNL     1       7.727   4.499  15.451  0.00  0.00    +0.000 NA
ENDBRANCH  18  19
ENDBRANCH  17  18
ENDBRANCH  16  17
ENDBRANCH  14  16
ENDBRANCH   5  14
TORSDOF 7
ENDMDL
