MODEL 1
REMARK VINA RESULT:      -6.7      0.000      0.000
REMARK  Name = 
REMARK  6 active torsions:
REMARK  status: ('A' for Active; 'I' for Inactive)
REMARK    1  A    between atoms: C_2  and  C_3
REMARK    2  A    between atoms: C_3  and  C_4
REMARK    3  A    between atoms: C_3  and  C_6
REMARK    4  A    between atoms: C_4  and  O_5
REMARK    5  A    between atoms: N_18  and  S_19
REMARK    6  A    between atoms: S_19  and  C_22
REMARK                            x       y       z     vdW  Elec       q    Type
REMARK                         _______ _______ _______ _____ _____    ______ ____
ROOT
ATOM      1  O   UNL     1       0.197  12.545  18.801  0.00  0.00    +0.000 OA
ATOM      2  C   UNL     1      -0.512  11.903  19.582  0.00  0.00    +0.000 C 
ATOM      3  N   UNL     1      -0.822  12.389  20.832  0.00  0.00    +0.000 N 
ATOM      4  C   UNL     1      -0.396  13.731  21.246  0.00  0.00    +0.000 C 
ATOM      5  C   UNL     1      -1.248  13.934  22.439  0.00  0.00    +0.000 C 
ATOM      6  C   UNL     1      -1.953  12.845  22.736  0.00  0.00    +0.000 C 
ATOM      7  C   UNL     1      -1.737  11.752  21.786  0.00  0.00    +0.000 C 
ATOM      8  C   UNL     1      -3.100  13.139  23.604  0.00  0.00    +0.000 C 
ATOM      9  N   UNL     1      -3.141  14.637  23.531  0.00  0.00    +0.000 NA
ATOM     10  C   UNL     1      -1.815  15.138  23.047  0.00  0.00    +0.000 C 
ENDROOT
BRANCH   9  11
ATOM     11  S   UNL     1      -4.513  15.267  22.734  0.00  0.00    +0.000 S 
ATOM     12  O   UNL     1      -5.230  16.131  23.646  0.00  0.00    +0.000 OA
ATOM     13  O   UNL     1      -4.125  15.695  21.408  0.00  0.00    +0.000 OA
BRANCH  11  14
ATOM     14  C   UNL     1      -5.443  13.782  22.596  0.00  0.00    +0.000 A 
ATOM     15  C   UNL     1      -6.221  13.286  23.625  0.00  0.00    +0.000 A 
ATOM     16  N   UNL     1      -7.031  12.208  23.456  0.00  0.00    +0.000 NA
ATOM     17  C   UNL     1      -7.099  11.670  22.212  0.00  0.00    +0.000 A 
ATOM     18  C   UNL     1      -6.401  12.179  21.133  0.00  0.00    +0.000 A 
ATOM     19  C   UNL     1      -5.510  13.207  21.340  0.00  0.00    +0.000 A 
ATOM     20  O   UNL     1      -6.581  11.796  19.842  0.00  0.00    +0.000 OA
ATOM     21  C   UNL     1      -6.865  10.407  19.798  0.00  0.00    +0.000 C 
ATOM     22  C   UNL     1      -7.909   9.948  20.815  0.00  0.00    +0.000 C 
ATOM     23  O   UNL     1      -7.916  10.584  22.096  0.00  0.00    +0.000 OA
ENDBRANCH  11  14
ENDBRANCH   9  11
BRANCH   2  24
ATOM     24  C   UNL     1      -1.085  10.542  19.195  0.00  0.00    +0.000 C 
BRANCH  24  25
ATOM     25  C   UNL     1      -2.119  10.680  18.092  0.00  0.00    +0.000 A 
ATOM     26  C   UNL     1      -3.297  11.406  18.270  0.00  0.00    +0.000 A 
ATOM     27  C   UNL     1      -4.179  11.535  17.196  0.00  0.00    +0.000 A 
ATOM     28  C   UNL     1      -3.875  10.935  15.982  0.00  0.00    +0.000 A 
ATOM     29  C   UNL     1      -2.690  10.228  15.889  0.00  0.00    +0.000 A 
ATOM     30  N   UNL     1      -1.808  10.099  16.906  0.00  0.00    +0.000 NA
ENDBRANCH  24  25
BRANCH  24  31
ATOM     31  C   UNL     1       0.065   9.602  18.824  0.00  0.00    +0.000 C 
BRANCH  31  32
ATOM     32  O   UNL     1       0.908  10.170  17.821  0.00  0.00    +0.000 OA
ATOM     33  H   UNL     1       1.555   9.489  17.558  0.00  0.00    +0.000 HD
ENDBRANCH  31  32
ENDBRANCH  24  31
ENDBRANCH   2  24
TORSDOF 6
ENDMDL
MODEL 2
REMARK VINA RESULT:      -6.3      3.759      8.371
REMARK  Name = 
REMARK  6 active torsions:
REMARK  status: ('A' for Active; 'I' for Inactive)
REMARK    1  A    between atoms: C_2  and  C_3
REMARK    2  A    between atoms: C_3  and  C_4
REMARK    3  A    between atoms: C_3  and  C_6
REMARK    4  A    between atoms: C_4  and  O_5
REMARK    5  A    between atoms: N_18  and  S_19
REMARK    6  A    between atoms: S_19  and  C_22
REMARK                            x       y       z     vdW  Elec       q    Type
REMARK                         _______ _______ _______ _____ _____    ______ ____
ROOT
ATOM      1  O   UNL     1      -3.228  14.496  22.075  0.00  0.00    +0.000 OA
ATOM      2  C   UNL     1      -3.422  13.619  21.228  0.00  0.00    +0.000 C 
ATOM      3  N   UNL     1      -2.378  13.058  20.528  0.00  0.00    +0.000 N 
ATOM      4  C   UNL     1      -0.987  13.417  20.829  0.00  0.00    +0.000 C 
ATOM      5  C   UNL     1      -0.264  12.333  20.129  0.00  0.00    +0.000 C 
ATOM      6  C   UNL     1      -1.091  11.553  19.436  0.00  0.00    +0.000 C 
ATOM      7  C   UNL     1      -2.494  11.941  19.582  0.00  0.00    +0.000 C 
ATOM      8  C   UNL     1      -0.492  10.253  19.109  0.00  0.00    +0.000 C 
ATOM      9  N   UNL     1       0.726  10.266  19.985  0.00  0.00    +0.000 NA
ATOM     10  C   UNL     1       1.018  11.678  20.392  0.00  0.00    +0.000 C 
ENDROOT
BRANCH   9  11
ATOM     11  S   UNL     1       0.700   9.116  21.246  0.00  0.00    +0.000 S 
ATOM     12  O   UNL     1       1.624   9.532  22.278  0.00  0.00    +0.000 OA
ATOM     13  O   UNL     1      -0.674   8.770  21.533  0.00  0.00    +0.000 OA
BRANCH  11  14
ATOM     14  C   UNL     1       1.453   7.775  20.395  0.00  0.00    +0.000 A 
ATOM     15  C   UNL     1       2.207   7.941  19.250  0.00  0.00    +0.000 A 
ATOM     16  N   UNL     1       2.885   6.910  18.680  0.00  0.00    +0.000 NA
ATOM     17  C   UNL     1       2.846   5.714  19.319  0.00  0.00    +0.000 A 
ATOM     18  C   UNL     1       2.171   5.517  20.510  0.00  0.00    +0.000 A 
ATOM     19  C   UNL     1       1.409   6.542  21.021  0.00  0.00    +0.000 A 
ATOM     20  O   UNL     1       2.260   4.399  21.277  0.00  0.00    +0.000 OA
ATOM     21  C   UNL     1       2.385   3.261  20.438  0.00  0.00    +0.000 C 
ATOM     22  C   UNL     1       3.407   3.420  19.313  0.00  0.00    +0.000 C 
ATOM     23  O   UNL     1       3.532   4.708  18.703  0.00  0.00    +0.000 OA
ENDBRANCH  11  14
ENDBRANCH   9  11
BRANCH   2  24
ATOM     24  C   UNL     1      -4.827  13.109  20.924  0.00  0.00    +0.000 C 
BRANCH  24  25
ATOM     25  C   UNL     1      -5.766  13.370  22.087  0.00  0.00    +0.000 A 
ATOM     26  C   UNL     1      -5.760  12.577  23.235  0.00  0.00    +0.000 A 
ATOM     27  C   UNL     1      -6.614  12.906  24.289  0.00  0.00    +0.000 A 
ATOM     28  C   UNL     1      -7.455  14.004  24.172  0.00  0.00    +0.000 A 
ATOM     29  C   UNL     1      -7.406  14.736  22.999  0.00  0.00    +0.000 A 
ATOM     30  N   UNL     1      -6.577  14.451  21.968  0.00  0.00    +0.000 NA
ENDBRANCH  24  25
BRANCH  24  31
ATOM     31  C   UNL     1      -5.312  13.730  19.611  0.00  0.00    +0.000 C 
BRANCH  31  32
ATOM     32  O   UNL     1      -5.082  15.140  19.579  0.00  0.00    +0.000 OA
ATOM     33  H   UNL     1      -4.409  15.314  18.895  0.00  0.00    +0.000 HD
ENDBRANCH  31  32
ENDBRANCH  24  31
ENDBRANCH   2  24
TORSDOF 6
ENDMDL
MODEL 3
REMARK VINA RESULT:      -6.2      1.948      2.857
REMARK  Name = 
REMARK  6 active torsions:
REMARK  status: ('A' for Active; 'I' for Inactive)
REMARK    1  A    between atoms: C_2  and  C_3
REMARK    2  A    between atoms: C_3  and  C_4
REMARK    3  A    between atoms: C_3  and  C_6
REMARK    4  A    between atoms: C_4  and  O_5
REMARK    5  A    between atoms: N_18  and  S_19
REMARK    6  A    between atoms: S_19  and  C_22
REMARK                            x       y       z     vdW  Elec       q    Type
REMARK                         _______ _______ _______ _____ _____    ______ ____
ROOT
ATOM      1  O   UNL     1       0.856  12.184  21.516  0.00  0.00    +0.000 OA
ATOM      2  C   UNL     1      -0.185  11.660  21.925  0.00  0.00    +0.000 C 
ATOM      3  N   UNL     1      -1.048  12.339  22.756  0.00  0.00    +0.000 N 
ATOM      4  C   UNL     1      -0.807  13.743  23.110  0.00  0.00    +0.000 C 
ATOM      5  C   UNL     1      -2.127  14.117  23.665  0.00  0.00    +0.000 C 
ATOM      6  C   UNL     1      -2.949  13.074  23.736  0.00  0.00    +0.000 C 
ATOM      7  C   UNL     1      -2.354  11.845  23.209  0.00  0.00    +0.000 C 
ATOM      8  C   UNL     1      -4.356  13.476  23.851  0.00  0.00    +0.000 C 
ATOM      9  N   UNL     1      -4.266  14.939  23.532  0.00  0.00    +0.000 NA
ATOM     10  C   UNL     1      -2.848  15.390  23.707  0.00  0.00    +0.000 C 
ENDROOT
BRANCH   9  11
ATOM     11  S   UNL     1      -5.016  15.389  22.066  0.00  0.00    +0.000 S 
ATOM     12  O   UNL     1      -6.159  16.226  22.362  0.00  0.00    +0.000 OA
ATOM     13  O   UNL     1      -3.994  15.783  21.122  0.00  0.00    +0.000 OA
BRANCH  11  14
ATOM     14  C   UNL     1      -5.641  13.816  21.596  0.00  0.00    +0.000 A 
ATOM     15  C   UNL     1      -6.645  13.168  22.290  0.00  0.00    +0.000 A 
ATOM     16  N   UNL     1      -7.201  12.013  21.839  0.00  0.00    +0.000 NA
ATOM     17  C   UNL     1      -6.777  11.549  20.636  0.00  0.00    +0.000 A 
ATOM     18  C   UNL     1      -5.832  12.203  19.867  0.00  0.00    +0.000 A 
ATOM     19  C   UNL     1      -5.207  13.314  20.382  0.00  0.00    +0.000 A 
ATOM     20  O   UNL     1      -5.518  11.880  18.585  0.00  0.00    +0.000 OA
ATOM     21  C   UNL     1      -5.584  10.472  18.423  0.00  0.00    +0.000 C 
ATOM     22  C   UNL     1      -6.837   9.830  19.018  0.00  0.00    +0.000 C 
ATOM     23  O   UNL     1      -7.357  10.382  20.231  0.00  0.00    +0.000 OA
ENDBRANCH  11  14
ENDBRANCH   9  11
BRANCH   2  24
ATOM     24  C   UNL     1      -0.568  10.240  21.523  0.00  0.00    +0.000 C 
BRANCH  24  25
ATOM     25  C   UNL     1       0.170   9.810  20.268  0.00  0.00    +0.000 A 
ATOM     26  C   UNL     1       1.197   8.866  20.301  0.00  0.00    +0.000 A 
ATOM     27  C   UNL     1       1.796   8.479  19.102  0.00  0.00    +0.000 A 
ATOM     28  C   UNL     1       1.369   9.043  17.907  0.00  0.00    +0.000 A 
ATOM     29  C   UNL     1       0.350   9.976  17.960  0.00  0.00    +0.000 A 
ATOM     30  N   UNL     1      -0.262  10.359  19.105  0.00  0.00    +0.000 NA
ENDBRANCH  24  25
BRANCH  24  31
ATOM     31  C   UNL     1      -0.330   9.302  22.709  0.00  0.00    +0.000 C 
BRANCH  31  32
ATOM     32  O   UNL     1       0.754   9.749  23.525  0.00  0.00    +0.000 OA
ATOM     33  H   UNL     1       1.208  10.467  23.046  0.00  0.00    +0.000 HD
ENDBRANCH  31  32
ENDBRANCH  24  31
ENDBRANCH   2  24
TORSDOF 6
ENDMDL
MODEL 4
REMARK VINA RESULT:      -6.1      3.493      8.345
REMARK  Name = 
REMARK  6 active torsions:
REMARK  status: ('A' for Active; 'I' for Inactive)
REMARK    1  A    between atoms: C_2  and  C_3
REMARK    2  A    between atoms: C_3  and  C_4
REMARK    3  A    between atoms: C_3  and  C_6
REMARK    4  A    between atoms: C_4  and  O_5
REMARK    5  A    between atoms: N_18  and  S_19
REMARK    6  A    between atoms: S_19  and  C_22
REMARK                            x       y       z     vdW  Elec       q    Type
REMARK                         _______ _______ _______ _____ _____    ______ ____
ROOT
ATOM      1  O   UNL     1      -3.329  14.358  22.303  0.00  0.00    +0.000 OA
ATOM      2  C   UNL     1      -3.509  13.505  21.430  0.00  0.00    +0.000 C 
ATOM      3  N   UNL     1      -2.455  12.966  20.727  0.00  0.00    +0.000 N 
ATOM      4  C   UNL     1      -1.069  13.321  21.056  0.00  0.00    +0.000 C 
ATOM      5  C   UNL     1      -0.334  12.259  20.334  0.00  0.00    +0.000 C 
ATOM      6  C   UNL     1      -1.149  11.496  19.610  0.00  0.00    +0.000 C 
ATOM      7  C   UNL     1      -2.556  11.877  19.749  0.00  0.00    +0.000 C 
ATOM      8  C   UNL     1      -0.543  10.208  19.254  0.00  0.00    +0.000 C 
ATOM      9  N   UNL     1       0.664  10.200  20.145  0.00  0.00    +0.000 NA
ATOM     10  C   UNL     1       0.946  11.600  20.595  0.00  0.00    +0.000 C 
ENDROOT
BRANCH   9  11
ATOM     11  S   UNL     1       0.627   9.015  21.373  0.00  0.00    +0.000 S 
ATOM     12  O   UNL     1       1.429   9.469  22.488  0.00  0.00    +0.000 OA
ATOM     13  O   UNL     1      -0.735   8.558  21.538  0.00  0.00    +0.000 OA
BRANCH  11  14
ATOM     14  C   UNL     1       1.547   7.760  20.557  0.00  0.00    +0.000 A 
ATOM     15  C   UNL     1       1.454   6.423  20.892  0.00  0.00    +0.000 A 
ATOM     16  N   UNL     1       2.075   5.456  20.166  0.00  0.00    +0.000 NA
ATOM     17  C   UNL     1       2.742   5.848  19.051  0.00  0.00    +0.000 A 
ATOM     18  C   UNL     1       2.797   7.164  18.631  0.00  0.00    +0.000 A 
ATOM     19  C   UNL     1       2.249   8.142  19.428  0.00  0.00    +0.000 A 
ATOM     20  O   UNL     1       3.287   7.575  17.432  0.00  0.00    +0.000 OA
ATOM     21  C   UNL     1       4.391   6.761  17.070  0.00  0.00    +0.000 C 
ATOM     22  C   UNL     1       4.151   5.263  17.250  0.00  0.00    +0.000 C 
ATOM     23  O   UNL     1       3.358   4.844  18.363  0.00  0.00    +0.000 OA
ENDBRANCH  11  14
ENDBRANCH   9  11
BRANCH   2  24
ATOM     24  C   UNL     1      -4.909  13.000  21.093  0.00  0.00    +0.000 C 
BRANCH  24  25
ATOM     25  C   UNL     1      -5.895  13.351  22.193  0.00  0.00    +0.000 A 
ATOM     26  C   UNL     1      -6.236  12.446  23.198  0.00  0.00    +0.000 A 
ATOM     27  C   UNL     1      -7.108  12.855  24.207  0.00  0.00    +0.000 A 
ATOM     28  C   UNL     1      -7.625  14.143  24.188  0.00  0.00    +0.000 A 
ATOM     29  C   UNL     1      -7.244  14.978  23.153  0.00  0.00    +0.000 A 
ATOM     30  N   UNL     1      -6.386  14.616  22.171  0.00  0.00    +0.000 NA
ENDBRANCH  24  25
BRANCH  24  31
ATOM     31  C   UNL     1      -5.321  13.542  19.723  0.00  0.00    +0.000 C 
BRANCH  31  32
ATOM     32  O   UNL     1      -5.087  14.948  19.620  0.00  0.00    +0.000 OA
ATOM     33  H   UNL     1      -5.955  15.393  19.619  0.00  0.00    +0.000 HD
ENDBRANCH  31  32
ENDBRANCH  24  31
ENDBRANCH   2  24
TORSDOF 6
ENDMDL
MODEL 5
REMARK VINA RESULT:      -6.1      6.104      8.471
REMARK  Name = 
REMARK  6 active torsions:
REMARK  status: ('A' for Active; 'I' for Inactive)
REMARK    1  A    between atoms: C_2  and  C_3
REMARK    2  A    between atoms: C_3  and  C_4
REMARK    3  A    between atoms: C_3  and  C_6
REMARK    4  A    between atoms: C_4  and  O_5
REMARK    5  A    between atoms: N_18  and  S_19
REMARK    6  A    between atoms: S_19  and  C_22
REMARK                            x       y       z     vdW  Elec       q    Type
REMARK                         _______ _______ _______ _____ _____    ______ ____
ROOT
ATOM      1  O   UNL     1       6.794  14.492  17.419  0.00  0.00    +0.000 OA
ATOM      2  C   UNL     1       6.485  15.220  18.366  0.00  0.00    +0.000 C 
ATOM      3  N   UNL     1       5.179  15.602  18.580  0.00  0.00    +0.000 N 
ATOM      4  C   UNL     1       4.094  15.080  17.741  0.00  0.00    +0.000 C 
ATOM      5  C   UNL     1       2.915  15.449  18.555  0.00  0.00    +0.000 C 
ATOM      6  C   UNL     1       3.254  16.172  19.619  0.00  0.00    +0.000 C 
ATOM      7  C   UNL     1       4.699  16.375  19.731  0.00  0.00    +0.000 C 
ATOM      8  C   UNL     1       2.210  16.173  20.652  0.00  0.00    +0.000 C 
ATOM      9  N   UNL     1       1.312  15.079  20.156  0.00  0.00    +0.000 NA
ATOM     10  C   UNL     1       1.595  14.835  18.705  0.00  0.00    +0.000 C 
ENDROOT
BRANCH   9  11
ATOM     11  S   UNL     1       1.272  13.692  21.151  0.00  0.00    +0.000 S 
ATOM     12  O   UNL     1       2.616  13.174  21.287  0.00  0.00    +0.000 OA
ATOM     13  O   UNL     1       0.430  13.964  22.295  0.00  0.00    +0.000 OA
BRANCH  11  14
ATOM     14  C   UNL     1       0.413  12.612  20.064  0.00  0.00    +0.000 A 
ATOM     15  C   UNL     1       0.993  11.486  19.510  0.00  0.00    +0.000 A 
ATOM     16  N   UNL     1       0.276  10.596  18.775  0.00  0.00    +0.000 NA
ATOM     17  C   UNL     1      -1.058  10.820  18.658  0.00  0.00    +0.000 A 
ATOM     18  C   UNL     1      -1.698  11.888  19.258  0.00  0.00    +0.000 A 
ATOM     19  C   UNL     1      -0.945  12.833  19.914  0.00  0.00    +0.000 A 
ATOM     20  O   UNL     1      -3.046  12.046  19.325  0.00  0.00    +0.000 OA
ATOM     21  C   UNL     1      -3.637  11.559  18.132  0.00  0.00    +0.000 C 
ATOM     22  C   UNL     1      -3.115  10.194  17.684  0.00  0.00    +0.000 C 
ATOM     23  O   UNL     1      -1.732   9.905  17.902  0.00  0.00    +0.000 OA
ENDBRANCH  11  14
ENDBRANCH   9  11
BRANCH   2  24
ATOM     24  C   UNL     1       7.535  15.726  19.351  0.00  0.00    +0.000 C 
BRANCH  24  25
ATOM     25  C   UNL     1       8.181  14.575  20.100  0.00  0.00    +0.000 A 
ATOM     26  C   UNL     1       7.721  14.152  21.347  0.00  0.00    +0.000 A 
ATOM     27  C   UNL     1       8.328  13.053  21.954  0.00  0.00    +0.000 A 
ATOM     28  C   UNL     1       9.378  12.409  21.314  0.00  0.00    +0.000 A 
ATOM     29  C   UNL     1       9.780  12.892  20.083  0.00  0.00    +0.000 A 
ATOM     30  N   UNL     1       9.199  13.945  19.462  0.00  0.00    +0.000 NA
ENDBRANCH  24  25
BRANCH  24  31
ATOM     31  C   UNL     1       8.547  16.597  18.602  0.00  0.00    +0.000 C 
BRANCH  31  32
ATOM     32  O   UNL     1       9.078  15.923  17.459  0.00  0.00    +0.000 OA
ATOM     33  H   UNL     1       8.335  15.732  16.857  0.00  0.00    +0.000 HD
ENDBRANCH  31  32
ENDBRANCH  24  31
ENDBRANCH   2  24
TORSDOF 6
ENDMDL
MODEL 6
REMARK VINA RESULT:      -6.1      5.317      8.509
REMARK  Name = 
REMARK  6 active torsions:
REMARK  status: ('A' for Active; 'I' for Inactive)
REMARK    1  A    between atoms: C_2  and  C_3
REMARK    2  A    between atoms: C_3  and  C_4
REMARK    3  A    between atoms: C_3  and  C_6
REMARK    4  A    between atoms: C_4  and  O_5
REMARK    5  A    between atoms: N_18  and  S_19
REMARK    6  A    between atoms: S_19  and  C_22
REMARK                            x       y       z     vdW  Elec       q    Type
REMARK                         _______ _______ _______ _____ _____    ______ ____
ROOT
ATOM      1  O   UNL     1       3.471   6.002  20.167  0.00  0.00    +0.000 OA
ATOM      2  C   UNL     1       3.145   6.538  19.104  0.00  0.00    +0.000 C 
ATOM      3  N   UNL     1       2.132   7.469  19.054  0.00  0.00    +0.000 N 
ATOM      4  C   UNL     1       1.464   7.925  20.279  0.00  0.00    +0.000 C 
ATOM      5  C   UNL     1       0.768   9.132  19.780  0.00  0.00    +0.000 C 
ATOM      6  C   UNL     1       0.906   9.276  18.464  0.00  0.00    +0.000 C 
ATOM      7  C   UNL     1       1.742   8.235  17.864  0.00  0.00    +0.000 C 
ATOM      8  C   UNL     1       0.624  10.645  18.018  0.00  0.00    +0.000 C 
ATOM      9  N   UNL     1       0.587  11.375  19.328  0.00  0.00    +0.000 NA
ATOM     10  C   UNL     1       0.384  10.384  20.433  0.00  0.00    +0.000 C 
ENDROOT
BRANCH   9  11
ATOM     11  S   UNL     1       1.861  12.490  19.551  0.00  0.00    +0.000 S 
ATOM     12  O   UNL     1       2.281  12.451  20.934  0.00  0.00    +0.000 OA
ATOM     13  O   UNL     1       2.796  12.353  18.456  0.00  0.00    +0.000 OA
BRANCH  11  14
ATOM     14  C   UNL     1       0.951  13.977  19.332  0.00  0.00    +0.000 A 
ATOM     15  C   UNL     1      -0.290  14.188  19.899  0.00  0.00    +0.000 A 
ATOM     16  N   UNL     1      -0.920  15.390  19.824  0.00  0.00    +0.000 NA
ATOM     17  C   UNL     1      -0.250  16.405  19.222  0.00  0.00    +0.000 A 
ATOM     18  C   UNL     1       1.026  16.265  18.709  0.00  0.00    +0.000 A 
ATOM     19  C   UNL     1       1.610  15.019  18.703  0.00  0.00    +0.000 A 
ATOM     20  O   UNL     1       1.803  17.291  18.272  0.00  0.00    +0.000 OA
ATOM     21  C   UNL     1       0.987  18.267  17.646  0.00  0.00    +0.000 C 
ATOM     22  C   UNL     1      -0.272  18.631  18.434  0.00  0.00    +0.000 C 
ATOM     23  O   UNL     1      -0.927  17.588  19.162  0.00  0.00    +0.000 OA
ENDBRANCH  11  14
ENDBRANCH   9  11
BRANCH   2  24
ATOM     24  C   UNL     1       3.855   6.201  17.797  0.00  0.00    +0.000 C 
BRANCH  24  25
ATOM     25  C   UNL     1       5.358   6.358  17.936  0.00  0.00    +0.000 A 
ATOM     26  C   UNL     1       6.064   7.351  17.257  0.00  0.00    +0.000 A 
ATOM     27  C   UNL     1       7.438   7.471  17.473  0.00  0.00    +0.000 A 
ATOM     28  C   UNL     1       8.074   6.600  18.347  0.00  0.00    +0.000 A 
ATOM     29  C   UNL     1       7.304   5.638  18.976  0.00  0.00    +0.000 A 
ATOM     30  N   UNL     1       5.969   5.508  18.800  0.00  0.00    +0.000 NA
ENDBRANCH  24  25
BRANCH  24  31
ATOM     31  C   UNL     1       3.438   4.798  17.348  0.00  0.00    +0.000 C 
BRANCH  31  32
ATOM     32  O   UNL     1       3.713   3.819  18.352  0.00  0.00    +0.000 OA
ATOM     33  H   UNL     1       2.874   3.370  18.564  0.00  0.00    +0.000 HD
ENDBRANCH  31  32
ENDBRANCH  24  31
ENDBRANCH   2  24
TORSDOF 6
ENDMDL
MODEL 7
REMARK VINA RESULT:      -5.9      2.641      6.026
REMARK  Name = 
REMARK  6 active torsions:
REMARK  status: ('A' for Active; 'I' for Inactive)
REMARK    1  A    between atoms: C_2  and  C_3
REMARK    2  A    between atoms: C_3  and  C_4
REMARK    3  A    between atoms: C_3  and  C_6
REMARK    4  A    between atoms: C_4  and  O_5
REMARK    5  A    between atoms: N_18  and  S_19
REMARK    6  A    between atoms: S_19  and  C_22
REMARK                            x       y       z     vdW  Elec       q    Type
REMARK                         _______ _______ _______ _____ _____    ______ ____
ROOT
ATOM      1  O   UNL     1      -3.085  11.802  23.085  0.00  0.00    +0.000 OA
ATOM      2  C   UNL     1      -3.453  12.977  23.004  0.00  0.00    +0.000 C 
ATOM      3  N   UNL     1      -2.554  14.016  23.101  0.00  0.00    +0.000 N 
ATOM      4  C   UNL     1      -1.114  13.760  23.213  0.00  0.00    +0.000 C 
ATOM      5  C   UNL     1      -0.571  15.103  22.913  0.00  0.00    +0.000 C 
ATOM      6  C   UNL     1      -1.536  16.009  22.777  0.00  0.00    +0.000 C 
ATOM      7  C   UNL     1      -2.876  15.436  22.914  0.00  0.00    +0.000 C 
ATOM      8  C   UNL     1      -1.083  17.208  22.062  0.00  0.00    +0.000 C 
ATOM      9  N   UNL     1       0.238  16.742  21.524  0.00  0.00    +0.000 NA
ATOM     10  C   UNL     1       0.684  15.540  22.299  0.00  0.00    +0.000 C 
ENDROOT
BRANCH   9  11
ATOM     11  S   UNL     1       0.296  16.596  19.824  0.00  0.00    +0.000 S 
ATOM     12  O   UNL     1      -1.025  16.838  19.287  0.00  0.00    +0.000 OA
ATOM     13  O   UNL     1       1.467  17.291  19.337  0.00  0.00    +0.000 OA
BRANCH  11  14
ATOM     14  C   UNL     1       0.584  14.866  19.718  0.00  0.00    +0.000 A 
ATOM     15  C   UNL     1       1.821  14.295  19.945  0.00  0.00    +0.000 A 
ATOM     16  N   UNL     1       1.994  12.947  19.983  0.00  0.00    +0.000 NA
ATOM     17  C   UNL     1       0.886  12.175  19.855  0.00  0.00    +0.000 A 
ATOM     18  C   UNL     1      -0.384  12.700  19.705  0.00  0.00    +0.000 A 
ATOM     19  C   UNL     1      -0.532  14.060  19.568  0.00  0.00    +0.000 A 
ATOM     20  O   UNL     1      -1.534  11.977  19.763  0.00  0.00    +0.000 OA
ATOM     21  C   UNL     1      -1.317  10.701  19.183  0.00  0.00    +0.000 C 
ATOM     22  C   UNL     1      -0.035  10.011  19.646  0.00  0.00    +0.000 C 
ATOM     23  O   UNL     1       1.112  10.830  19.889  0.00  0.00    +0.000 OA
ENDBRANCH  11  14
ENDBRANCH   9  11
BRANCH   2  24
ATOM     24  C   UNL     1      -4.920  13.335  22.783  0.00  0.00    +0.000 C 
BRANCH  24  25
ATOM     25  C   UNL     1      -5.467  12.651  21.544  0.00  0.00    +0.000 A 
ATOM     26  C   UNL     1      -4.860  12.786  20.295  0.00  0.00    +0.000 A 
ATOM     27  C   UNL     1      -5.387  12.087  19.209  0.00  0.00    +0.000 A 
ATOM     28  C   UNL     1      -6.504  11.282  19.387  0.00  0.00    +0.000 A 
ATOM     29  C   UNL     1      -7.051  11.206  20.655  0.00  0.00    +0.000 A 
ATOM     30  N   UNL     1      -6.553  11.859  21.731  0.00  0.00    +0.000 NA
ENDBRANCH  24  25
BRANCH  24  31
ATOM     31  C   UNL     1      -5.712  13.004  24.051  0.00  0.00    +0.000 C 
BRANCH  31  32
ATOM     32  O   UNL     1      -5.313  11.751  24.610  0.00  0.00    +0.000 OA
ATOM     33  H   UNL     1      -4.389  11.842  24.909  0.00  0.00    +0.000 HD
ENDBRANCH  31  32
ENDBRANCH  24  31
ENDBRANCH   2  24
TORSDOF 6
ENDMDL
MODEL 8
REMARK VINA RESULT:      -5.9      4.828      8.035
REMARK  Name = 
REMARK  6 active torsions:
REMARK  status: ('A' for Active; 'I' for Inactive)
REMARK    1  A    between atoms: C_2  and  C_3
REMARK    2  A    between atoms: C_3  and  C_4
REMARK    3  A    between atoms: C_3  and  C_6
REMARK    4  A    between atoms: C_4  and  O_5
REMARK    5  A    between atoms: N_18  and  S_19
REMARK    6  A    between atoms: S_19  and  C_22
REMARK                            x       y       z     vdW  Elec       q    Type
REMARK                         _______ _______ _______ _____ _____    ______ ____
ROOT
ATOM      1  O   UNL     1       3.263   6.150  20.302  0.00  0.00    +0.000 OA
ATOM      2  C   UNL     1       2.928   6.694  19.246  0.00  0.00    +0.000 C 
ATOM      3  N   UNL     1       1.958   7.672  19.222  0.00  0.00    +0.000 N 
ATOM      4  C   UNL     1       1.354   8.167  20.465  0.00  0.00    +0.000 C 
ATOM      5  C   UNL     1       0.699   9.402  19.979  0.00  0.00    +0.000 C 
ATOM      6  C   UNL     1       0.800   9.531  18.659  0.00  0.00    +0.000 C 
ATOM      7  C   UNL     1       1.566   8.448  18.040  0.00  0.00    +0.000 C 
ATOM      8  C   UNL     1       0.568  10.909  18.210  0.00  0.00    +0.000 C 
ATOM      9  N   UNL     1       0.610  11.649  19.515  0.00  0.00    +0.000 NA
ATOM     10  C   UNL     1       0.397  10.675  20.634  0.00  0.00    +0.000 C 
ENDROOT
BRANCH   9  11
ATOM     11  S   UNL     1       1.941  12.703  19.687  0.00  0.00    +0.000 S 
ATOM     12  O   UNL     1       2.444  12.607  21.040  0.00  0.00    +0.000 OA
ATOM     13  O   UNL     1       2.800  12.560  18.533  0.00  0.00    +0.000 OA
BRANCH  11  14
ATOM     14  C   UNL     1       1.084  14.232  19.566  0.00  0.00    +0.000 A 
ATOM     15  C   UNL     1       1.491  15.257  18.733  0.00  0.00    +0.000 A 
ATOM     16  N   UNL     1       0.745  16.379  18.558  0.00  0.00    +0.000 NA
ATOM     17  C   UNL     1      -0.457  16.430  19.186  0.00  0.00    +0.000 A 
ATOM     18  C   UNL     1      -0.943  15.397  19.966  0.00  0.00    +0.000 A 
ATOM     19  C   UNL     1      -0.136  14.312  20.214  0.00  0.00    +0.000 A 
ATOM     20  O   UNL     1      -2.209  15.324  20.455  0.00  0.00    +0.000 OA
ATOM     21  C   UNL     1      -2.657  16.625  20.798  0.00  0.00    +0.000 C 
ATOM     22  C   UNL     1      -2.380  17.686  19.733  0.00  0.00    +0.000 C 
ATOM     23  O   UNL     1      -1.163  17.580  18.989  0.00  0.00    +0.000 OA
ENDBRANCH  11  14
ENDBRANCH   9  11
BRANCH   2  24
ATOM     24  C   UNL     1       3.577   6.315  17.919  0.00  0.00    +0.000 C 
BRANCH  24  25
ATOM     25  C   UNL     1       5.091   6.342  18.025  0.00  0.00    +0.000 A 
ATOM     26  C   UNL     1       5.872   7.197  17.248  0.00  0.00    +0.000 A 
ATOM     27  C   UNL     1       7.255   7.206  17.435  0.00  0.00    +0.000 A 
ATOM     28  C   UNL     1       7.825   6.363  18.379  0.00  0.00    +0.000 A 
ATOM     29  C   UNL     1       6.983   5.540  19.105  0.00  0.00    +0.000 A 
ATOM     30  N   UNL     1       5.638   5.522  18.957  0.00  0.00    +0.000 NA
ENDBRANCH  24  25
BRANCH  24  31
ATOM     31  C   UNL     1       3.032   4.959  17.464  0.00  0.00    +0.000 C 
BRANCH  31  32
ATOM     32  O   UNL     1       3.303   3.934  18.421  0.00  0.00    +0.000 OA
ATOM     33  H   UNL     1       4.184   4.109  18.801  0.00  0.00    +0.000 HD
ENDBRANCH  31  32
ENDBRANCH  24  31
ENDBRANCH   2  24
TORSDOF 6
ENDMDL
MODEL 9
REMARK VINA RESULT:      -5.9      7.113      9.213
REMARK  Name = 
REMARK  6 active torsions:
REMARK  status: ('A' for Active; 'I' for Inactive)
REMARK    1  A    between atoms: C_2  and  C_3
REMARK    2  A    between atoms: C_3  and  C_4
REMARK    3  A    between atoms: C_3  and  C_6
REMARK    4  A    between atoms: C_4  and  O_5
REMARK    5  A    between atoms: N_18  and  S_19
REMARK    6  A    between atoms: S_19  and  C_22
REMARK                            x       y       z     vdW  Elec       q    Type
REMARK                         _______ _______ _______ _____ _____    ______ ____
ROOT
ATOM      1  O   UNL     1       7.701  13.646  17.562  0.00  0.00    +0.000 OA
ATOM      2  C   UNL     1       7.605  14.635  18.296  0.00  0.00    +0.000 C 
ATOM      3  N   UNL     1       6.403  15.285  18.467  0.00  0.00    +0.000 N 
ATOM      4  C   UNL     1       5.173  14.770  17.855  0.00  0.00    +0.000 C 
ATOM      5  C   UNL     1       4.152  15.538  18.601  0.00  0.00    +0.000 C 
ATOM      6  C   UNL     1       4.703  16.435  19.415  0.00  0.00    +0.000 C 
ATOM      7  C   UNL     1       6.166  16.398  19.393  0.00  0.00    +0.000 C 
ATOM      8  C   UNL     1       3.778  16.885  20.462  0.00  0.00    +0.000 C 
ATOM      9  N   UNL     1       2.672  15.880  20.323  0.00  0.00    +0.000 NA
ATOM     10  C   UNL     1       2.772  15.229  18.977  0.00  0.00    +0.000 C 
ENDROOT
BRANCH   9  11
ATOM     11  S   UNL     1       2.510  14.822  21.652  0.00  0.00    +0.000 S 
ATOM     12  O   UNL     1       3.494  13.768  21.537  0.00  0.00    +0.000 OA
ATOM     13  O   UNL     1       2.357  15.607  22.857  0.00  0.00    +0.000 OA
BRANCH  11  14
ATOM     14  C   UNL     1       0.953  14.117  21.239  0.00  0.00    +0.000 A 
ATOM     15  C   UNL     1       0.799  12.789  20.893  0.00  0.00    +0.000 A 
ATOM     16  N   UNL     1      -0.427  12.234  20.702  0.00  0.00    +0.000 NA
ATOM     17  C   UNL     1      -1.508  13.023  20.929  0.00  0.00    +0.000 A 
ATOM     18  C   UNL     1      -1.406  14.336  21.353  0.00  0.00    +0.000 A 
ATOM     19  C   UNL     1      -0.161  14.912  21.446  0.00  0.00    +0.000 A 
ATOM     20  O   UNL     1      -2.450  15.098  21.771  0.00  0.00    +0.000 OA
ATOM     21  C   UNL     1      -3.602  14.780  21.007  0.00  0.00    +0.000 C 
ATOM     22  C   UNL     1      -3.853  13.281  20.845  0.00  0.00    +0.000 C 
ATOM     23  O   UNL     1      -2.715  12.425  20.713  0.00  0.00    +0.000 OA
ENDBRANCH  11  14
ENDBRANCH   9  11
BRANCH   2  24
ATOM     24  C   UNL     1       8.812  15.178  19.054  0.00  0.00    +0.000 C 
BRANCH  24  25
ATOM     25  C   UNL     1       9.725  14.052  19.504  0.00  0.00    +0.000 A 
ATOM     26  C   UNL     1       9.405  13.225  20.582  0.00  0.00    +0.000 A 
ATOM     27  C   UNL     1      10.265  12.176  20.907  0.00  0.00    +0.000 A 
ATOM     28  C   UNL     1      11.421  11.981  20.164  0.00  0.00    +0.000 A 
ATOM     29  C   UNL     1      11.671  12.847  19.115  0.00  0.00    +0.000 A 
ATOM     30  N   UNL     1      10.847  13.863  18.765  0.00  0.00    +0.000 NA
ENDBRANCH  24  25
BRANCH  24  31
ATOM     31  C   UNL     1       9.525  16.216  18.184  0.00  0.00    +0.000 C 
BRANCH  31  32
ATOM     32  O   UNL     1       9.668  15.766  16.836  0.00  0.00    +0.000 OA
ATOM     33  H   UNL     1       9.885  16.541  16.286  0.00  0.00    +0.000 HD
ENDBRANCH  31  32
ENDBRANCH  24  31
ENDBRANCH   2  24
TORSDOF 6
ENDMDL
