MODEL 1
REMARK VINA RESULT:      -7.7      0.000      0.000
REMARK  Name = 
REMARK  9 active torsions:
REMARK  status: ('A' for Active; 'I' for Inactive)
REMARK    1  A    between atoms: C_1  and  C_2
REMARK    2  A    between atoms: C_2  and  C_3
REMARK    3  A    between atoms: C_2  and  S_4
REMARK    4  A    between atoms: C_2  and  C_12
REMARK    5  A    between atoms: S_4  and  C_5
REMARK    6  A    between atoms: C_5  and  C_6
REMARK    7  A    between atoms: C_12  and  N_13
REMARK    8  A    between atoms: C_12  and  C_14
REMARK    9  A    between atoms: C_21  and  C_22
REMARK                            x       y       z     vdW  Elec       q    Type
REMARK                         _______ _______ _______ _____ _____    ______ ____
ROOT
ATOM      1  C   UNL     1       5.899   5.507  19.018  0.00  0.00    +0.000 C 
ENDROOT
BRANCH   1   2
ATOM      2  C   UNL     1       5.017   4.218  19.081  0.00  0.00    +0.000 C 
ATOM      3  O   UNL     1       5.507   3.117  19.333  0.00  0.00    +0.000 OA
ATOM      4  N   UNL     1       3.642   4.346  18.976  0.00  0.00    +0.000 N 
ATOM      5  C   UNL     1       2.774   3.213  19.255  0.00  0.00    +0.000 C 
ATOM      6  C   UNL     1       1.766   3.238  18.128  0.00  0.00    +0.000 C 
ATOM      7  F   UNL     1       0.582   2.717  18.526  0.00  0.00    +0.000 F 
ATOM      8  C   UNL     1       1.598   4.716  17.799  0.00  0.00    +0.000 C 
ATOM      9  C   UNL     1       2.879   5.408  18.311  0.00  0.00    +0.000 C 
BRANCH   9  10
ATOM     10  C   UNL     1       2.525   6.510  19.230  0.00  0.00    +0.000 C 
ATOM     11  N   UNL     1       2.259   7.388  19.939  0.00  0.00    +0.000 NA
ENDBRANCH   9  10
ENDBRANCH   1   2
BRANCH   1  13
ATOM     12  C   UNL     1       7.513   4.564  17.258  0.00  0.00    +0.000 C 
ATOM     13  C   UNL     1       6.595   5.745  17.620  0.00  0.00    +0.000 C 
ATOM     14  C   UNL     1       7.417   7.051  17.536  0.00  0.00    +0.000 C 
BRANCH  13  15
ATOM     15  S   UNL     1       5.340   5.948  16.228  0.00  0.00    +0.000 S 
BRANCH  15  16
ATOM     16  C   UNL     1       5.371   4.309  15.432  0.00  0.00    +0.000 C 
BRANCH  16  17
ATOM     17  C   UNL     1       6.058   4.303  14.084  0.00  0.00    +0.000 A 
ATOM     18  C   UNL     1       5.691   3.395  13.095  0.00  0.00    +0.000 A 
ATOM     19  C   UNL     1       6.387   3.391  11.887  0.00  0.00    +0.000 A 
ATOM     20  C   UNL     1       7.434   4.285  11.702  0.00  0.00    +0.000 A 
ATOM     21  C   UNL     1       7.744   5.151  12.736  0.00  0.00    +0.000 A 
ATOM     22  N   UNL     1       7.088   5.176  13.920  0.00  0.00    +0.000 NA
ENDBRANCH  16  17
ENDBRANCH  15  16
ENDBRANCH  13  15
ENDBRANCH   1  13
BRANCH   1  23
ATOM     23  N   UNL     1       6.870   5.421  20.134  0.00  0.00    +0.000 NA
ATOM     24  H   UNL     1       6.358   5.285  21.008  0.00  0.00    +0.000 HD
ATOM     25  H   UNL     1       7.367   6.305  20.248  0.00  0.00    +0.000 HD
ENDBRANCH   1  23
TORSDOF 7
ENDMDL
MODEL 2
REMARK VINA RESULT:      -7.4      0.877      1.364
REMARK  Name = 
REMARK  9 active torsions:
REMARK  status: ('A' for Active; 'I' for Inactive)
REMARK    1  A    between atoms: C_1  and  C_2
REMARK    2  A    between atoms: C_2  and  C_3
REMARK    3  A    between atoms: C_2  and  S_4
REMARK    4  A    between atoms: C_2  and  C_12
REMARK    5  A    between atoms: S_4  and  C_5
REMARK    6  A    between atoms: C_5  and  C_6
REMARK    7  A    between atoms: C_12  and  N_13
REMARK    8  A    between atoms: C_12  and  C_14
REMARK    9  A    between atoms: C_21  and  C_22
REMARK                            x       y       z     vdW  Elec       q    Type
REMARK                         _______ _______ _______ _____ _____    ______ ____
ROOT
ATOM      1  C   UNL     1       5.829   5.600  19.091  0.00  0.00    +0.000 C 
ENDROOT
BRANCH   1   2
ATOM      2  C   UNL     1       4.961   4.302  19.160  0.00  0.00    +0.000 C 
ATOM      3  O   UNL     1       5.461   3.208  19.425  0.00  0.00    +0.000 OA
ATOM      4  N   UNL     1       3.586   4.414  19.044  0.00  0.00    +0.000 N 
ATOM      5  C   UNL     1       2.728   3.274  19.327  0.00  0.00    +0.000 C 
ATOM      6  C   UNL     1       1.728   3.277  18.193  0.00  0.00    +0.000 C 
ATOM      7  F   UNL     1       0.547   2.747  18.588  0.00  0.00    +0.000 F 
ATOM      8  C   UNL     1       1.546   4.750  17.849  0.00  0.00    +0.000 C 
ATOM      9  C   UNL     1       2.816   5.461  18.363  0.00  0.00    +0.000 C 
BRANCH   9  10
ATOM     10  C   UNL     1       2.443   6.568  19.269  0.00  0.00    +0.000 C 
ATOM     11  N   UNL     1       2.150   7.423  19.995  0.00  0.00    +0.000 NA
ENDBRANCH   9  10
ENDBRANCH   1   2
BRANCH   1  13
ATOM     12  C   UNL     1       7.373   7.103  17.694  0.00  0.00    +0.000 C 
ATOM     13  C   UNL     1       6.360   5.945  17.644  0.00  0.00    +0.000 C 
ATOM     14  C   UNL     1       5.250   6.307  16.632  0.00  0.00    +0.000 C 
BRANCH  13  15
ATOM     15  S   UNL     1       7.208   4.472  16.828  0.00  0.00    +0.000 S 
BRANCH  15  16
ATOM     16  C   UNL     1       5.980   3.955  15.584  0.00  0.00    +0.000 C 
BRANCH  16  17
ATOM     17  C   UNL     1       6.465   4.105  14.158  0.00  0.00    +0.000 A 
ATOM     18  C   UNL     1       7.414   5.065  13.819  0.00  0.00    +0.000 A 
ATOM     19  C   UNL     1       7.791   5.202  12.484  0.00  0.00    +0.000 A 
ATOM     20  C   UNL     1       7.206   4.386  11.524  0.00  0.00    +0.000 A 
ATOM     21  C   UNL     1       6.265   3.461  11.939  0.00  0.00    +0.000 A 
ATOM     22  N   UNL     1       5.877   3.306  13.226  0.00  0.00    +0.000 NA
ENDBRANCH  16  17
ENDBRANCH  15  16
ENDBRANCH  13  15
ENDBRANCH   1  13
BRANCH   1  23
ATOM     23  N   UNL     1       6.923   5.441  20.078  0.00  0.00    +0.000 NA
ATOM     24  H   UNL     1       7.586   6.211  19.964  0.00  0.00    +0.000 HD
ATOM     25  H   UNL     1       7.460   4.594  19.889  0.00  0.00    +0.000 HD
ENDBRANCH   1  23
TORSDOF 7
ENDMDL
MODEL 3
REMARK VINA RESULT:      -7.4      2.882      6.909
REMARK  Name = 
REMARK  9 active torsions:
REMARK  status: ('A' for Active; 'I' for Inactive)
REMARK    1  A    between atoms: C_1  and  C_2
REMARK    2  A    between atoms: C_2  and  C_3
REMARK    3  A    between atoms: C_2  and  S_4
REMARK    4  A    between atoms: C_2  and  C_12
REMARK    5  A    between atoms: S_4  and  C_5
REMARK    6  A    between atoms: C_5  and  C_6
REMARK    7  A    between atoms: C_12  and  N_13
REMARK    8  A    between atoms: C_12  and  C_14
REMARK    9  A    between atoms: C_21  and  C_22
REMARK                            x       y       z     vdW  Elec       q    Type
REMARK                         _______ _______ _______ _____ _____    ______ ____
ROOT
ATOM      1  C   UNL     1       3.736   3.238  17.950  0.00  0.00    +0.000 C 
ENDROOT
BRANCH   1   2
ATOM      2  C   UNL     1       5.026   3.822  18.611  0.00  0.00    +0.000 C 
ATOM      3  O   UNL     1       5.443   3.399  19.689  0.00  0.00    +0.000 OA
ATOM      4  N   UNL     1       5.777   4.745  17.903  0.00  0.00    +0.000 N 
ATOM      5  C   UNL     1       7.093   5.142  18.377  0.00  0.00    +0.000 C 
ATOM      6  C   UNL     1       7.102   6.646  18.218  0.00  0.00    +0.000 C 
ATOM      7  F   UNL     1       8.357   7.101  17.998  0.00  0.00    +0.000 F 
ATOM      8  C   UNL     1       6.234   6.905  16.992  0.00  0.00    +0.000 C 
ATOM      9  C   UNL     1       5.327   5.665  16.851  0.00  0.00    +0.000 C 
BRANCH   9  10
ATOM     10  C   UNL     1       5.468   5.088  15.498  0.00  0.00    +0.000 C 
ATOM     11  N   UNL     1       5.597   4.631  14.440  0.00  0.00    +0.000 NA
ENDBRANCH   9  10
ENDBRANCH   1   2
BRANCH   1  13
ATOM     12  C   UNL     1       1.670   2.567  19.320  0.00  0.00    +0.000 C 
ATOM     13  C   UNL     1       2.390   3.730  18.614  0.00  0.00    +0.000 C 
ATOM     14  C   UNL     1       1.402   4.393  17.628  0.00  0.00    +0.000 C 
BRANCH  13  15
ATOM     15  S   UNL     1       2.683   5.086  19.890  0.00  0.00    +0.000 S 
BRANCH  15  16
ATOM     16  C   UNL     1       2.593   6.600  18.879  0.00  0.00    +0.000 C 
BRANCH  16  17
ATOM     17  C   UNL     1       1.911   7.756  19.579  0.00  0.00    +0.000 A 
ATOM     18  C   UNL     1       1.495   7.648  20.903  0.00  0.00    +0.000 A 
ATOM     19  C   UNL     1       0.824   8.719  21.491  0.00  0.00    +0.000 A 
ATOM     20  C   UNL     1       0.577   9.862  20.741  0.00  0.00    +0.000 A 
ATOM     21  C   UNL     1       1.014   9.889  19.428  0.00  0.00    +0.000 A 
ATOM     22  N   UNL     1       1.666   8.865  18.830  0.00  0.00    +0.000 NA
ENDBRANCH  16  17
ENDBRANCH  15  16
ENDBRANCH  13  15
ENDBRANCH   1  13
BRANCH   1  23
ATOM     23  N   UNL     1       3.874   1.763  17.964  0.00  0.00    +0.000 NA
ATOM     24  H   UNL     1       2.941   1.343  17.977  0.00  0.00    +0.000 HD
ATOM     25  H   UNL     1       4.321   1.450  18.826  0.00  0.00    +0.000 HD
ENDBRANCH   1  23
TORSDOF 7
ENDMDL
MODEL 4
REMARK VINA RESULT:      -7.3      2.822      6.641
REMARK  Name = 
REMARK  9 active torsions:
REMARK  status: ('A' for Active; 'I' for Inactive)
REMARK    1  A    between atoms: C_1  and  C_2
REMARK    2  A    between atoms: C_2  and  C_3
REMARK    3  A    between atoms: C_2  and  S_4
REMARK    4  A    between atoms: C_2  and  C_12
REMARK    5  A    between atoms: S_4  and  C_5
REMARK    6  A    between atoms: C_5  and  C_6
REMARK    7  A    between atoms: C_12  and  N_13
REMARK    8  A    between atoms: C_12  and  C_14
REMARK    9  A    between atoms: C_21  and  C_22
REMARK                            x       y       z     vdW  Elec       q    Type
REMARK                         _______ _______ _______ _____ _____    ______ ____
ROOT
ATOM      1  C   UNL     1       3.681   3.041  18.010  0.00  0.00    +0.000 C 
ENDROOT
BRANCH   1   2
ATOM      2  C   UNL     1       4.964   3.682  18.632  0.00  0.00    +0.000 C 
ATOM      3  O   UNL     1       5.383   3.336  19.736  0.00  0.00    +0.000 OA
ATOM      4  N   UNL     1       5.707   4.563  17.864  0.00  0.00    +0.000 N 
ATOM      5  C   UNL     1       7.018   5.004  18.313  0.00  0.00    +0.000 C 
ATOM      6  C   UNL     1       7.013   6.493  18.052  0.00  0.00    +0.000 C 
ATOM      7  F   UNL     1       8.264   6.945  17.804  0.00  0.00    +0.000 F 
ATOM      8  C   UNL     1       6.144   6.661  16.812  0.00  0.00    +0.000 C 
ATOM      9  C   UNL     1       5.250   5.405  16.753  0.00  0.00    +0.000 C 
BRANCH   9  10
ATOM     10  C   UNL     1       5.399   4.739  15.441  0.00  0.00    +0.000 C 
ATOM     11  N   UNL     1       5.505   4.202  14.420  0.00  0.00    +0.000 NA
ENDBRANCH   9  10
ENDBRANCH   1   2
BRANCH   1  13
ATOM     12  C   UNL     1       1.419   2.537  19.115  0.00  0.00    +0.000 C 
ATOM     13  C   UNL     1       2.328   3.646  18.556  0.00  0.00    +0.000 C 
ATOM     14  C   UNL     1       1.529   4.456  17.510  0.00  0.00    +0.000 C 
BRANCH  13  15
ATOM     15  S   UNL     1       2.616   4.904  19.930  0.00  0.00    +0.000 S 
BRANCH  15  16
ATOM     16  C   UNL     1       3.129   6.386  19.001  0.00  0.00    +0.000 C 
BRANCH  16  17
ATOM     17  C   UNL     1       2.214   7.574  19.205  0.00  0.00    +0.000 A 
ATOM     18  C   UNL     1       1.927   8.447  18.159  0.00  0.00    +0.000 A 
ATOM     19  C   UNL     1       1.122   9.558  18.406  0.00  0.00    +0.000 A 
ATOM     20  C   UNL     1       0.634   9.773  19.689  0.00  0.00    +0.000 A 
ATOM     21  C   UNL     1       0.971   8.865  20.677  0.00  0.00    +0.000 A 
ATOM     22  N   UNL     1       1.752   7.780  20.468  0.00  0.00    +0.000 NA
ENDBRANCH  16  17
ENDBRANCH  15  16
ENDBRANCH  13  15
ENDBRANCH   1  13
BRANCH   1  23
ATOM     23  N   UNL     1       3.781   1.578  18.224  0.00  0.00    +0.000 NA
ATOM     24  H   UNL     1       2.912   1.138  17.914  0.00  0.00    +0.000 HD
ATOM     25  H   UNL     1       3.850   1.364  19.220  0.00  0.00    +0.000 HD
ENDBRANCH   1  23
TORSDOF 7
ENDMDL
MODEL 5
REMARK VINA RESULT:      -7.2      0.906      1.291
REMARK  Name = 
REMARK  9 active torsions:
REMARK  status: ('A' for Active; 'I' for Inactive)
REMARK    1  A    between atoms: C_1  and  C_2
REMARK    2  A    between atoms: C_2  and  C_3
REMARK    3  A    between atoms: C_2  and  S_4
REMARK    4  A    between atoms: C_2  and  C_12
REMARK    5  A    between atoms: S_4  and  C_5
REMARK    6  A    between atoms: C_5  and  C_6
REMARK    7  A    between atoms: C_12  and  N_13
REMARK    8  A    between atoms: C_12  and  C_14
REMARK    9  A    between atoms: C_21  and  C_22
REMARK                            x       y       z     vdW  Elec       q    Type
REMARK                         _______ _______ _______ _____ _____    ______ ____
ROOT
ATOM      1  C   UNL     1       5.811   5.603  18.991  0.00  0.00    +0.000 C 
ENDROOT
BRANCH   1   2
ATOM      2  C   UNL     1       4.971   4.289  19.089  0.00  0.00    +0.000 C 
ATOM      3  O   UNL     1       5.497   3.209  19.359  0.00  0.00    +0.000 OA
ATOM      4  N   UNL     1       3.591   4.371  18.995  0.00  0.00    +0.000 N 
ATOM      5  C   UNL     1       2.762   3.218  19.304  0.00  0.00    +0.000 C 
ATOM      6  C   UNL     1       1.744   3.188  18.186  0.00  0.00    +0.000 C 
ATOM      7  F   UNL     1       0.581   2.638  18.607  0.00  0.00    +0.000 F 
ATOM      8  C   UNL     1       1.527   4.653  17.829  0.00  0.00    +0.000 C 
ATOM      9  C   UNL     1       2.790   5.395  18.315  0.00  0.00    +0.000 C 
BRANCH   9  10
ATOM     10  C   UNL     1       2.409   6.505  19.214  0.00  0.00    +0.000 C 
ATOM     11  N   UNL     1       2.124   7.387  19.910  0.00  0.00    +0.000 NA
ENDBRANCH   9  10
ENDBRANCH   1   2
BRANCH   1  13
ATOM     12  C   UNL     1       7.451   6.959  17.555  0.00  0.00    +0.000 C 
ATOM     13  C   UNL     1       6.279   5.963  17.526  0.00  0.00    +0.000 C 
ATOM     14  C   UNL     1       5.163   6.543  16.629  0.00  0.00    +0.000 C 
BRANCH  13  15
ATOM     15  S   UNL     1       6.840   4.440  16.567  0.00  0.00    +0.000 S 
BRANCH  15  16
ATOM     16  C   UNL     1       7.308   5.146  14.952  0.00  0.00    +0.000 C 
BRANCH  16  17
ATOM     17  C   UNL     1       6.644   4.461  13.777  0.00  0.00    +0.000 A 
ATOM     18  C   UNL     1       5.332   4.004  13.860  0.00  0.00    +0.000 A 
ATOM     19  C   UNL     1       4.779   3.332  12.771  0.00  0.00    +0.000 A 
ATOM     20  C   UNL     1       5.551   3.127  11.635  0.00  0.00    +0.000 A 
ATOM     21  C   UNL     1       6.850   3.604  11.632  0.00  0.00    +0.000 A 
ATOM     22  N   UNL     1       7.414   4.257  12.675  0.00  0.00    +0.000 NA
ENDBRANCH  16  17
ENDBRANCH  15  16
ENDBRANCH  13  15
ENDBRANCH   1  13
BRANCH   1  23
ATOM     23  N   UNL     1       6.944   5.463  19.935  0.00  0.00    +0.000 NA
ATOM     24  H   UNL     1       7.487   6.330  19.932  0.00  0.00    +0.000 HD
ATOM     25  H   UNL     1       7.591   4.740  19.618  0.00  0.00    +0.000 HD
ENDBRANCH   1  23
TORSDOF 7
ENDMDL
MODEL 6
REMARK VINA RESULT:      -7.1      2.025      2.918
REMARK  Name = 
REMARK  9 active torsions:
REMARK  status: ('A' for Active; 'I' for Inactive)
REMARK    1  A    between atoms: C_1  and  C_2
REMARK    2  A    between atoms: C_2  and  C_3
REMARK    3  A    between atoms: C_2  and  S_4
REMARK    4  A    between atoms: C_2  and  C_12
REMARK    5  A    between atoms: S_4  and  C_5
REMARK    6  A    between atoms: C_5  and  C_6
REMARK    7  A    between atoms: C_12  and  N_13
REMARK    8  A    between atoms: C_12  and  C_14
REMARK    9  A    between atoms: C_21  and  C_22
REMARK                            x       y       z     vdW  Elec       q    Type
REMARK                         _______ _______ _______ _____ _____    ______ ____
ROOT
ATOM      1  C   UNL     1       3.410   6.136  17.894  0.00  0.00    +0.000 C 
ENDROOT
BRANCH   1   2
ATOM      2  C   UNL     1       2.693   5.964  19.272  0.00  0.00    +0.000 C 
ATOM      3  O   UNL     1       2.333   6.937  19.935  0.00  0.00    +0.000 OA
ATOM      4  N   UNL     1       2.347   4.688  19.688  0.00  0.00    +0.000 N 
ATOM      5  C   UNL     1       1.485   4.500  20.844  0.00  0.00    +0.000 C 
ATOM      6  C   UNL     1       2.154   3.390  21.623  0.00  0.00    +0.000 C 
ATOM      7  F   UNL     1       1.244   2.673  22.322  0.00  0.00    +0.000 F 
ATOM      8  C   UNL     1       2.799   2.511  20.558  0.00  0.00    +0.000 C 
ATOM      9  C   UNL     1       2.973   3.414  19.318  0.00  0.00    +0.000 C 
BRANCH   9  10
ATOM     10  C   UNL     1       2.330   2.788  18.143  0.00  0.00    +0.000 C 
ATOM     11  N   UNL     1       1.817   2.315  17.218  0.00  0.00    +0.000 NA
ENDBRANCH   9  10
ENDBRANCH   1   2
BRANCH   1  13
ATOM     12  C   UNL     1       5.431   5.555  19.368  0.00  0.00    +0.000 C 
ATOM     13  C   UNL     1       4.958   5.825  17.928  0.00  0.00    +0.000 C 
ATOM     14  C   UNL     1       5.842   6.938  17.322  0.00  0.00    +0.000 C 
BRANCH  13  15
ATOM     15  S   UNL     1       5.403   4.320  16.884  0.00  0.00    +0.000 S 
BRANCH  15  16
ATOM     16  C   UNL     1       7.001   4.808  16.155  0.00  0.00    +0.000 C 
BRANCH  16  17
ATOM     17  C   UNL     1       7.033   4.711  14.645  0.00  0.00    +0.000 A 
ATOM     18  C   UNL     1       6.239   3.790  13.969  0.00  0.00    +0.000 A 
ATOM     19  C   UNL     1       6.340   3.700  12.581  0.00  0.00    +0.000 A 
ATOM     20  C   UNL     1       7.236   4.521  11.909  0.00  0.00    +0.000 A 
ATOM     21  C   UNL     1       7.997   5.405  12.654  0.00  0.00    +0.000 A 
ATOM     22  N   UNL     1       7.922   5.514  14.001  0.00  0.00    +0.000 NA
ENDBRANCH  16  17
ENDBRANCH  15  16
ENDBRANCH  13  15
ENDBRANCH   1  13
BRANCH   1  23
ATOM     23  N   UNL     1       3.113   7.508  17.421  0.00  0.00    +0.000 NA
ATOM     24  H   UNL     1       2.278   7.851  17.904  0.00  0.00    +0.000 HD
ATOM     25  H   UNL     1       2.866   7.503  16.431  0.00  0.00    +0.000 HD
ENDBRANCH   1  23
TORSDOF 7
ENDMDL
MODEL 7
REMARK VINA RESULT:      -7.0      1.276      1.623
REMARK  Name = 
REMARK  9 active torsions:
REMARK  status: ('A' for Active; 'I' for Inactive)
REMARK    1  A    between atoms: C_1  and  C_2
REMARK    2  A    between atoms: C_2  and  C_3
REMARK    3  A    between atoms: C_2  and  S_4
REMARK    4  A    between atoms: C_2  and  C_12
REMARK    5  A    between atoms: S_4  and  C_5
REMARK    6  A    between atoms: C_5  and  C_6
REMARK    7  A    between atoms: C_12  and  N_13
REMARK    8  A    between atoms: C_12  and  C_14
REMARK    9  A    between atoms: C_21  and  C_22
REMARK                            x       y       z     vdW  Elec       q    Type
REMARK                         _______ _______ _______ _____ _____    ______ ____
ROOT
ATOM      1  C   UNL     1       5.271   5.434  19.165  0.00  0.00    +0.000 C 
ENDROOT
BRANCH   1   2
ATOM      2  C   UNL     1       4.643   4.058  19.560  0.00  0.00    +0.000 C 
ATOM      3  O   UNL     1       5.342   3.059  19.732  0.00  0.00    +0.000 OA
ATOM      4  N   UNL     1       3.289   4.002  19.845  0.00  0.00    +0.000 N 
ATOM      5  C   UNL     1       2.710   2.804  20.432  0.00  0.00    +0.000 C 
ATOM      6  C   UNL     1       1.439   2.586  19.641  0.00  0.00    +0.000 C 
ATOM      7  F   UNL     1       0.502   1.965  20.394  0.00  0.00    +0.000 F 
ATOM      8  C   UNL     1       0.969   3.989  19.280  0.00  0.00    +0.000 C 
ATOM      9  C   UNL     1       2.223   4.885  19.359  0.00  0.00    +0.000 C 
BRANCH   9  10
ATOM     10  C   UNL     1       1.974   6.024  20.267  0.00  0.00    +0.000 C 
ATOM     11  N   UNL     1       1.761   6.921  20.970  0.00  0.00    +0.000 NA
ENDBRANCH   9  10
ENDBRANCH   1   2
BRANCH   1  13
ATOM     12  C   UNL     1       4.408   7.117  17.428  0.00  0.00    +0.000 C 
ATOM     13  C   UNL     1       5.148   5.782  17.629  0.00  0.00    +0.000 C 
ATOM     14  C   UNL     1       4.440   4.696  16.788  0.00  0.00    +0.000 C 
BRANCH  13  15
ATOM     15  S   UNL     1       6.833   5.926  16.797  0.00  0.00    +0.000 S 
BRANCH  15  16
ATOM     16  C   UNL     1       6.969   4.339  15.912  0.00  0.00    +0.000 C 
BRANCH  16  17
ATOM     17  C   UNL     1       7.040   4.488  14.407  0.00  0.00    +0.000 A 
ATOM     18  C   UNL     1       6.287   3.671  13.569  0.00  0.00    +0.000 A 
ATOM     19  C   UNL     1       6.424   3.809  12.188  0.00  0.00    +0.000 A 
ATOM     20  C   UNL     1       7.313   4.749  11.683  0.00  0.00    +0.000 A 
ATOM     21  C   UNL     1       8.031   5.518  12.582  0.00  0.00    +0.000 A 
ATOM     22  N   UNL     1       7.921   5.406  13.926  0.00  0.00    +0.000 NA
ENDBRANCH  16  17
ENDBRANCH  15  16
ENDBRANCH  13  15
ENDBRANCH   1  13
BRANCH   1  23
ATOM     23  N   UNL     1       6.675   5.419  19.637  0.00  0.00    +0.000 NA
ATOM     24  H   UNL     1       6.917   4.469  19.928  0.00  0.00    +0.000 HD
ATOM     25  H   UNL     1       6.780   5.991  20.476  0.00  0.00    +0.000 HD
ENDBRANCH   1  23
TORSDOF 7
ENDMDL
MODEL 8
REMARK VINA RESULT:      -6.8      1.645      2.158
REMARK  Name = 
REMARK  9 active torsions:
REMARK  status: ('A' for Active; 'I' for Inactive)
REMARK    1  A    between atoms: C_1  and  C_2
REMARK    2  A    between atoms: C_2  and  C_3
REMARK    3  A    between atoms: C_2  and  S_4
REMARK    4  A    between atoms: C_2  and  C_12
REMARK    5  A    between atoms: S_4  and  C_5
REMARK    6  A    between atoms: C_5  and  C_6
REMARK    7  A    between atoms: C_12  and  N_13
REMARK    8  A    between atoms: C_12  and  C_14
REMARK    9  A    between atoms: C_21  and  C_22
REMARK                            x       y       z     vdW  Elec       q    Type
REMARK                         _______ _______ _______ _____ _____    ______ ____
ROOT
ATOM      1  C   UNL     1       5.127   5.087  19.039  0.00  0.00    +0.000 C 
ENDROOT
BRANCH   1   2
ATOM      2  C   UNL     1       4.528   3.912  19.878  0.00  0.00    +0.000 C 
ATOM      3  O   UNL     1       5.220   2.956  20.228  0.00  0.00    +0.000 OA
ATOM      4  N   UNL     1       3.227   4.018  20.339  0.00  0.00    +0.000 N 
ATOM      5  C   UNL     1       2.708   3.063  21.305  0.00  0.00    +0.000 C 
ATOM      6  C   UNL     1       1.334   2.717  20.776  0.00  0.00    +0.000 C 
ATOM      7  F   UNL     1       0.497   2.383  21.786  0.00  0.00    +0.000 F 
ATOM      8  C   UNL     1       0.851   3.996  20.103  0.00  0.00    +0.000 C 
ATOM      9  C   UNL     1       2.124   4.800  19.768  0.00  0.00    +0.000 C 
BRANCH   9  10
ATOM     10  C   UNL     1       2.033   6.156  20.349  0.00  0.00    +0.000 C 
ATOM     11  N   UNL     1       1.960   7.211  20.824  0.00  0.00    +0.000 NA
ENDBRANCH   9  10
ENDBRANCH   1   2
BRANCH   1  13
ATOM     12  C   UNL     1       4.649   6.065  16.714  0.00  0.00    +0.000 C 
ATOM     13  C   UNL     1       5.141   4.826  17.481  0.00  0.00    +0.000 C 
ATOM     14  C   UNL     1       4.303   3.606  17.035  0.00  0.00    +0.000 C 
BRANCH  13  15
ATOM     15  S   UNL     1       6.866   4.404  16.848  0.00  0.00    +0.000 S 
BRANCH  15  16
ATOM     16  C   UNL     1       7.036   5.509  15.409  0.00  0.00    +0.000 C 
BRANCH  16  17
ATOM     17  C   UNL     1       6.882   4.801  14.080  0.00  0.00    +0.000 A 
ATOM     18  C   UNL     1       7.720   5.097  13.009  0.00  0.00    +0.000 A 
ATOM     19  C   UNL     1       7.508   4.458  11.788  0.00  0.00    +0.000 A 
ATOM     20  C   UNL     1       6.463   3.551  11.667  0.00  0.00    +0.000 A 
ATOM     21  C   UNL     1       5.670   3.316  12.775  0.00  0.00    +0.000 A 
ATOM     22  N   UNL     1       5.850   3.923  13.972  0.00  0.00    +0.000 NA
ENDBRANCH  16  17
ENDBRANCH  15  16
ENDBRANCH  13  15
ENDBRANCH   1  13
BRANCH   1  23
ATOM     23  N   UNL     1       6.476   5.364  19.585  0.00  0.00    +0.000 NA
ATOM     24  H   UNL     1       7.081   4.562  19.394  0.00  0.00    +0.000 HD
ATOM     25  H   UNL     1       6.444   5.439  20.603  0.00  0.00    +0.000 HD
ENDBRANCH   1  23
TORSDOF 7
ENDMDL
MODEL 9
REMARK VINA RESULT:      -6.8      1.981      2.713
REMARK  Name = 
REMARK  9 active torsions:
REMARK  status: ('A' for Active; 'I' for Inactive)
REMARK    1  A    between atoms: C_1  and  C_2
REMARK    2  A    between atoms: C_2  and  C_3
REMARK    3  A    between atoms: C_2  and  S_4
REMARK    4  A    between atoms: C_2  and  C_12
REMARK    5  A    between atoms: S_4  and  C_5
REMARK    6  A    between atoms: C_5  and  C_6
REMARK    7  A    between atoms: C_12  and  N_13
REMARK    8  A    between atoms: C_12  and  C_14
REMARK    9  A    between atoms: C_21  and  C_22
REMARK                            x       y       z     vdW  Elec       q    Type
REMARK                         _______ _______ _______ _____ _____    ______ ____
ROOT
ATOM      1  C   UNL     1       5.064   6.110  16.946  0.00  0.00    +0.000 C 
ENDROOT
BRANCH   1   2
ATOM      2  C   UNL     1       3.945   6.683  17.876  0.00  0.00    +0.000 C 
ATOM      3  O   UNL     1       3.754   7.894  17.980  0.00  0.00    +0.000 OA
ATOM      4  N   UNL     1       3.075   5.799  18.492  0.00  0.00    +0.000 N 
ATOM      5  C   UNL     1       1.890   6.290  19.177  0.00  0.00    +0.000 C 
ATOM      6  C   UNL     1       1.867   5.511  20.473  0.00  0.00    +0.000 C 
ATOM      7  F   UNL     1       0.599   5.351  20.918  0.00  0.00    +0.000 F 
ATOM      8  C   UNL     1       2.466   4.157  20.115  0.00  0.00    +0.000 C 
ATOM      9  C   UNL     1       3.309   4.394  18.845  0.00  0.00    +0.000 C 
BRANCH   9  10
ATOM     10  C   UNL     1       2.885   3.464  17.776  0.00  0.00    +0.000 C 
ATOM     11  N   UNL     1       2.534   2.743  16.940  0.00  0.00    +0.000 NA
ENDBRANCH   9  10
ENDBRANCH   1   2
BRANCH   1  13
ATOM     12  C   UNL     1       6.304   5.741  19.164  0.00  0.00    +0.000 C 
ATOM     13  C   UNL     1       6.470   5.954  17.649  0.00  0.00    +0.000 C 
ATOM     14  C   UNL     1       7.428   7.145  17.422  0.00  0.00    +0.000 C 
BRANCH  13  15
ATOM     15  S   UNL     1       7.446   4.493  16.965  0.00  0.00    +0.000 S 
BRANCH  15  16
ATOM     16  C   UNL     1       6.302   3.805  15.725  0.00  0.00    +0.000 C 
BRANCH  16  17
ATOM     17  C   UNL     1       6.664   4.167  14.300  0.00  0.00    +0.000 A 
ATOM     18  C   UNL     1       6.169   3.434  13.226  0.00  0.00    +0.000 A 
ATOM     19  C   UNL     1       6.571   3.771  11.934  0.00  0.00    +0.000 A 
ATOM     20  C   UNL     1       7.461   4.822  11.751  0.00  0.00    +0.000 A 
ATOM     21  C   UNL     1       7.914   5.497  12.870  0.00  0.00    +0.000 A 
ATOM     22  N   UNL     1       7.543   5.192  14.136  0.00  0.00    +0.000 NA
ENDBRANCH  16  17
ENDBRANCH  15  16
ENDBRANCH  13  15
ENDBRANCH   1  13
BRANCH   1  23
ATOM     23  N   UNL     1       5.117   6.981  15.748  0.00  0.00    +0.000 NA
ATOM     24  H   UNL     1       5.177   6.392  14.914  0.00  0.00    +0.000 HD
ATOM     25  H   UNL     1       5.972   7.538  15.745  0.00  0.00    +0.000 HD
ENDBRANCH   1  23
TORSDOF 7
ENDMDL
