MODEL 1
REMARK VINA RESULT:      -8.3      0.000      0.000
REMARK  Name = 
REMARK  5 active torsions:
REMARK  status: ('A' for Active; 'I' for Inactive)
REMARK    1  A    between atoms: N_3  and  C_4
REMARK    2  A    between atoms: N_17  and  C_18
REMARK    3  A    between atoms: C_18  and  C_19
REMARK    4  A    between atoms: C_23  and  O_24
REMARK    5  A    between atoms: O_24  and  C_25
REMARK                            x       y       z     vdW  Elec       q    Type
REMARK                         _______ _______ _______ _____ _____    ______ ____
ROOT
ATOM      1  O   UNL     1       9.143  16.374  17.376  0.00  0.00    +0.000 OA
ATOM      2  C   UNL     1       9.379  15.700  18.377  0.00  0.00    +0.000 C 
ATOM      3  N   UNL     1       8.778  15.880  19.600  0.00  0.00    +0.000 N 
ATOM      4  N   UNL     1      10.314  14.654  18.384  0.00  0.00    +0.000 N 
ATOM      5  C   UNL     1      11.251  14.503  17.270  0.00  0.00    +0.000 C 
ATOM      6  C   UNL     1      11.350  13.060  16.768  0.00  0.00    +0.000 C 
ATOM      7  C   UNL     1      11.455  12.040  17.910  0.00  0.00    +0.000 C 
ATOM      8  C   UNL     1      10.340  12.240  18.956  0.00  0.00    +0.000 C 
ATOM      9  C   UNL     1      10.448  11.255  20.140  0.00  0.00    +0.000 C 
ATOM     10  C   UNL     1       9.078  10.584  20.232  0.00  0.00    +0.000 C 
ATOM     11  N   UNL     1       8.518  10.639  18.875  0.00  0.00    +0.000 NA
ATOM     12  C   UNL     1       8.921  11.972  18.401  0.00  0.00    +0.000 C 
ATOM     13  C   UNL     1      10.473  13.679  19.469  0.00  0.00    +0.000 C 
ATOM     14  H   UNL     1       9.317  15.546  20.378  0.00  0.00    +0.000 HD
ENDROOT
BRANCH   3  15
ATOM     15  C   UNL     1       7.687  16.677  19.973  0.00  0.00    +0.000 A 
ATOM     16  C   UNL     1       7.764  17.956  20.498  0.00  0.00    +0.000 A 
ATOM     17  C   UNL     1       6.579  18.613  20.849  0.00  0.00    +0.000 A 
ATOM     18  C   UNL     1       5.367  17.972  20.644  0.00  0.00    +0.000 A 
ATOM     19  N   UNL     1       5.252  16.744  20.106  0.00  0.00    +0.000 NA
ATOM     20  C   UNL     1       6.413  16.132  19.782  0.00  0.00    +0.000 A 
ENDBRANCH   3  15
BRANCH  11  21
ATOM     21  C   UNL     1       9.026   9.524  18.061  0.00  0.00    +0.000 C 
BRANCH  21  22
ATOM     22  C   UNL     1       8.241   8.234  18.173  0.00  0.00    +0.000 A 
ATOM     23  C   UNL     1       8.576   7.272  19.136  0.00  0.00    +0.000 A 
ATOM     24  C   UNL     1       7.898   6.052  19.183  0.00  0.00    +0.000 A 
ATOM     25  C   UNL     1       6.888   5.775  18.262  0.00  0.00    +0.000 A 
ATOM     26  C   UNL     1       6.547   6.719  17.292  0.00  0.00    +0.000 A 
ATOM     27  C   UNL     1       7.199   7.956  17.273  0.00  0.00    +0.000 A 
BRANCH  26  28
ATOM     28  O   UNL     1       5.529   6.365  16.433  0.00  0.00    +0.000 OA
BRANCH  28  29
ATOM     29  C   UNL     1       4.484   5.591  16.896  0.00  0.00    +0.000 A 
ATOM     30  C   UNL     1       4.347   4.229  16.602  0.00  0.00    +0.000 A 
ATOM     31  C   UNL     1       3.246   3.521  17.087  0.00  0.00    +0.000 A 
ATOM     32  C   UNL     1       2.319   4.161  17.909  0.00  0.00    +0.000 A 
ATOM     33 CL   UNL     1       0.954   3.291  18.490  0.00  0.00    +0.000 Cl
ATOM     34  C   UNL     1       2.492   5.498  18.261  0.00  0.00    +0.000 A 
ATOM     35  C   UNL     1       3.581   6.213  17.755  0.00  0.00    +0.000 A 
ENDBRANCH  28  29
ENDBRANCH  26  28
ENDBRANCH  21  22
ENDBRANCH  11  21
TORSDOF 5
ENDMDL
MODEL 2
REMARK VINA RESULT:      -7.8      2.589      3.191
REMARK  Name = 
REMARK  5 active torsions:
REMARK  status: ('A' for Active; 'I' for Inactive)
REMARK    1  A    between atoms: N_3  and  C_4
REMARK    2  A    between atoms: N_17  and  C_18
REMARK    3  A    between atoms: C_18  and  C_19
REMARK    4  A    between atoms: C_23  and  O_24
REMARK    5  A    between atoms: O_24  and  C_25
REMARK                            x       y       z     vdW  Elec       q    Type
REMARK                         _______ _______ _______ _____ _____    ______ ____
ROOT
ATOM      1  O   UNL     1       6.635  15.206  21.269  0.00  0.00    +0.000 OA
ATOM      2  C   UNL     1       7.763  14.829  20.958  0.00  0.00    +0.000 C 
ATOM      3  N   UNL     1       8.807  14.679  21.840  0.00  0.00    +0.000 N 
ATOM      4  N   UNL     1       8.121  14.509  19.640  0.00  0.00    +0.000 N 
ATOM      5  C   UNL     1       7.239  14.879  18.533  0.00  0.00    +0.000 C 
ATOM      6  C   UNL     1       7.020  13.736  17.538  0.00  0.00    +0.000 C 
ATOM      7  C   UNL     1       8.322  13.006  17.178  0.00  0.00    +0.000 C 
ATOM      8  C   UNL     1       9.097  12.571  18.438  0.00  0.00    +0.000 C 
ATOM      9  C   UNL     1      10.434  11.873  18.104  0.00  0.00    +0.000 C 
ATOM     10  C   UNL     1      10.390  10.542  18.855  0.00  0.00    +0.000 C 
ATOM     11  N   UNL     1       8.965  10.213  18.996  0.00  0.00    +0.000 NA
ATOM     12  C   UNL     1       8.349  11.517  19.287  0.00  0.00    +0.000 C 
ATOM     13  C   UNL     1       9.368  13.844  19.247  0.00  0.00    +0.000 C 
ATOM     14  H   UNL     1       9.716  14.745  21.419  0.00  0.00    +0.000 HD
ENDROOT
BRANCH   3  15
ATOM     15  C   UNL     1       8.832  14.720  23.241  0.00  0.00    +0.000 A 
ATOM     16  C   UNL     1       8.355  13.733  24.087  0.00  0.00    +0.000 A 
ATOM     17  C   UNL     1       8.427  13.936  25.469  0.00  0.00    +0.000 A 
ATOM     18  C   UNL     1       8.986  15.110  25.948  0.00  0.00    +0.000 A 
ATOM     19  N   UNL     1       9.490  16.076  25.159  0.00  0.00    +0.000 NA
ATOM     20  C   UNL     1       9.402  15.854  23.828  0.00  0.00    +0.000 A 
ENDBRANCH   3  15
BRANCH  11  21
ATOM     21  C   UNL     1       8.463   9.560  17.777  0.00  0.00    +0.000 C 
BRANCH  21  22
ATOM     22  C   UNL     1       7.882   8.177  17.980  0.00  0.00    +0.000 A 
ATOM     23  C   UNL     1       8.419   7.307  18.938  0.00  0.00    +0.000 A 
ATOM     24  C   UNL     1       7.930   6.006  19.068  0.00  0.00    +0.000 A 
ATOM     25  C   UNL     1       6.908   5.555  18.232  0.00  0.00    +0.000 A 
ATOM     26  C   UNL     1       6.366   6.405  17.268  0.00  0.00    +0.000 A 
ATOM     27  C   UNL     1       6.829   7.721  17.168  0.00  0.00    +0.000 A 
BRANCH  26  28
ATOM     28  O   UNL     1       5.352   5.880  16.496  0.00  0.00    +0.000 OA
BRANCH  28  29
ATOM     29  C   UNL     1       4.278   5.267  17.109  0.00  0.00    +0.000 A 
ATOM     30  C   UNL     1       3.338   5.958  17.885  0.00  0.00    +0.000 A 
ATOM     31  C   UNL     1       2.293   5.261  18.493  0.00  0.00    +0.000 A 
ATOM     32  C   UNL     1       2.159   3.890  18.280  0.00  0.00    +0.000 A 
ATOM     33 CL   UNL     1       0.881   3.030  19.048  0.00  0.00    +0.000 Cl
ATOM     34  C   UNL     1       3.052   3.213  17.451  0.00  0.00    +0.000 A 
ATOM     35  C   UNL     1       4.111   3.907  16.861  0.00  0.00    +0.000 A 
ENDBRANCH  28  29
ENDBRANCH  26  28
ENDBRANCH  21  22
ENDBRANCH  11  21
TORSDOF 5
ENDMDL
MODEL 3
REMARK VINA RESULT:      -7.7      0.802      1.198
REMARK  Name = 
REMARK  5 active torsions:
REMARK  status: ('A' for Active; 'I' for Inactive)
REMARK    1  A    between atoms: N_3  and  C_4
REMARK    2  A    between atoms: N_17  and  C_18
REMARK    3  A    between atoms: C_18  and  C_19
REMARK    4  A    between atoms: C_23  and  O_24
REMARK    5  A    between atoms: O_24  and  C_25
REMARK                            x       y       z     vdW  Elec       q    Type
REMARK                         _______ _______ _______ _____ _____    ______ ____
ROOT
ATOM      1  O   UNL     1       9.864  16.364  17.365  0.00  0.00    +0.000 OA
ATOM      2  C   UNL     1      10.025  15.598  18.312  0.00  0.00    +0.000 C 
ATOM      3  N   UNL     1       9.499  15.787  19.569  0.00  0.00    +0.000 N 
ATOM      4  N   UNL     1      10.786  14.422  18.218  0.00  0.00    +0.000 N 
ATOM      5  C   UNL     1      11.651  14.203  17.058  0.00  0.00    +0.000 C 
ATOM      6  C   UNL     1      11.509  12.798  16.467  0.00  0.00    +0.000 C 
ATOM      7  C   UNL     1      11.491  11.702  17.541  0.00  0.00    +0.000 C 
ATOM      8  C   UNL     1      10.455  12.001  18.643  0.00  0.00    +0.000 C 
ATOM      9  C   UNL     1      10.448  10.935  19.761  0.00  0.00    +0.000 C 
ATOM     10  C   UNL     1       8.994  10.478  19.871  0.00  0.00    +0.000 C 
ATOM     11  N   UNL     1       8.406  10.706  18.544  0.00  0.00    +0.000 NA
ATOM     12  C   UNL     1       8.995  11.990  18.134  0.00  0.00    +0.000 C 
ATOM     13  C   UNL     1      10.826  13.366  19.235  0.00  0.00    +0.000 C 
ATOM     14  H   UNL     1      10.005  15.324  20.302  0.00  0.00    +0.000 HD
ENDROOT
BRANCH   3  15
ATOM     15  C   UNL     1       8.558  16.715  20.034  0.00  0.00    +0.000 A 
ATOM     16  C   UNL     1       8.826  17.785  20.872  0.00  0.00    +0.000 A 
ATOM     17  C   UNL     1       7.767  18.609  21.272  0.00  0.00    +0.000 A 
ATOM     18  C   UNL     1       6.490  18.339  20.806  0.00  0.00    +0.000 A 
ATOM     19  N   UNL     1       6.199  17.329  19.966  0.00  0.00    +0.000 NA
ATOM     20  C   UNL     1       7.239  16.547  19.601  0.00  0.00    +0.000 A 
ENDBRANCH   3  15
BRANCH  11  21
ATOM     21  C   UNL     1       8.708   9.582  17.644  0.00  0.00    +0.000 C 
BRANCH  21  22
ATOM     22  C   UNL     1       7.976   8.294  17.955  0.00  0.00    +0.000 A 
ATOM     23  C   UNL     1       8.555   7.322  18.782  0.00  0.00    +0.000 A 
ATOM     24  C   UNL     1       7.910   6.103  19.002  0.00  0.00    +0.000 A 
ATOM     25  C   UNL     1       6.686   5.837  18.388  0.00  0.00    +0.000 A 
ATOM     26  C   UNL     1       6.098   6.790  17.556  0.00  0.00    +0.000 A 
ATOM     27  C   UNL     1       6.726   8.027  17.370  0.00  0.00    +0.000 A 
BRANCH  26  28
ATOM     28  O   UNL     1       4.883   6.447  17.003  0.00  0.00    +0.000 OA
BRANCH  28  29
ATOM     29  C   UNL     1       3.902   5.898  17.802  0.00  0.00    +0.000 A 
ATOM     30  C   UNL     1       3.508   6.453  19.027  0.00  0.00    +0.000 A 
ATOM     31  C   UNL     1       2.524   5.822  19.790  0.00  0.00    +0.000 A 
ATOM     32  C   UNL     1       1.900   4.674  19.304  0.00  0.00    +0.000 A 
ATOM     33 CL   UNL     1       0.702   3.888  20.256  0.00  0.00    +0.000 Cl
ATOM     34  C   UNL     1       2.241   4.161  18.053  0.00  0.00    +0.000 A 
ATOM     35  C   UNL     1       3.242   4.779  17.300  0.00  0.00    +0.000 A 
ENDBRANCH  28  29
ENDBRANCH  26  28
ENDBRANCH  21  22
ENDBRANCH  11  21
TORSDOF 5
ENDMDL
MODEL 4
REMARK VINA RESULT:      -7.6      4.838      7.469
REMARK  Name = 
REMARK  5 active torsions:
REMARK  status: ('A' for Active; 'I' for Inactive)
REMARK    1  A    between atoms: N_3  and  C_4
REMARK    2  A    between atoms: N_17  and  C_18
REMARK    3  A    between atoms: C_18  and  C_19
REMARK    4  A    between atoms: C_23  and  O_24
REMARK    5  A    between atoms: O_24  and  C_25
REMARK                            x       y       z     vdW  Elec       q    Type
REMARK                         _______ _______ _______ _____ _____    ______ ____
ROOT
ATOM      1  O   UNL     1       1.465  14.450  22.338  0.00  0.00    +0.000 OA
ATOM      2  C   UNL     1       1.094  13.983  21.264  0.00  0.00    +0.000 C 
ATOM      3  N   UNL     1       1.579  14.367  20.036  0.00  0.00    +0.000 N 
ATOM      4  N   UNL     1       0.109  12.988  21.168  0.00  0.00    +0.000 N 
ATOM      5  C   UNL     1      -0.718  12.664  22.330  0.00  0.00    +0.000 C 
ATOM      6  C   UNL     1      -0.843  11.157  22.570  0.00  0.00    +0.000 C 
ATOM      7  C   UNL     1      -1.116  10.372  21.280  0.00  0.00    +0.000 C 
ATOM      8  C   UNL     1      -0.102  10.725  20.173  0.00  0.00    +0.000 C 
ATOM      9  C   UNL     1      -0.381   9.982  18.849  0.00  0.00    +0.000 C 
ATOM     10  C   UNL     1       0.936   9.294  18.489  0.00  0.00    +0.000 C 
ATOM     11  N   UNL     1       1.631   9.077  19.765  0.00  0.00    +0.000 NA
ATOM     12  C   UNL     1       1.349  10.311  20.514  0.00  0.00    +0.000 C 
ATOM     13  C   UNL     1      -0.209  12.238  19.948  0.00  0.00    +0.000 C 
ATOM     14  H   UNL     1       0.948  14.201  19.273  0.00  0.00    +0.000 HD
ENDROOT
BRANCH   3  15
ATOM     15  C   UNL     1       2.667  15.182  19.698  0.00  0.00    +0.000 A 
ATOM     16  C   UNL     1       2.795  16.527  20.004  0.00  0.00    +0.000 A 
ATOM     17  C   UNL     1       3.935  17.212  19.570  0.00  0.00    +0.000 A 
ATOM     18  C   UNL     1       4.907  16.521  18.862  0.00  0.00    +0.000 A 
ATOM     19  N   UNL     1       4.833  15.209  18.576  0.00  0.00    +0.000 NA
ATOM     20  C   UNL     1       3.719  14.575  19.003  0.00  0.00    +0.000 A 
ENDBRANCH   3  15
BRANCH  11  21
ATOM     21  C   UNL     1       1.148   7.847  20.413  0.00  0.00    +0.000 C 
BRANCH  21  22
ATOM     22  C   UNL     1       1.962   6.604  20.122  0.00  0.00    +0.000 A 
ATOM     23  C   UNL     1       1.438   5.329  20.374  0.00  0.00    +0.000 A 
ATOM     24  C   UNL     1       2.220   4.190  20.177  0.00  0.00    +0.000 A 
ATOM     25  C   UNL     1       3.539   4.313  19.739  0.00  0.00    +0.000 A 
ATOM     26  C   UNL     1       4.079   5.574  19.490  0.00  0.00    +0.000 A 
ATOM     27  C   UNL     1       3.280   6.712  19.648  0.00  0.00    +0.000 A 
BRANCH  26  28
ATOM     28  O   UNL     1       5.385   5.600  19.047  0.00  0.00    +0.000 OA
BRANCH  28  29
ATOM     29  C   UNL     1       5.656   5.366  17.714  0.00  0.00    +0.000 A 
ATOM     30  C   UNL     1       4.905   5.918  16.668  0.00  0.00    +0.000 A 
ATOM     31  C   UNL     1       5.228   5.612  15.345  0.00  0.00    +0.000 A 
ATOM     32  C   UNL     1       6.331   4.804  15.071  0.00  0.00    +0.000 A 
ATOM     33 CL   UNL     1       6.715   4.413  13.440  0.00  0.00    +0.000 Cl
ATOM     34  C   UNL     1       7.122   4.312  16.108  0.00  0.00    +0.000 A 
ATOM     35  C   UNL     1       6.784   4.599  17.433  0.00  0.00    +0.000 A 
ENDBRANCH  28  29
ENDBRANCH  26  28
ENDBRANCH  21  22
ENDBRANCH  11  21
TORSDOF 5
ENDMDL
MODEL 5
REMARK VINA RESULT:      -7.5      4.388      7.448
REMARK  Name = 
REMARK  5 active torsions:
REMARK  status: ('A' for Active; 'I' for Inactive)
REMARK    1  A    between atoms: N_3  and  C_4
REMARK    2  A    between atoms: N_17  and  C_18
REMARK    3  A    between atoms: C_18  and  C_19
REMARK    4  A    between atoms: C_23  and  O_24
REMARK    5  A    between atoms: O_24  and  C_25
REMARK                            x       y       z     vdW  Elec       q    Type
REMARK                         _______ _______ _______ _____ _____    ______ ____
ROOT
ATOM      1  O   UNL     1       1.952  13.814  21.728  0.00  0.00    +0.000 OA
ATOM      2  C   UNL     1       1.484  13.424  20.661  0.00  0.00    +0.000 C 
ATOM      3  N   UNL     1       1.798  13.952  19.430  0.00  0.00    +0.000 N 
ATOM      4  N   UNL     1       0.552  12.378  20.576  0.00  0.00    +0.000 N 
ATOM      5  C   UNL     1      -0.112  11.893  21.786  0.00  0.00    +0.000 C 
ATOM      6  C   UNL     1      -0.123  10.365  21.886  0.00  0.00    +0.000 C 
ATOM      7  C   UNL     1      -0.500   9.686  20.563  0.00  0.00    +0.000 C 
ATOM      8  C   UNL     1       0.354  10.209  19.390  0.00  0.00    +0.000 C 
ATOM      9  C   UNL     1      -0.037   9.574  18.038  0.00  0.00    +0.000 C 
ATOM     10  C   UNL     1       1.266   9.014  17.466  0.00  0.00    +0.000 C 
ATOM     11  N   UNL     1       2.117   8.726  18.628  0.00  0.00    +0.000 NA
ATOM     12  C   UNL     1       1.856   9.864  19.523  0.00  0.00    +0.000 C 
ATOM     13  C   UNL     1       0.136  11.725  19.331  0.00  0.00    +0.000 C 
ATOM     14  H   UNL     1       1.091  13.816  18.731  0.00  0.00    +0.000 HD
ENDROOT
BRANCH   3  15
ATOM     15  C   UNL     1       2.791  14.867  19.056  0.00  0.00    +0.000 A 
ATOM     16  C   UNL     1       3.844  14.609  18.194  0.00  0.00    +0.000 A 
ATOM     17  C   UNL     1       4.773  15.624  17.941  0.00  0.00    +0.000 A 
ATOM     18  C   UNL     1       4.604  16.859  18.548  0.00  0.00    +0.000 A 
ATOM     19  N   UNL     1       3.576  17.156  19.365  0.00  0.00    +0.000 NA
ATOM     20  C   UNL     1       2.698  16.155  19.594  0.00  0.00    +0.000 A 
ENDBRANCH   3  15
BRANCH  11  21
ATOM     21  C   UNL     1       1.785   7.412  19.200  0.00  0.00    +0.000 C 
BRANCH  21  22
ATOM     22  C   UNL     1       2.470   6.232  18.544  0.00  0.00    +0.000 A 
ATOM     23  C   UNL     1       1.811   5.003  18.411  0.00  0.00    +0.000 A 
ATOM     24  C   UNL     1       2.475   3.897  17.876  0.00  0.00    +0.000 A 
ATOM     25  C   UNL     1       3.809   4.005  17.480  0.00  0.00    +0.000 A 
ATOM     26  C   UNL     1       4.482   5.219  17.612  0.00  0.00    +0.000 A 
ATOM     27  C   UNL     1       3.803   6.336  18.109  0.00  0.00    +0.000 A 
BRANCH  26  28
ATOM     28  O   UNL     1       5.792   5.236  17.182  0.00  0.00    +0.000 OA
BRANCH  28  29
ATOM     29  C   UNL     1       6.652   6.206  17.657  0.00  0.00    +0.000 A 
ATOM     30  C   UNL     1       7.570   5.981  18.691  0.00  0.00    +0.000 A 
ATOM     31  C   UNL     1       8.388   7.023  19.131  0.00  0.00    +0.000 A 
ATOM     32  C   UNL     1       8.325   8.266  18.502  0.00  0.00    +0.000 A 
ATOM     33 CL   UNL     1       9.320   9.553  19.061  0.00  0.00    +0.000 Cl
ATOM     34  C   UNL     1       7.463   8.471  17.427  0.00  0.00    +0.000 A 
ATOM     35  C   UNL     1       6.627   7.435  17.001  0.00  0.00    +0.000 A 
ENDBRANCH  28  29
ENDBRANCH  26  28
ENDBRANCH  21  22
ENDBRANCH  11  21
TORSDOF 5
ENDMDL
MODEL 6
REMARK VINA RESULT:      -7.5      4.646      7.319
REMARK  Name = 
REMARK  5 active torsions:
REMARK  status: ('A' for Active; 'I' for Inactive)
REMARK    1  A    between atoms: N_3  and  C_4
REMARK    2  A    between atoms: N_17  and  C_18
REMARK    3  A    between atoms: C_18  and  C_19
REMARK    4  A    between atoms: C_23  and  O_24
REMARK    5  A    between atoms: O_24  and  C_25
REMARK                            x       y       z     vdW  Elec       q    Type
REMARK                         _______ _______ _______ _____ _____    ______ ____
ROOT
ATOM      1  O   UNL     1       2.167  13.773  21.560  0.00  0.00    +0.000 OA
ATOM      2  C   UNL     1       1.725  13.323  20.506  0.00  0.00    +0.000 C 
ATOM      3  N   UNL     1       2.100  13.750  19.254  0.00  0.00    +0.000 N 
ATOM      4  N   UNL     1       0.761  12.303  20.460  0.00  0.00    +0.000 N 
ATOM      5  C   UNL     1       0.038  11.927  21.675  0.00  0.00    +0.000 C 
ATOM      6  C   UNL     1      -0.028  10.411  21.883  0.00  0.00    +0.000 C 
ATOM      7  C   UNL     1      -0.381   9.651  20.597  0.00  0.00    +0.000 C 
ATOM      8  C   UNL     1       0.532  10.060  19.424  0.00  0.00    +0.000 C 
ATOM      9  C   UNL     1       0.169   9.342  18.106  0.00  0.00    +0.000 C 
ATOM     10  C   UNL     1       1.471   8.702  17.625  0.00  0.00    +0.000 C 
ATOM     11  N   UNL     1       2.270   8.472  18.836  0.00  0.00    +0.000 NA
ATOM     12  C   UNL     1       2.016   9.679  19.638  0.00  0.00    +0.000 C 
ATOM     13  C   UNL     1       0.368  11.575  19.249  0.00  0.00    +0.000 C 
ATOM     14  H   UNL     1       1.415  13.586  18.539  0.00  0.00    +0.000 HD
ENDROOT
BRANCH   3  15
ATOM     15  C   UNL     1       3.137  14.604  18.854  0.00  0.00    +0.000 A 
ATOM     16  C   UNL     1       4.446  14.226  18.608  0.00  0.00    +0.000 A 
ATOM     17  C   UNL     1       5.374  15.207  18.241  0.00  0.00    +0.000 A 
ATOM     18  C   UNL     1       4.953  16.521  18.121  0.00  0.00    +0.000 A 
ATOM     19  N   UNL     1       3.683  16.921  18.320  0.00  0.00    +0.000 NA
ATOM     20  C   UNL     1       2.810  15.953  18.678  0.00  0.00    +0.000 A 
ENDBRANCH   3  15
BRANCH  11  21
ATOM     21  C   UNL     1       1.873   7.214  19.487  0.00  0.00    +0.000 C 
BRANCH  21  22
ATOM     22  C   UNL     1       2.311   5.953  18.772  0.00  0.00    +0.000 A 
ATOM     23  C   UNL     1       1.368   5.011  18.339  0.00  0.00    +0.000 A 
ATOM     24  C   UNL     1       1.782   3.814  17.750  0.00  0.00    +0.000 A 
ATOM     25  C   UNL     1       3.142   3.541  17.599  0.00  0.00    +0.000 A 
ATOM     26  C   UNL     1       4.094   4.465  18.030  0.00  0.00    +0.000 A 
ATOM     27  C   UNL     1       3.676   5.681  18.582  0.00  0.00    +0.000 A 
BRANCH  26  28
ATOM     28  O   UNL     1       5.412   4.118  17.828  0.00  0.00    +0.000 OA
BRANCH  28  29
ATOM     29  C   UNL     1       6.025   4.435  16.633  0.00  0.00    +0.000 A 
ATOM     30  C   UNL     1       6.984   5.448  16.506  0.00  0.00    +0.000 A 
ATOM     31  C   UNL     1       7.539   5.726  15.256  0.00  0.00    +0.000 A 
ATOM     32  C   UNL     1       7.177   4.956  14.151  0.00  0.00    +0.000 A 
ATOM     33 CL   UNL     1       7.848   5.314  12.608  0.00  0.00    +0.000 Cl
ATOM     34  C   UNL     1       6.276   3.902  14.290  0.00  0.00    +0.000 A 
ATOM     35  C   UNL     1       5.703   3.639  15.537  0.00  0.00    +0.000 A 
ENDBRANCH  28  29
ENDBRANCH  26  28
ENDBRANCH  21  22
ENDBRANCH  11  21
TORSDOF 5
ENDMDL
MODEL 7
REMARK VINA RESULT:      -7.4      9.219     12.401
REMARK  Name = 
REMARK  5 active torsions:
REMARK  status: ('A' for Active; 'I' for Inactive)
REMARK    1  A    between atoms: N_3  and  C_4
REMARK    2  A    between atoms: N_17  and  C_18
REMARK    3  A    between atoms: C_18  and  C_19
REMARK    4  A    between atoms: C_23  and  O_24
REMARK    5  A    between atoms: O_24  and  C_25
REMARK                            x       y       z     vdW  Elec       q    Type
REMARK                         _______ _______ _______ _____ _____    ______ ____
ROOT
ATOM      1  O   UNL     1      -0.218  14.067  20.913  0.00  0.00    +0.000 OA
ATOM      2  C   UNL     1      -0.962  14.838  21.516  0.00  0.00    +0.000 C 
ATOM      3  N   UNL     1      -1.014  16.196  21.309  0.00  0.00    +0.000 N 
ATOM      4  N   UNL     1      -1.858  14.409  22.507  0.00  0.00    +0.000 N 
ATOM      5  C   UNL     1      -1.743  13.060  23.062  0.00  0.00    +0.000 C 
ATOM      6  C   UNL     1      -3.089  12.335  23.146  0.00  0.00    +0.000 C 
ATOM      7  C   UNL     1      -4.209  13.225  23.702  0.00  0.00    +0.000 C 
ATOM      8  C   UNL     1      -4.293  14.570  22.953  0.00  0.00    +0.000 C 
ATOM      9  C   UNL     1      -5.383  15.503  23.523  0.00  0.00    +0.000 C 
ATOM     10  C   UNL     1      -6.249  15.889  22.323  0.00  0.00    +0.000 C 
ATOM     11  N   UNL     1      -6.118  14.781  21.368  0.00  0.00    +0.000 NA
ATOM     12  C   UNL     1      -4.695  14.421  21.467  0.00  0.00    +0.000 C 
ATOM     13  C   UNL     1      -2.919  15.236  23.092  0.00  0.00    +0.000 C 
ATOM     14  H   UNL     1      -1.355  16.720  22.094  0.00  0.00    +0.000 HD
ENDROOT
BRANCH   3  15
ATOM     15  C   UNL     1      -0.430  16.991  20.313  0.00  0.00    +0.000 A 
ATOM     16  C   UNL     1      -0.818  17.035  18.984  0.00  0.00    +0.000 A 
ATOM     17  C   UNL     1      -0.113  17.863  18.103  0.00  0.00    +0.000 A 
ATOM     18  C   UNL     1       0.940  18.622  18.590  0.00  0.00    +0.000 A 
ATOM     19  N   UNL     1       1.324  18.630  19.879  0.00  0.00    +0.000 NA
ATOM     20  C   UNL     1       0.628  17.817  20.705  0.00  0.00    +0.000 A 
ENDBRANCH   3  15
BRANCH  11  21
ATOM     21  C   UNL     1      -7.047  13.692  21.708  0.00  0.00    +0.000 C 
BRANCH  21  22
ATOM     22  C   UNL     1      -6.961  12.471  20.818  0.00  0.00    +0.000 A 
ATOM     23  C   UNL     1      -7.640  11.291  21.151  0.00  0.00    +0.000 A 
ATOM     24  C   UNL     1      -7.495  10.144  20.367  0.00  0.00    +0.000 A 
ATOM     25  C   UNL     1      -6.658  10.160  19.251  0.00  0.00    +0.000 A 
ATOM     26  C   UNL     1      -5.969  11.323  18.909  0.00  0.00    +0.000 A 
ATOM     27  C   UNL     1      -6.148  12.483  19.671  0.00  0.00    +0.000 A 
BRANCH  26  28
ATOM     28  O   UNL     1      -5.177  11.251  17.783  0.00  0.00    +0.000 OA
BRANCH  28  29
ATOM     29  C   UNL     1      -3.823  11.018  17.916  0.00  0.00    +0.000 A 
ATOM     30  C   UNL     1      -3.019  11.673  18.859  0.00  0.00    +0.000 A 
ATOM     31  C   UNL     1      -1.651  11.400  18.913  0.00  0.00    +0.000 A 
ATOM     32  C   UNL     1      -1.103  10.437  18.067  0.00  0.00    +0.000 A 
ATOM     33 CL   UNL     1       0.587  10.118  18.123  0.00  0.00    +0.000 Cl
ATOM     34  C   UNL     1      -1.913   9.734  17.177  0.00  0.00    +0.000 A 
ATOM     35  C   UNL     1      -3.279  10.024  17.107  0.00  0.00    +0.000 A 
ENDBRANCH  28  29
ENDBRANCH  26  28
ENDBRANCH  21  22
ENDBRANCH  11  21
TORSDOF 5
ENDMDL
MODEL 8
REMARK VINA RESULT:      -7.4      4.843      7.397
REMARK  Name = 
REMARK  5 active torsions:
REMARK  status: ('A' for Active; 'I' for Inactive)
REMARK    1  A    between atoms: N_3  and  C_4
REMARK    2  A    between atoms: N_17  and  C_18
REMARK    3  A    between atoms: C_18  and  C_19
REMARK    4  A    between atoms: C_23  and  O_24
REMARK    5  A    between atoms: O_24  and  C_25
REMARK                            x       y       z     vdW  Elec       q    Type
REMARK                         _______ _______ _______ _____ _____    ______ ____
ROOT
ATOM      1  O   UNL     1       1.579  13.826  21.740  0.00  0.00    +0.000 OA
ATOM      2  C   UNL     1       1.252  13.347  20.656  0.00  0.00    +0.000 C 
ATOM      3  N   UNL     1       1.677  13.816  19.435  0.00  0.00    +0.000 N 
ATOM      4  N   UNL     1       0.386  12.249  20.540  0.00  0.00    +0.000 N 
ATOM      5  C   UNL     1      -0.386  11.803  21.700  0.00  0.00    +0.000 C 
ATOM      6  C   UNL     1      -0.336  10.285  21.899  0.00  0.00    +0.000 C 
ATOM      7  C   UNL     1      -0.531   9.508  20.590  0.00  0.00    +0.000 C 
ATOM      8  C   UNL     1       0.424  10.004  19.486  0.00  0.00    +0.000 C 
ATOM      9  C   UNL     1       0.218   9.268  18.144  0.00  0.00    +0.000 C 
ATOM     10  C   UNL     1       1.601   8.746  17.755  0.00  0.00    +0.000 C 
ATOM     11  N   UNL     1       2.329   8.576  19.020  0.00  0.00    +0.000 NA
ATOM     12  C   UNL     1       1.916   9.750  19.804  0.00  0.00    +0.000 C 
ATOM     13  C   UNL     1       0.143  11.500  19.303  0.00  0.00    +0.000 C 
ATOM     14  H   UNL     1       1.060  13.600  18.673  0.00  0.00    +0.000 HD
ENDROOT
BRANCH   3  15
ATOM     15  C   UNL     1       2.662  14.759  19.112  0.00  0.00    +0.000 A 
ATOM     16  C   UNL     1       2.456  15.932  18.404  0.00  0.00    +0.000 A 
ATOM     17  C   UNL     1       3.552  16.759  18.136  0.00  0.00    +0.000 A 
ATOM     18  C   UNL     1       4.804  16.388  18.599  0.00  0.00    +0.000 A 
ATOM     19  N   UNL     1       5.037  15.274  19.317  0.00  0.00    +0.000 NA
ATOM     20  C   UNL     1       3.961  14.492  19.556  0.00  0.00    +0.000 A 
ENDBRANCH   3  15
BRANCH  11  21
ATOM     21  C   UNL     1       1.997   7.283  19.638  0.00  0.00    +0.000 C 
BRANCH  21  22
ATOM     22  C   UNL     1       2.404   6.063  18.838  0.00  0.00    +0.000 A 
ATOM     23  C   UNL     1       1.445   5.136  18.407  0.00  0.00    +0.000 A 
ATOM     24  C   UNL     1       1.835   3.974  17.738  0.00  0.00    +0.000 A 
ATOM     25  C   UNL     1       3.186   3.720  17.503  0.00  0.00    +0.000 A 
ATOM     26  C   UNL     1       4.154   4.629  17.931  0.00  0.00    +0.000 A 
ATOM     27  C   UNL     1       3.759   5.812  18.564  0.00  0.00    +0.000 A 
BRANCH  26  28
ATOM     28  O   UNL     1       5.462   4.303  17.644  0.00  0.00    +0.000 OA
BRANCH  28  29
ATOM     29  C   UNL     1       5.927   4.426  16.350  0.00  0.00    +0.000 A 
ATOM     30  C   UNL     1       5.281   3.859  15.244  0.00  0.00    +0.000 A 
ATOM     31  C   UNL     1       5.830   4.008  13.969  0.00  0.00    +0.000 A 
ATOM     32  C   UNL     1       6.986   4.767  13.797  0.00  0.00    +0.000 A 
ATOM     33 CL   UNL     1       7.670   4.932  12.226  0.00  0.00    +0.000 Cl
ATOM     34  C   UNL     1       7.590   5.391  14.886  0.00  0.00    +0.000 A 
ATOM     35  C   UNL     1       7.054   5.223  16.166  0.00  0.00    +0.000 A 
ENDBRANCH  28  29
ENDBRANCH  26  28
ENDBRANCH  21  22
ENDBRANCH  11  21
TORSDOF 5
ENDMDL
MODEL 9
REMARK VINA RESULT:      -7.4      4.066      6.991
REMARK  Name = 
REMARK  5 active torsions:
REMARK  status: ('A' for Active; 'I' for Inactive)
REMARK    1  A    between atoms: N_3  and  C_4
REMARK    2  A    between atoms: N_17  and  C_18
REMARK    3  A    between atoms: C_18  and  C_19
REMARK    4  A    between atoms: C_23  and  O_24
REMARK    5  A    between atoms: O_24  and  C_25
REMARK                            x       y       z     vdW  Elec       q    Type
REMARK                         _______ _______ _______ _____ _____    ______ ____
ROOT
ATOM      1  O   UNL     1       7.616  13.283  22.259  0.00  0.00    +0.000 OA
ATOM      2  C   UNL     1       7.417  14.091  21.355  0.00  0.00    +0.000 C 
ATOM      3  N   UNL     1       8.141  14.150  20.187  0.00  0.00    +0.000 N 
ATOM      4  N   UNL     1       6.410  15.067  21.415  0.00  0.00    +0.000 N 
ATOM      5  C   UNL     1       5.735  15.342  22.684  0.00  0.00    +0.000 C 
ATOM      6  C   UNL     1       4.212  15.419  22.542  0.00  0.00    +0.000 C 
ATOM      7  C   UNL     1       3.770  16.241  21.324  0.00  0.00    +0.000 C 
ATOM      8  C   UNL     1       4.473  15.772  20.035  0.00  0.00    +0.000 C 
ATOM      9  C   UNL     1       4.080  16.612  18.800  0.00  0.00    +0.000 C 
ATOM     10  C   UNL     1       3.610  15.599  17.757  0.00  0.00    +0.000 C 
ATOM     11  N   UNL     1       3.121  14.442  18.520  0.00  0.00    +0.000 NA
ATOM     12  C   UNL     1       4.095  14.331  19.618  0.00  0.00    +0.000 C 
ATOM     13  C   UNL     1       5.980  15.899  20.286  0.00  0.00    +0.000 C 
ATOM     14  H   UNL     1       8.132  15.050  19.742  0.00  0.00    +0.000 HD
ENDROOT
BRANCH   3  15
ATOM     15  C   UNL     1       9.095  13.271  19.659  0.00  0.00    +0.000 A 
ATOM     16  C   UNL     1       9.807  12.325  20.377  0.00  0.00    +0.000 A 
ATOM     17  C   UNL     1      10.750  11.537  19.706  0.00  0.00    +0.000 A 
ATOM     18  C   UNL     1      10.930  11.717  18.344  0.00  0.00    +0.000 A 
ATOM     19  N   UNL     1      10.234  12.602  17.608  0.00  0.00    +0.000 NA
ATOM     20  C   UNL     1       9.334  13.352  18.283  0.00  0.00    +0.000 A 
ENDBRANCH   3  15
BRANCH  11  21
ATOM     21  C   UNL     1       1.734  14.660  18.957  0.00  0.00    +0.000 C 
BRANCH  21  22
ATOM     22  C   UNL     1       0.845  13.435  18.913  0.00  0.00    +0.000 A 
ATOM     23  C   UNL     1      -0.358  13.447  18.196  0.00  0.00    +0.000 A 
ATOM     24  C   UNL     1      -1.211  12.341  18.223  0.00  0.00    +0.000 A 
ATOM     25  C   UNL     1      -0.876  11.217  18.978  0.00  0.00    +0.000 A 
ATOM     26  C   UNL     1       0.315  11.190  19.705  0.00  0.00    +0.000 A 
ATOM     27  C   UNL     1       1.187  12.283  19.642  0.00  0.00    +0.000 A 
BRANCH  26  28
ATOM     28  O   UNL     1       0.570  10.034  20.410  0.00  0.00    +0.000 OA
BRANCH  28  29
ATOM     29  C   UNL     1       1.278   9.012  19.811  0.00  0.00    +0.000 A 
ATOM     30  C   UNL     1       1.627   7.827  20.472  0.00  0.00    +0.000 A 
ATOM     31  C   UNL     1       2.367   6.852  19.803  0.00  0.00    +0.000 A 
ATOM     32  C   UNL     1       2.706   7.037  18.463  0.00  0.00    +0.000 A 
ATOM     33 CL   UNL     1       3.636   5.841  17.647  0.00  0.00    +0.000 Cl
ATOM     34  C   UNL     1       2.299   8.184  17.783  0.00  0.00    +0.000 A 
ATOM     35  C   UNL     1       1.578   9.171  18.461  0.00  0.00    +0.000 A 
ENDBRANCH  28  29
ENDBRANCH  26  28
ENDBRANCH  21  22
ENDBRANCH  11  21
TORSDOF 5
ENDMDL
