MODEL 1
REMARK VINA RESULT:      -7.8      0.000      0.000
REMARK  Name = 
REMARK  17 active torsions:
REMARK  status: ('A' for Active; 'I' for Inactive)
REMARK    1  A    between atoms: C_1  and  C_2
REMARK    2  A    between atoms: C_2  and  C_3
REMARK    3  A    between atoms: C_3  and  C_4
REMARK    4  A    between atoms: C_4  and  C_5
REMARK    5  A    between atoms: C_5  and  C_6
REMARK    6  A    between atoms: C_6  and  C_7
REMARK    7  A    between atoms: C_7  and  C_8
REMARK    8  A    between atoms: C_8  and  O_9
REMARK    9  A    between atoms: O_9  and  C_10
REMARK   10  A    between atoms: C_13  and  C_14
REMARK   11  A    between atoms: C_14  and  C_15
REMARK   12  A    between atoms: C_17  and  C_18
REMARK   13  A    between atoms: C_20  and  C_21
REMARK   14  A    between atoms: C_21  and  O_22
REMARK   15  A    between atoms: C_23  and  O_24
REMARK   16  A    between atoms: C_25  and  O_26
REMARK   17  A    between atoms: C_27  and  O_28
REMARK                            x       y       z     vdW  Elec       q    Type
REMARK                         _______ _______ _______ _____ _____    ______ ____
ROOT
ATOM      1  C   UNL     1       3.954   4.712  19.137  0.00  0.00    +0.000 A 
ATOM      2  C   UNL     1       3.480   6.044  19.173  0.00  0.00    +0.000 A 
ATOM      3  C   UNL     1       2.336   6.400  19.919  0.00  0.00    +0.000 A 
ATOM      4  C   UNL     1       1.601   5.387  20.539  0.00  0.00    +0.000 A 
ATOM      5  C   UNL     1       2.080   4.078  20.561  0.00  0.00    +0.000 A 
ATOM      6  C   UNL     1       3.273   3.756  19.903  0.00  0.00    +0.000 A 
ATOM      7 CL   UNL     1       3.856   2.144  20.112  0.00  0.00    +0.000 Cl
ENDROOT
BRANCH   3   8
ATOM      8  C   UNL     1       1.948   7.859  20.100  0.00  0.00    +0.000 C 
ATOM      9  O   UNL     1       0.948   7.957  21.137  0.00  0.00    +0.000 OA
ATOM     10  C   UNL     1       0.680   9.314  21.520  0.00  0.00    +0.000 C 
ATOM     11  C   UNL     1       0.127  10.110  20.333  0.00  0.00    +0.000 C 
ATOM     12  C   UNL     1       1.074   9.990  19.125  0.00  0.00    +0.000 C 
ATOM     13  C   UNL     1       1.430   8.525  18.814  0.00  0.00    +0.000 C 
BRANCH  13  14
ATOM     14  O   UNL     1       2.397   8.473  17.758  0.00  0.00    +0.000 OA
ATOM     15  H   UNL     1       2.675   9.379  17.542  0.00  0.00    +0.000 HD
ENDBRANCH  13  14
BRANCH  12  16
ATOM     16  O   UNL     1       0.502  10.632  17.980  0.00  0.00    +0.000 OA
ATOM     17  H   UNL     1       0.271  11.545  18.227  0.00  0.00    +0.000 HD
ENDBRANCH  12  16
BRANCH  11  18
ATOM     18  O   UNL     1      -0.054  11.481  20.711  0.00  0.00    +0.000 OA
ATOM     19  H   UNL     1      -0.170  11.533  21.674  0.00  0.00    +0.000 HD
ENDBRANCH  11  18
BRANCH  10  20
ATOM     20  C   UNL     1      -0.314   9.290  22.699  0.00  0.00    +0.000 C 
BRANCH  20  21
ATOM     21  O   UNL     1      -0.344  10.544  23.371  0.00  0.00    +0.000 OA
ATOM     22  H   UNL     1      -0.741  10.369  24.245  0.00  0.00    +0.000 HD
ENDBRANCH  20  21
ENDBRANCH  10  20
ENDBRANCH   3   8
BRANCH   1  23
ATOM     23  C   UNL     1       5.159   4.358  18.286  0.00  0.00    +0.000 C 
BRANCH  23  27
ATOM     24  C   UNL     1       7.653   7.669  17.541  0.00  0.00    +0.000 A 
ATOM     25  C   UNL     1       7.981   6.881  18.621  0.00  0.00    +0.000 A 
ATOM     26  C   UNL     1       7.195   5.760  18.864  0.00  0.00    +0.000 A 
ATOM     27  C   UNL     1       6.110   5.498  18.034  0.00  0.00    +0.000 A 
ATOM     28  N   UNL     1       5.844   6.282  16.966  0.00  0.00    +0.000 NA
ATOM     29  N   UNL     1       6.628   7.365  16.711  0.00  0.00    +0.000 NA
BRANCH  24  30
ATOM     30  O   UNL     1       8.403   8.804  17.304  0.00  0.00    +0.000 OA
BRANCH  30  31
ATOM     31  C   UNL     1       8.634   9.518  18.524  0.00  0.00    +0.000 C 
BRANCH  31  32
ATOM     32  C   UNL     1       9.521  10.725  18.247  0.00  0.00    +0.000 C 
BRANCH  32  33
ATOM     33  C   UNL     1       9.770  11.511  19.534  0.00  0.00    +0.000 C 
BRANCH  33  34
ATOM     34  C   UNL     1      11.262  11.645  19.816  0.00  0.00    +0.000 C 
BRANCH  34  35
ATOM     35  C   UNL     1      11.783  13.020  19.403  0.00  0.00    +0.000 C 
BRANCH  35  36
ATOM     36  C   UNL     1      10.660  14.056  19.449  0.00  0.00    +0.000 C 
BRANCH  36  38
ATOM     37  C   UNL     1      11.301  14.034  17.021  0.00  0.00    +0.000 C 
ATOM     38  C   UNL     1      10.425  14.685  18.079  0.00  0.00    +0.000 C 
ENDBRANCH  36  38
ENDBRANCH  35  36
ENDBRANCH  34  35
ENDBRANCH  33  34
ENDBRANCH  32  33
ENDBRANCH  31  32
ENDBRANCH  30  31
ENDBRANCH  24  30
ENDBRANCH  23  27
ENDBRANCH   1  23
TORSDOF 16
ENDMDL
MODEL 2
REMARK VINA RESULT:      -7.3      1.234      1.884
REMARK  Name = 
REMARK  17 active torsions:
REMARK  status: ('A' for Active; 'I' for Inactive)
REMARK    1  A    between atoms: C_1  and  C_2
REMARK    2  A    between atoms: C_2  and  C_3
REMARK    3  A    between atoms: C_3  and  C_4
REMARK    4  A    between atoms: C_4  and  C_5
REMARK    5  A    between atoms: C_5  and  C_6
REMARK    6  A    between atoms: C_6  and  C_7
REMARK    7  A    between atoms: C_7  and  C_8
REMARK    8  A    between atoms: C_8  and  O_9
REMARK    9  A    between atoms: O_9  and  C_10
REMARK   10  A    between atoms: C_13  and  C_14
REMARK   11  A    between atoms: C_14  and  C_15
REMARK   12  A    between atoms: C_17  and  C_18
REMARK   13  A    between atoms: C_20  and  C_21
REMARK   14  A    between atoms: C_21  and  O_22
REMARK   15  A    between atoms: C_23  and  O_24
REMARK   16  A    between atoms: C_25  and  O_26
REMARK   17  A    between atoms: C_27  and  O_28
REMARK                            x       y       z     vdW  Elec       q    Type
REMARK                         _______ _______ _______ _____ _____    ______ ____
ROOT
ATOM      1  C   UNL     1       3.628   4.859  19.064  0.00  0.00    +0.000 A 
ATOM      2  C   UNL     1       3.236   6.214  19.175  0.00  0.00    +0.000 A 
ATOM      3  C   UNL     1       2.195   6.612  20.040  0.00  0.00    +0.000 A 
ATOM      4  C   UNL     1       1.470   5.625  20.711  0.00  0.00    +0.000 A 
ATOM      5  C   UNL     1       1.874   4.291  20.658  0.00  0.00    +0.000 A 
ATOM      6  C   UNL     1       2.975   3.922  19.876  0.00  0.00    +0.000 A 
ATOM      7 CL   UNL     1       3.484   2.276  19.992  0.00  0.00    +0.000 Cl
ENDROOT
BRANCH   3   8
ATOM      8  C   UNL     1       1.910   8.084  20.289  0.00  0.00    +0.000 C 
ATOM      9  O   UNL     1       1.042   8.211  21.436  0.00  0.00    +0.000 OA
ATOM     10  C   UNL     1       0.894   9.571  21.871  0.00  0.00    +0.000 C 
ATOM     11  C   UNL     1       0.253  10.422  20.768  0.00  0.00    +0.000 C 
ATOM     12  C   UNL     1       1.046  10.280  19.457  0.00  0.00    +0.000 C 
ATOM     13  C   UNL     1       1.285   8.806  19.083  0.00  0.00    +0.000 C 
BRANCH  13  14
ATOM     14  O   UNL     1       2.120   8.727  17.922  0.00  0.00    +0.000 OA
ATOM     15  H   UNL     1       1.621   8.301  17.204  0.00  0.00    +0.000 HD
ENDBRANCH  13  14
BRANCH  12  16
ATOM     16  O   UNL     1       0.383  10.976  18.397  0.00  0.00    +0.000 OA
ATOM     17  H   UNL     1      -0.543  11.122  18.662  0.00  0.00    +0.000 HD
ENDBRANCH  12  16
BRANCH  11  18
ATOM     18  O   UNL     1       0.191  11.790  21.188  0.00  0.00    +0.000 OA
ATOM     19  H   UNL     1       1.093  12.129  21.306  0.00  0.00    +0.000 HD
ENDBRANCH  11  18
BRANCH  10  20
ATOM     20  C   UNL     1       0.043   9.572  23.156  0.00  0.00    +0.000 C 
BRANCH  20  21
ATOM     21  O   UNL     1      -1.166  10.300  22.971  0.00  0.00    +0.000 OA
ATOM     22  H   UNL     1      -1.522  10.460  23.865  0.00  0.00    +0.000 HD
ENDBRANCH  20  21
ENDBRANCH  10  20
ENDBRANCH   3   8
BRANCH   1  23
ATOM     23  C   UNL     1       4.720   4.463  18.088  0.00  0.00    +0.000 C 
BRANCH  23  27
ATOM     24  C   UNL     1       7.583   7.496  17.508  0.00  0.00    +0.000 A 
ATOM     25  C   UNL     1       7.812   6.624  18.548  0.00  0.00    +0.000 A 
ATOM     26  C   UNL     1       6.901   5.590  18.736  0.00  0.00    +0.000 A 
ATOM     27  C   UNL     1       5.797   5.496  17.893  0.00  0.00    +0.000 A 
ATOM     28  N   UNL     1       5.631   6.357  16.865  0.00  0.00    +0.000 NA
ATOM     29  N   UNL     1       6.536   7.353  16.664  0.00  0.00    +0.000 NA
BRANCH  24  30
ATOM     30  O   UNL     1       8.461   8.547  17.328  0.00  0.00    +0.000 OA
BRANCH  30  31
ATOM     31  C   UNL     1       8.578   9.317  18.530  0.00  0.00    +0.000 C 
BRANCH  31  32
ATOM     32  C   UNL     1       9.099  10.708  18.195  0.00  0.00    +0.000 C 
BRANCH  32  33
ATOM     33  C   UNL     1      10.295  11.058  19.080  0.00  0.00    +0.000 C 
BRANCH  33  34
ATOM     34  C   UNL     1      10.131  12.440  19.703  0.00  0.00    +0.000 C 
BRANCH  34  35
ATOM     35  C   UNL     1      10.050  12.354  21.226  0.00  0.00    +0.000 C 
BRANCH  35  36
ATOM     36  C   UNL     1       8.797  11.594  21.656  0.00  0.00    +0.000 C 
BRANCH  36  38
ATOM     37  C   UNL     1       7.151  12.856  23.073  0.00  0.00    +0.000 C 
ATOM     38  C   UNL     1       8.381  11.963  23.078  0.00  0.00    +0.000 C 
ENDBRANCH  36  38
ENDBRANCH  35  36
ENDBRANCH  34  35
ENDBRANCH  33  34
ENDBRANCH  32  33
ENDBRANCH  31  32
ENDBRANCH  30  31
ENDBRANCH  24  30
ENDBRANCH  23  27
ENDBRANCH   1  23
TORSDOF 16
ENDMDL
MODEL 3
REMARK VINA RESULT:      -7.3      4.410      6.534
REMARK  Name = 
REMARK  17 active torsions:
REMARK  status: ('A' for Active; 'I' for Inactive)
REMARK    1  A    between atoms: C_1  and  C_2
REMARK    2  A    between atoms: C_2  and  C_3
REMARK    3  A    between atoms: C_3  and  C_4
REMARK    4  A    between atoms: C_4  and  C_5
REMARK    5  A    between atoms: C_5  and  C_6
REMARK    6  A    between atoms: C_6  and  C_7
REMARK    7  A    between atoms: C_7  and  C_8
REMARK    8  A    between atoms: C_8  and  O_9
REMARK    9  A    between atoms: O_9  and  C_10
REMARK   10  A    between atoms: C_13  and  C_14
REMARK   11  A    between atoms: C_14  and  C_15
REMARK   12  A    between atoms: C_17  and  C_18
REMARK   13  A    between atoms: C_20  and  C_21
REMARK   14  A    between atoms: C_21  and  O_22
REMARK   15  A    between atoms: C_23  and  O_24
REMARK   16  A    between atoms: C_25  and  O_26
REMARK   17  A    between atoms: C_27  and  O_28
REMARK                            x       y       z     vdW  Elec       q    Type
REMARK                         _______ _______ _______ _____ _____    ______ ____
ROOT
ATOM      1  C   UNL     1       3.571   4.225  19.855  0.00  0.00    +0.000 A 
ATOM      2  C   UNL     1       3.372   5.617  19.697  0.00  0.00    +0.000 A 
ATOM      3  C   UNL     1       2.171   6.240  20.096  0.00  0.00    +0.000 A 
ATOM      4  C   UNL     1       1.121   5.440  20.551  0.00  0.00    +0.000 A 
ATOM      5  C   UNL     1       1.314   4.075  20.765  0.00  0.00    +0.000 A 
ATOM      6  C   UNL     1       2.547   3.485  20.462  0.00  0.00    +0.000 A 
ATOM      7 CL   UNL     1       2.733   1.824  20.898  0.00  0.00    +0.000 Cl
ENDROOT
BRANCH   3   8
ATOM      8  C   UNL     1       2.043   7.755  20.094  0.00  0.00    +0.000 C 
ATOM      9  O   UNL     1       0.916   8.136  20.915  0.00  0.00    +0.000 OA
ATOM     10  C   UNL     1       0.851   9.552  21.141  0.00  0.00    +0.000 C 
ATOM     11  C   UNL     1       0.671  10.301  19.816  0.00  0.00    +0.000 C 
ATOM     12  C   UNL     1       1.770   9.891  18.819  0.00  0.00    +0.000 C 
ATOM     13  C   UNL     1       1.889   8.361  18.688  0.00  0.00    +0.000 C 
BRANCH  13  14
ATOM     14  O   UNL     1       2.994   8.030  17.840  0.00  0.00    +0.000 OA
ATOM     15  H   UNL     1       2.714   8.111  16.913  0.00  0.00    +0.000 HD
ENDBRANCH  13  14
BRANCH  12  16
ATOM     16  O   UNL     1       1.536  10.496  17.544  0.00  0.00    +0.000 OA
ATOM     17  H   UNL     1       2.030   9.992  16.873  0.00  0.00    +0.000 HD
ENDBRANCH  12  16
BRANCH  11  18
ATOM     18  O   UNL     1       0.692  11.714  20.053  0.00  0.00    +0.000 OA
ATOM     19  H   UNL     1       1.154  12.154  19.320  0.00  0.00    +0.000 HD
ENDBRANCH  11  18
BRANCH  10  20
ATOM     20  C   UNL     1      -0.316   9.826  22.110  0.00  0.00    +0.000 C 
BRANCH  20  21
ATOM     21  O   UNL     1      -0.120  11.044  22.820  0.00  0.00    +0.000 OA
ATOM     22  H   UNL     1      -1.002  11.453  22.899  0.00  0.00    +0.000 HD
ENDBRANCH  20  21
ENDBRANCH  10  20
ENDBRANCH   3   8
BRANCH   1  23
ATOM     23  C   UNL     1       4.857   3.582  19.371  0.00  0.00    +0.000 C 
BRANCH  23  27
ATOM     24  C   UNL     1       6.749   5.291  16.019  0.00  0.00    +0.000 A 
ATOM     25  C   UNL     1       5.374   5.353  16.048  0.00  0.00    +0.000 A 
ATOM     26  C   UNL     1       4.728   4.829  17.163  0.00  0.00    +0.000 A 
ATOM     27  C   UNL     1       5.485   4.250  18.178  0.00  0.00    +0.000 A 
ATOM     28  N   UNL     1       6.835   4.241  18.120  0.00  0.00    +0.000 NA
ATOM     29  N   UNL     1       7.470   4.776  17.042  0.00  0.00    +0.000 NA
BRANCH  24  30
ATOM     30  O   UNL     1       7.404   5.777  14.904  0.00  0.00    +0.000 OA
BRANCH  30  31
ATOM     31  C   UNL     1       7.407   4.800  13.857  0.00  0.00    +0.000 C 
BRANCH  31  32
ATOM     32  C   UNL     1       6.172   3.918  13.980  0.00  0.00    +0.000 C 
BRANCH  32  33
ATOM     33  C   UNL     1       5.399   3.893  12.662  0.00  0.00    +0.000 C 
BRANCH  33  34
ATOM     34  C   UNL     1       5.539   2.542  11.969  0.00  0.00    +0.000 C 
BRANCH  34  35
ATOM     35  C   UNL     1       4.555   2.412  10.808  0.00  0.00    +0.000 C 
BRANCH  35  36
ATOM     36  C   UNL     1       3.677   3.658  10.704  0.00  0.00    +0.000 C 
BRANCH  36  38
ATOM     37  C   UNL     1       2.207   5.030   9.201  0.00  0.00    +0.000 C 
ATOM     38  C   UNL     1       2.932   3.706   9.373  0.00  0.00    +0.000 C 
ENDBRANCH  36  38
ENDBRANCH  35  36
ENDBRANCH  34  35
ENDBRANCH  33  34
ENDBRANCH  32  33
ENDBRANCH  31  32
ENDBRANCH  30  31
ENDBRANCH  24  30
ENDBRANCH  23  27
ENDBRANCH   1  23
TORSDOF 16
ENDMDL
MODEL 4
REMARK VINA RESULT:      -7.2      1.135      1.395
REMARK  Name = 
REMARK  17 active torsions:
REMARK  status: ('A' for Active; 'I' for Inactive)
REMARK    1  A    between atoms: C_1  and  C_2
REMARK    2  A    between atoms: C_2  and  C_3
REMARK    3  A    between atoms: C_3  and  C_4
REMARK    4  A    between atoms: C_4  and  C_5
REMARK    5  A    between atoms: C_5  and  C_6
REMARK    6  A    between atoms: C_6  and  C_7
REMARK    7  A    between atoms: C_7  and  C_8
REMARK    8  A    between atoms: C_8  and  O_9
REMARK    9  A    between atoms: O_9  and  C_10
REMARK   10  A    between atoms: C_13  and  C_14
REMARK   11  A    between atoms: C_14  and  C_15
REMARK   12  A    between atoms: C_17  and  C_18
REMARK   13  A    between atoms: C_20  and  C_21
REMARK   14  A    between atoms: C_21  and  O_22
REMARK   15  A    between atoms: C_23  and  O_24
REMARK   16  A    between atoms: C_25  and  O_26
REMARK   17  A    between atoms: C_27  and  O_28
REMARK                            x       y       z     vdW  Elec       q    Type
REMARK                         _______ _______ _______ _____ _____    ______ ____
ROOT
ATOM      1  C   UNL     1       3.261   4.723  19.249  0.00  0.00    +0.000 A 
ATOM      2  C   UNL     1       3.016   6.103  19.443  0.00  0.00    +0.000 A 
ATOM      3  C   UNL     1       1.877   6.559  20.140  0.00  0.00    +0.000 A 
ATOM      4  C   UNL     1       0.922   5.623  20.544  0.00  0.00    +0.000 A 
ATOM      5  C   UNL     1       1.169   4.257  20.410  0.00  0.00    +0.000 A 
ATOM      6  C   UNL     1       2.353   3.814  19.809  0.00  0.00    +0.000 A 
ATOM      7 CL   UNL     1       2.632   2.110  19.823  0.00  0.00    +0.000 Cl
ENDROOT
BRANCH   3   8
ATOM      8  C   UNL     1       1.723   8.027  20.503  0.00  0.00    +0.000 C 
ATOM      9  O   UNL     1       0.880   8.139  21.671  0.00  0.00    +0.000 OA
ATOM     10  C   UNL     1       0.854   9.471  22.208  0.00  0.00    +0.000 C 
ATOM     11  C   UNL     1       0.277  10.453  21.183  0.00  0.00    +0.000 C 
ATOM     12  C   UNL     1       1.042  10.345  19.852  0.00  0.00    +0.000 C 
ATOM     13  C   UNL     1       1.149   8.888  19.364  0.00  0.00    +0.000 C 
BRANCH  13  14
ATOM     14  O   UNL     1       1.962   8.827  18.187  0.00  0.00    +0.000 OA
ATOM     15  H   UNL     1       2.797   8.380  18.404  0.00  0.00    +0.000 HD
ENDBRANCH  13  14
BRANCH  12  16
ATOM     16  O   UNL     1       0.430  11.173  18.858  0.00  0.00    +0.000 OA
ATOM     17  H   UNL     1      -0.117  10.606  18.285  0.00  0.00    +0.000 HD
ENDBRANCH  12  16
BRANCH  11  18
ATOM     18  O   UNL     1       0.338  11.787  21.704  0.00  0.00    +0.000 OA
ATOM     19  H   UNL     1       0.882  12.335  21.116  0.00  0.00    +0.000 HD
ENDBRANCH  11  18
BRANCH  10  20
ATOM     20  C   UNL     1       0.019   9.446  23.503  0.00  0.00    +0.000 C 
BRANCH  20  21
ATOM     21  O   UNL     1      -1.199  10.165  23.343  0.00  0.00    +0.000 OA
ATOM     22  H   UNL     1      -1.081  10.718  22.549  0.00  0.00    +0.000 HD
ENDBRANCH  20  21
ENDBRANCH  10  20
ENDBRANCH   3   8
BRANCH   1  23
ATOM     23  C   UNL     1       4.472   4.272  18.454  0.00  0.00    +0.000 C 
BRANCH  23  27
ATOM     24  C   UNL     1       7.363   7.199  17.555  0.00  0.00    +0.000 A 
ATOM     25  C   UNL     1       6.264   7.145  16.728  0.00  0.00    +0.000 A 
ATOM     26  C   UNL     1       5.277   6.212  17.027  0.00  0.00    +0.000 A 
ATOM     27  C   UNL     1       5.450   5.367  18.119  0.00  0.00    +0.000 A 
ATOM     28  N   UNL     1       6.531   5.478  18.922  0.00  0.00    +0.000 NA
ATOM     29  N   UNL     1       7.485   6.408  18.645  0.00  0.00    +0.000 NA
BRANCH  24  30
ATOM     30  O   UNL     1       8.368   8.098  17.253  0.00  0.00    +0.000 OA
BRANCH  30  31
ATOM     31  C   UNL     1       8.103   9.370  17.856  0.00  0.00    +0.000 C 
BRANCH  31  32
ATOM     32  C   UNL     1       9.064   9.591  19.017  0.00  0.00    +0.000 C 
BRANCH  32  33
ATOM     33  C   UNL     1       9.599  11.023  19.001  0.00  0.00    +0.000 C 
BRANCH  33  34
ATOM     34  C   UNL     1      10.295  11.334  17.681  0.00  0.00    +0.000 C 
BRANCH  34  35
ATOM     35  C   UNL     1      11.593  12.106  17.908  0.00  0.00    +0.000 C 
BRANCH  35  36
ATOM     36  C   UNL     1      11.719  13.252  16.905  0.00  0.00    +0.000 C 
BRANCH  36  38
ATOM     37  C   UNL     1      12.333  14.452  19.024  0.00  0.00    +0.000 C 
ATOM     38  C   UNL     1      11.798  14.604  17.609  0.00  0.00    +0.000 C 
ENDBRANCH  36  38
ENDBRANCH  35  36
ENDBRANCH  34  35
ENDBRANCH  33  34
ENDBRANCH  32  33
ENDBRANCH  31  32
ENDBRANCH  30  31
ENDBRANCH  24  30
ENDBRANCH  23  27
ENDBRANCH   1  23
TORSDOF 16
ENDMDL
MODEL 5
REMARK VINA RESULT:      -7.0      5.653      8.606
REMARK  Name = 
REMARK  17 active torsions:
REMARK  status: ('A' for Active; 'I' for Inactive)
REMARK    1  A    between atoms: C_1  and  C_2
REMARK    2  A    between atoms: C_2  and  C_3
REMARK    3  A    between atoms: C_3  and  C_4
REMARK    4  A    between atoms: C_4  and  C_5
REMARK    5  A    between atoms: C_5  and  C_6
REMARK    6  A    between atoms: C_6  and  C_7
REMARK    7  A    between atoms: C_7  and  C_8
REMARK    8  A    between atoms: C_8  and  O_9
REMARK    9  A    between atoms: O_9  and  C_10
REMARK   10  A    between atoms: C_13  and  C_14
REMARK   11  A    between atoms: C_14  and  C_15
REMARK   12  A    between atoms: C_17  and  C_18
REMARK   13  A    between atoms: C_20  and  C_21
REMARK   14  A    between atoms: C_21  and  O_22
REMARK   15  A    between atoms: C_23  and  O_24
REMARK   16  A    between atoms: C_25  and  O_26
REMARK   17  A    between atoms: C_27  and  O_28
REMARK                            x       y       z     vdW  Elec       q    Type
REMARK                         _______ _______ _______ _____ _____    ______ ____
ROOT
ATOM      1  C   UNL     1      -0.490  11.406  18.914  0.00  0.00    +0.000 A 
ATOM      2  C   UNL     1      -0.678  12.210  20.063  0.00  0.00    +0.000 A 
ATOM      3  C   UNL     1      -1.967  12.561  20.515  0.00  0.00    +0.000 A 
ATOM      4  C   UNL     1      -3.070  12.194  19.740  0.00  0.00    +0.000 A 
ATOM      5  C   UNL     1      -2.911  11.357  18.636  0.00  0.00    +0.000 A 
ATOM      6  C   UNL     1      -1.633  10.929  18.257  0.00  0.00    +0.000 A 
ATOM      7 CL   UNL     1      -1.556   9.780  16.971  0.00  0.00    +0.000 Cl
ENDROOT
BRANCH   3   8
ATOM      8  C   UNL     1      -2.159  13.265  21.849  0.00  0.00    +0.000 C 
ATOM      9  O   UNL     1      -3.241  12.631  22.566  0.00  0.00    +0.000 OA
ATOM     10  C   UNL     1      -3.351  13.094  23.921  0.00  0.00    +0.000 C 
ATOM     11  C   UNL     1      -3.655  14.596  23.954  0.00  0.00    +0.000 C 
ATOM     12  C   UNL     1      -2.612  15.368  23.127  0.00  0.00    +0.000 C 
ATOM     13  C   UNL     1      -2.437  14.773  21.717  0.00  0.00    +0.000 C 
BRANCH  13  14
ATOM     14  O   UNL     1      -1.381  15.452  21.029  0.00  0.00    +0.000 OA
ATOM     15  H   UNL     1      -1.766  15.998  20.323  0.00  0.00    +0.000 HD
ENDBRANCH  13  14
BRANCH  12  16
ATOM     16  O   UNL     1      -2.960  16.754  23.056  0.00  0.00    +0.000 OA
ATOM     17  H   UNL     1      -2.309  17.258  23.577  0.00  0.00    +0.000 HD
ENDBRANCH  12  16
BRANCH  11  18
ATOM     18  O   UNL     1      -3.677  15.055  25.312  0.00  0.00    +0.000 OA
ATOM     19  H   UNL     1      -4.508  14.776  25.729  0.00  0.00    +0.000 HD
ENDBRANCH  11  18
BRANCH  10  20
ATOM     20  C   UNL     1      -4.458  12.275  24.615  0.00  0.00    +0.000 C 
BRANCH  20  21
ATOM     21  O   UNL     1      -5.681  13.002  24.662  0.00  0.00    +0.000 OA
ATOM     22  H   UNL     1      -6.368  12.354  24.906  0.00  0.00    +0.000 HD
ENDBRANCH  20  21
ENDBRANCH  10  20
ENDBRANCH   3   8
BRANCH   1  23
ATOM     23  C   UNL     1       0.913  11.087  18.431  0.00  0.00    +0.000 C 
BRANCH  23  27
ATOM     24  C   UNL     1       2.155   7.247  19.634  0.00  0.00    +0.000 A 
ATOM     25  C   UNL     1       2.478   7.625  18.350  0.00  0.00    +0.000 A 
ATOM     26  C   UNL     1       2.112   8.904  17.942  0.00  0.00    +0.000 A 
ATOM     27  C   UNL     1       1.422   9.727  18.827  0.00  0.00    +0.000 A 
ATOM     28  N   UNL     1       1.156   9.325  20.089  0.00  0.00    +0.000 NA
ATOM     29  N   UNL     1       1.536   8.084  20.498  0.00  0.00    +0.000 NA
BRANCH  24  30
ATOM     30  O   UNL     1       2.482   5.970  20.044  0.00  0.00    +0.000 OA
BRANCH  30  31
ATOM     31  C   UNL     1       1.303   5.234  20.387  0.00  0.00    +0.000 C 
BRANCH  31  32
ATOM     32  C   UNL     1       1.695   3.954  21.115  0.00  0.00    +0.000 C 
BRANCH  32  33
ATOM     33  C   UNL     1       1.317   2.730  20.282  0.00  0.00    +0.000 C 
BRANCH  33  34
ATOM     34  C   UNL     1       2.209   2.605  19.052  0.00  0.00    +0.000 C 
BRANCH  34  35
ATOM     35  C   UNL     1       3.679   2.471  19.445  0.00  0.00    +0.000 C 
BRANCH  35  36
ATOM     36  C   UNL     1       4.535   3.473  18.674  0.00  0.00    +0.000 C 
BRANCH  36  38
ATOM     37  C   UNL     1       4.732   4.750  16.521  0.00  0.00    +0.000 C 
ATOM     38  C   UNL     1       3.783   4.045  17.476  0.00  0.00    +0.000 C 
ENDBRANCH  36  38
ENDBRANCH  35  36
ENDBRANCH  34  35
ENDBRANCH  33  34
ENDBRANCH  32  33
ENDBRANCH  31  32
ENDBRANCH  30  31
ENDBRANCH  24  30
ENDBRANCH  23  27
ENDBRANCH   1  23
TORSDOF 16
ENDMDL
MODEL 6
REMARK VINA RESULT:      -6.9      4.969      8.219
REMARK  Name = 
REMARK  17 active torsions:
REMARK  status: ('A' for Active; 'I' for Inactive)
REMARK    1  A    between atoms: C_1  and  C_2
REMARK    2  A    between atoms: C_2  and  C_3
REMARK    3  A    between atoms: C_3  and  C_4
REMARK    4  A    between atoms: C_4  and  C_5
REMARK    5  A    between atoms: C_5  and  C_6
REMARK    6  A    between atoms: C_6  and  C_7
REMARK    7  A    between atoms: C_7  and  C_8
REMARK    8  A    between atoms: C_8  and  O_9
REMARK    9  A    between atoms: O_9  and  C_10
REMARK   10  A    between atoms: C_13  and  C_14
REMARK   11  A    between atoms: C_14  and  C_15
REMARK   12  A    between atoms: C_17  and  C_18
REMARK   13  A    between atoms: C_20  and  C_21
REMARK   14  A    between atoms: C_21  and  O_22
REMARK   15  A    between atoms: C_23  and  O_24
REMARK   16  A    between atoms: C_25  and  O_26
REMARK   17  A    between atoms: C_27  and  O_28
REMARK                            x       y       z     vdW  Elec       q    Type
REMARK                         _______ _______ _______ _____ _____    ______ ____
ROOT
ATOM      1  C   UNL     1       0.218  11.042  19.630  0.00  0.00    +0.000 A 
ATOM      2  C   UNL     1       1.090  12.133  19.853  0.00  0.00    +0.000 A 
ATOM      3  C   UNL     1       0.888  13.379  19.222  0.00  0.00    +0.000 A 
ATOM      4  C   UNL     1      -0.131  13.491  18.274  0.00  0.00    +0.000 A 
ATOM      5  C   UNL     1      -1.034  12.446  18.079  0.00  0.00    +0.000 A 
ATOM      6  C   UNL     1      -0.885  11.249  18.789  0.00  0.00    +0.000 A 
ATOM      7 CL   UNL     1      -2.134  10.074  18.587  0.00  0.00    +0.000 Cl
ENDROOT
BRANCH   3   8
ATOM      8  C   UNL     1       1.718  14.592  19.613  0.00  0.00    +0.000 C 
ATOM      9  O   UNL     1       0.866  15.556  20.269  0.00  0.00    +0.000 OA
ATOM     10  C   UNL     1       1.605  16.636  20.859  0.00  0.00    +0.000 C 
ATOM     11  C   UNL     1       2.366  17.419  19.782  0.00  0.00    +0.000 C 
ATOM     12  C   UNL     1       3.237  16.465  18.947  0.00  0.00    +0.000 C 
ATOM     13  C   UNL     1       2.436  15.258  18.426  0.00  0.00    +0.000 C 
BRANCH  13  14
ATOM     14  O   UNL     1       3.312  14.346  17.752  0.00  0.00    +0.000 OA
ATOM     15  H   UNL     1       3.876  14.847  17.139  0.00  0.00    +0.000 HD
ENDBRANCH  13  14
BRANCH  12  16
ATOM     16  O   UNL     1       3.855  17.172  17.867  0.00  0.00    +0.000 OA
ATOM     17  H   UNL     1       4.719  16.761  17.688  0.00  0.00    +0.000 HD
ENDBRANCH  12  16
BRANCH  11  18
ATOM     18  O   UNL     1       3.163  18.438  20.398  0.00  0.00    +0.000 OA
ATOM     19  H   UNL     1       2.661  19.269  20.417  0.00  0.00    +0.000 HD
ENDBRANCH  11  18
BRANCH  10  20
ATOM     20  C   UNL     1       0.610  17.536  21.618  0.00  0.00    +0.000 C 
BRANCH  20  21
ATOM     21  O   UNL     1       1.275  18.321  22.603  0.00  0.00    +0.000 OA
ATOM     22  H   UNL     1       1.180  17.834  23.442  0.00  0.00    +0.000 HD
ENDBRANCH  20  21
ENDBRANCH  10  20
ENDBRANCH   3   8
BRANCH   1  23
ATOM     23  C   UNL     1       0.493   9.703  20.289  0.00  0.00    +0.000 C 
BRANCH  23  27
ATOM     24  C   UNL     1       2.965   7.009  18.200  0.00  0.00    +0.000 A 
ATOM     25  C   UNL     1       2.604   8.158  17.533  0.00  0.00    +0.000 A 
ATOM     26  C   UNL     1       1.819   9.081  18.215  0.00  0.00    +0.000 A 
ATOM     27  C   UNL     1       1.416   8.799  19.517  0.00  0.00    +0.000 A 
ATOM     28  N   UNL     1       1.822   7.672  20.143  0.00  0.00    +0.000 NA
ATOM     29  N   UNL     1       2.611   6.780  19.485  0.00  0.00    +0.000 NA
BRANCH  24  30
ATOM     30  O   UNL     1       3.717   6.067  17.525  0.00  0.00    +0.000 OA
BRANCH  30  31
ATOM     31  C   UNL     1       5.029   5.971  18.091  0.00  0.00    +0.000 C 
BRANCH  31  32
ATOM     32  C   UNL     1       6.070   6.185  17.000  0.00  0.00    +0.000 C 
BRANCH  32  33
ATOM     33  C   UNL     1       5.487   5.839  15.630  0.00  0.00    +0.000 C 
BRANCH  33  34
ATOM     34  C   UNL     1       6.370   4.839  14.893  0.00  0.00    +0.000 C 
BRANCH  34  35
ATOM     35  C   UNL     1       5.542   3.932  13.986  0.00  0.00    +0.000 C 
BRANCH  35  36
ATOM     36  C   UNL     1       6.261   3.697  12.658  0.00  0.00    +0.000 C 
BRANCH  36  38
ATOM     37  C   UNL     1       4.271   3.151  11.228  0.00  0.00    +0.000 C 
ATOM     38  C   UNL     1       5.563   2.623  11.828  0.00  0.00    +0.000 C 
ENDBRANCH  36  38
ENDBRANCH  35  36
ENDBRANCH  34  35
ENDBRANCH  33  34
ENDBRANCH  32  33
ENDBRANCH  31  32
ENDBRANCH  30  31
ENDBRANCH  24  30
ENDBRANCH  23  27
ENDBRANCH   1  23
TORSDOF 16
ENDMDL
MODEL 7
REMARK VINA RESULT:      -6.9      4.074      8.437
REMARK  Name = 
REMARK  17 active torsions:
REMARK  status: ('A' for Active; 'I' for Inactive)
REMARK    1  A    between atoms: C_1  and  C_2
REMARK    2  A    between atoms: C_2  and  C_3
REMARK    3  A    between atoms: C_3  and  C_4
REMARK    4  A    between atoms: C_4  and  C_5
REMARK    5  A    between atoms: C_5  and  C_6
REMARK    6  A    between atoms: C_6  and  C_7
REMARK    7  A    between atoms: C_7  and  C_8
REMARK    8  A    between atoms: C_8  and  O_9
REMARK    9  A    between atoms: O_9  and  C_10
REMARK   10  A    between atoms: C_13  and  C_14
REMARK   11  A    between atoms: C_14  and  C_15
REMARK   12  A    between atoms: C_17  and  C_18
REMARK   13  A    between atoms: C_20  and  C_21
REMARK   14  A    between atoms: C_21  and  O_22
REMARK   15  A    between atoms: C_23  and  O_24
REMARK   16  A    between atoms: C_25  and  O_26
REMARK   17  A    between atoms: C_27  and  O_28
REMARK                            x       y       z     vdW  Elec       q    Type
REMARK                         _______ _______ _______ _____ _____    ______ ____
ROOT
ATOM      1  C   UNL     1       1.068  10.572  19.058  0.00  0.00    +0.000 A 
ATOM      2  C   UNL     1       1.715  11.766  18.661  0.00  0.00    +0.000 A 
ATOM      3  C   UNL     1       1.854  12.858  19.542  0.00  0.00    +0.000 A 
ATOM      4  C   UNL     1       1.236  12.790  20.793  0.00  0.00    +0.000 A 
ATOM      5  C   UNL     1       0.641  11.605  21.224  0.00  0.00    +0.000 A 
ATOM      6  C   UNL     1       0.601  10.491  20.377  0.00  0.00    +0.000 A 
ATOM      7 CL   UNL     1      -0.024   9.031  21.055  0.00  0.00    +0.000 Cl
ENDROOT
BRANCH   3   8
ATOM      8  C   UNL     1       2.711  14.057  19.167  0.00  0.00    +0.000 C 
ATOM      9  O   UNL     1       3.846  14.123  20.058  0.00  0.00    +0.000 OA
ATOM     10  C   UNL     1       4.817  15.096  19.643  0.00  0.00    +0.000 C 
ATOM     11  C   UNL     1       4.206  16.502  19.644  0.00  0.00    +0.000 C 
ATOM     12  C   UNL     1       2.919  16.523  18.800  0.00  0.00    +0.000 C 
ATOM     13  C   UNL     1       1.950  15.394  19.196  0.00  0.00    +0.000 C 
BRANCH  13  14
ATOM     14  O   UNL     1       0.823  15.386  18.312  0.00  0.00    +0.000 OA
ATOM     15  H   UNL     1       0.918  14.647  17.688  0.00  0.00    +0.000 HD
ENDBRANCH  13  14
BRANCH  12  16
ATOM     16  O   UNL     1       2.281  17.801  18.897  0.00  0.00    +0.000 OA
ATOM     17  H   UNL     1       2.679  18.390  18.231  0.00  0.00    +0.000 HD
ENDBRANCH  12  16
BRANCH  11  18
ATOM     18  O   UNL     1       5.163  17.446  19.148  0.00  0.00    +0.000 OA
ATOM     19  H   UNL     1       6.043  17.037  19.146  0.00  0.00    +0.000 HD
ENDBRANCH  11  18
BRANCH  10  20
ATOM     20  C   UNL     1       6.024  15.001  20.598  0.00  0.00    +0.000 C 
BRANCH  20  21
ATOM     21  O   UNL     1       7.173  15.628  20.037  0.00  0.00    +0.000 OA
ATOM     22  H   UNL     1       6.845  16.415  19.564  0.00  0.00    +0.000 HD
ENDBRANCH  20  21
ENDBRANCH  10  20
ENDBRANCH   3   8
BRANCH   1  23
ATOM     23  C   UNL     1       0.896   9.435  18.068  0.00  0.00    +0.000 C 
BRANCH  23  27
ATOM     24  C   UNL     1       4.066   6.664  18.145  0.00  0.00    +0.000 A 
ATOM     25  C   UNL     1       3.129   6.556  19.147  0.00  0.00    +0.000 A 
ATOM     26  C   UNL     1       2.052   7.435  19.121  0.00  0.00    +0.000 A 
ATOM     27  C   UNL     1       1.980   8.391  18.113  0.00  0.00    +0.000 A 
ATOM     28  N   UNL     1       2.907   8.439  17.131  0.00  0.00    +0.000 NA
ATOM     29  N   UNL     1       3.947   7.562  17.140  0.00  0.00    +0.000 NA
BRANCH  24  30
ATOM     30  O   UNL     1       5.159   5.820  18.174  0.00  0.00    +0.000 OA
BRANCH  30  31
ATOM     31  C   UNL     1       4.764   4.499  18.563  0.00  0.00    +0.000 C 
BRANCH  31  32
ATOM     32  C   UNL     1       4.231   3.749  17.350  0.00  0.00    +0.000 C 
BRANCH  32  33
ATOM     33  C   UNL     1       3.179   2.725  17.775  0.00  0.00    +0.000 C 
BRANCH  33  34
ATOM     34  C   UNL     1       1.809   3.376  17.929  0.00  0.00    +0.000 C 
BRANCH  34  35
ATOM     35  C   UNL     1       1.023   2.747  19.077  0.00  0.00    +0.000 C 
BRANCH  35  36
ATOM     36  C   UNL     1       0.808   3.760  20.201  0.00  0.00    +0.000 C 
BRANCH  36  38
ATOM     37  C   UNL     1       2.435   2.540  21.674  0.00  0.00    +0.000 C 
ATOM     38  C   UNL     1       2.047   3.885  21.082  0.00  0.00    +0.000 C 
ENDBRANCH  36  38
ENDBRANCH  35  36
ENDBRANCH  34  35
ENDBRANCH  33  34
ENDBRANCH  32  33
ENDBRANCH  31  32
ENDBRANCH  30  31
ENDBRANCH  24  30
ENDBRANCH  23  27
ENDBRANCH   1  23
TORSDOF 16
ENDMDL
MODEL 8
REMARK VINA RESULT:      -6.8      4.146      8.246
REMARK  Name = 
REMARK  17 active torsions:
REMARK  status: ('A' for Active; 'I' for Inactive)
REMARK    1  A    between atoms: C_1  and  C_2
REMARK    2  A    between atoms: C_2  and  C_3
REMARK    3  A    between atoms: C_3  and  C_4
REMARK    4  A    between atoms: C_4  and  C_5
REMARK    5  A    between atoms: C_5  and  C_6
REMARK    6  A    between atoms: C_6  and  C_7
REMARK    7  A    between atoms: C_7  and  C_8
REMARK    8  A    between atoms: C_8  and  O_9
REMARK    9  A    between atoms: O_9  and  C_10
REMARK   10  A    between atoms: C_13  and  C_14
REMARK   11  A    between atoms: C_14  and  C_15
REMARK   12  A    between atoms: C_17  and  C_18
REMARK   13  A    between atoms: C_20  and  C_21
REMARK   14  A    between atoms: C_21  and  O_22
REMARK   15  A    between atoms: C_23  and  O_24
REMARK   16  A    between atoms: C_25  and  O_26
REMARK   17  A    between atoms: C_27  and  O_28
REMARK                            x       y       z     vdW  Elec       q    Type
REMARK                         _______ _______ _______ _____ _____    ______ ____
ROOT
ATOM      1  C   UNL     1       1.066   9.849  19.100  0.00  0.00    +0.000 A 
ATOM      2  C   UNL     1       1.398  11.117  18.568  0.00  0.00    +0.000 A 
ATOM      3  C   UNL     1       1.362  12.282  19.362  0.00  0.00    +0.000 A 
ATOM      4  C   UNL     1       0.880  12.186  20.669  0.00  0.00    +0.000 A 
ATOM      5  C   UNL     1       0.599  10.940  21.229  0.00  0.00    +0.000 A 
ATOM      6  C   UNL     1       0.738   9.778  20.461  0.00  0.00    +0.000 A 
ATOM      7 CL   UNL     1       0.509   8.278  21.286  0.00  0.00    +0.000 Cl
ENDROOT
BRANCH   3   8
ATOM      8  C   UNL     1       1.899  13.602  18.832  0.00  0.00    +0.000 C 
ATOM      9  O   UNL     1       3.223  13.823  19.364  0.00  0.00    +0.000 OA
ATOM     10  C   UNL     1       3.887  14.937  18.749  0.00  0.00    +0.000 C 
ATOM     11  C   UNL     1       3.114  16.235  19.010  0.00  0.00    +0.000 C 
ATOM     12  C   UNL     1       1.647  16.078  18.570  0.00  0.00    +0.000 C 
ATOM     13  C   UNL     1       1.001  14.809  19.157  0.00  0.00    +0.000 C 
BRANCH  13  14
ATOM     14  O   UNL     1      -0.321  14.649  18.631  0.00  0.00    +0.000 OA
ATOM     15  H   UNL     1      -0.378  15.109  17.777  0.00  0.00    +0.000 HD
ENDBRANCH  13  14
BRANCH  12  16
ATOM     16  O   UNL     1       0.895  17.244  18.922  0.00  0.00    +0.000 OA
ATOM     17  H   UNL     1       1.522  17.967  19.101  0.00  0.00    +0.000 HD
ENDBRANCH  12  16
BRANCH  11  18
ATOM     18  O   UNL     1       3.745  17.321  18.319  0.00  0.00    +0.000 OA
ATOM     19  H   UNL     1       3.518  17.274  17.376  0.00  0.00    +0.000 HD
ENDBRANCH  11  18
BRANCH  10  20
ATOM     20  C   UNL     1       5.320  15.008  19.312  0.00  0.00    +0.000 C 
BRANCH  20  21
ATOM     21  O   UNL     1       5.433  16.022  20.306  0.00  0.00    +0.000 OA
ATOM     22  H   UNL     1       6.376  16.052  20.553  0.00  0.00    +0.000 HD
ENDBRANCH  20  21
ENDBRANCH  10  20
ENDBRANCH   3   8
BRANCH   1  23
ATOM     23  C   UNL     1       1.070   8.625  18.204  0.00  0.00    +0.000 C 
BRANCH  23  27
ATOM     24  C   UNL     1       4.398   6.066  18.534  0.00  0.00    +0.000 A 
ATOM     25  C   UNL     1       4.447   7.015  17.538  0.00  0.00    +0.000 A 
ATOM     26  C   UNL     1       3.377   7.896  17.433  0.00  0.00    +0.000 A 
ATOM     27  C   UNL     1       2.304   7.770  18.311  0.00  0.00    +0.000 A 
ATOM     28  N   UNL     1       2.314   6.843  19.294  0.00  0.00    +0.000 NA
ATOM     29  N   UNL     1       3.373   5.997  19.414  0.00  0.00    +0.000 NA
BRANCH  24  30
ATOM     30  O   UNL     1       5.438   5.163  18.631  0.00  0.00    +0.000 OA
BRANCH  30  31
ATOM     31  C   UNL     1       4.936   3.839  18.852  0.00  0.00    +0.000 C 
BRANCH  31  32
ATOM     32  C   UNL     1       4.429   3.262  17.537  0.00  0.00    +0.000 C 
BRANCH  32  33
ATOM     33  C   UNL     1       3.197   2.390  17.777  0.00  0.00    +0.000 C 
BRANCH  33  34
ATOM     34  C   UNL     1       1.916   3.213  17.690  0.00  0.00    +0.000 C 
BRANCH  34  35
ATOM     35  C   UNL     1       0.826   2.638  18.592  0.00  0.00    +0.000 C 
BRANCH  35  36
ATOM     36  C   UNL     1       0.813   3.350  19.943  0.00  0.00    +0.000 C 
BRANCH  36  38
ATOM     37  C   UNL     1       2.372   3.493  21.906  0.00  0.00    +0.000 C 
ATOM     38  C   UNL     1       1.587   2.563  20.997  0.00  0.00    +0.000 C 
ENDBRANCH  36  38
ENDBRANCH  35  36
ENDBRANCH  34  35
ENDBRANCH  33  34
ENDBRANCH  32  33
ENDBRANCH  31  32
ENDBRANCH  30  31
ENDBRANCH  24  30
ENDBRANCH  23  27
ENDBRANCH   1  23
TORSDOF 16
ENDMDL
MODEL 9
REMARK VINA RESULT:      -6.8      5.816     10.985
REMARK  Name = 
REMARK  17 active torsions:
REMARK  status: ('A' for Active; 'I' for Inactive)
REMARK    1  A    between atoms: C_1  and  C_2
REMARK    2  A    between atoms: C_2  and  C_3
REMARK    3  A    between atoms: C_3  and  C_4
REMARK    4  A    between atoms: C_4  and  C_5
REMARK    5  A    between atoms: C_5  and  C_6
REMARK    6  A    between atoms: C_6  and  C_7
REMARK    7  A    between atoms: C_7  and  C_8
REMARK    8  A    between atoms: C_8  and  O_9
REMARK    9  A    between atoms: O_9  and  C_10
REMARK   10  A    between atoms: C_13  and  C_14
REMARK   11  A    between atoms: C_14  and  C_15
REMARK   12  A    between atoms: C_17  and  C_18
REMARK   13  A    between atoms: C_20  and  C_21
REMARK   14  A    between atoms: C_21  and  O_22
REMARK   15  A    between atoms: C_23  and  O_24
REMARK   16  A    between atoms: C_25  and  O_26
REMARK   17  A    between atoms: C_27  and  O_28
REMARK                            x       y       z     vdW  Elec       q    Type
REMARK                         _______ _______ _______ _____ _____    ______ ____
ROOT
ATOM      1  C   UNL     1       1.165   9.295  19.251  0.00  0.00    +0.000 A 
ATOM      2  C   UNL     1       1.822   8.210  18.624  0.00  0.00    +0.000 A 
ATOM      3  C   UNL     1       2.167   7.044  19.338  0.00  0.00    +0.000 A 
ATOM      4  C   UNL     1       1.950   7.016  20.718  0.00  0.00    +0.000 A 
ATOM      5  C   UNL     1       1.256   8.050  21.346  0.00  0.00    +0.000 A 
ATOM      6  C   UNL     1       0.827   9.158  20.605  0.00  0.00    +0.000 A 
ATOM      7 CL   UNL     1      -0.149  10.311  21.441  0.00  0.00    +0.000 Cl
ENDROOT
BRANCH   3   8
ATOM      8  C   UNL     1       2.700   5.817  18.615  0.00  0.00    +0.000 C 
ATOM      9  O   UNL     1       1.890   4.673  18.963  0.00  0.00    +0.000 OA
ATOM     10  C   UNL     1       2.191   3.519  18.163  0.00  0.00    +0.000 C 
ATOM     11  C   UNL     1       3.644   3.080  18.376  0.00  0.00    +0.000 C 
ATOM     12  C   UNL     1       4.599   4.262  18.129  0.00  0.00    +0.000 C 
ATOM     13  C   UNL     1       4.179   5.517  18.916  0.00  0.00    +0.000 C 
BRANCH  13  14
ATOM     14  O   UNL     1       5.029   6.617  18.568  0.00  0.00    +0.000 OA
ATOM     15  H   UNL     1       5.812   6.274  18.106  0.00  0.00    +0.000 HD
ENDBRANCH  13  14
BRANCH  12  16
ATOM     16  O   UNL     1       5.944   3.888  18.444  0.00  0.00    +0.000 OA
ATOM     17  H   UNL     1       6.467   4.702  18.556  0.00  0.00    +0.000 HD
ENDBRANCH  12  16
BRANCH  11  18
ATOM     18  O   UNL     1       3.949   1.982  17.508  0.00  0.00    +0.000 OA
ATOM     19  H   UNL     1       3.518   2.124  16.650  0.00  0.00    +0.000 HD
ENDBRANCH  11  18
BRANCH  10  20
ATOM     20  C   UNL     1       1.199   2.403  18.545  0.00  0.00    +0.000 C 
BRANCH  20  21
ATOM     21  O   UNL     1       1.873   1.298  19.139  0.00  0.00    +0.000 OA
ATOM     22  H   UNL     1       1.391   1.104  19.965  0.00  0.00    +0.000 HD
ENDBRANCH  20  21
ENDBRANCH  10  20
ENDBRANCH   3   8
BRANCH   1  23
ATOM     23  C   UNL     1       0.852  10.552  18.462  0.00  0.00    +0.000 C 
BRANCH  23  27
ATOM     24  C   UNL     1      -3.242  10.849  17.518  0.00  0.00    +0.000 A 
ATOM     25  C   UNL     1      -2.715  11.853  18.300  0.00  0.00    +0.000 A 
ATOM     26  C   UNL     1      -1.357  11.797  18.593  0.00  0.00    +0.000 A 
ATOM     27  C   UNL     1      -0.601  10.731  18.113  0.00  0.00    +0.000 A 
ATOM     28  N   UNL     1      -1.155   9.786  17.322  0.00  0.00    +0.000 NA
ATOM     29  N   UNL     1      -2.478   9.853  17.013  0.00  0.00    +0.000 NA
BRANCH  24  30
ATOM     30  O   UNL     1      -4.595  10.872  17.244  0.00  0.00    +0.000 OA
BRANCH  30  31
ATOM     31  C   UNL     1      -5.347  10.443  18.386  0.00  0.00    +0.000 C 
BRANCH  31  32
ATOM     32  C   UNL     1      -6.550  11.357  18.575  0.00  0.00    +0.000 C 
BRANCH  32  33
ATOM     33  C   UNL     1      -6.525  11.991  19.966  0.00  0.00    +0.000 C 
BRANCH  33  34
ATOM     34  C   UNL     1      -7.544  13.120  20.073  0.00  0.00    +0.000 C 
BRANCH  34  35
ATOM     35  C   UNL     1      -7.845  13.458  21.532  0.00  0.00    +0.000 C 
BRANCH  35  36
ATOM     36  C   UNL     1      -7.909  12.186  22.376  0.00  0.00    +0.000 C 
BRANCH  36  38
ATOM     37  C   UNL     1      -5.963  13.146  23.637  0.00  0.00    +0.000 C 
ATOM     38  C   UNL     1      -7.279  12.395  23.750  0.00  0.00    +0.000 C 
ENDBRANCH  36  38
ENDBRANCH  35  36
ENDBRANCH  34  35
ENDBRANCH  33  34
ENDBRANCH  32  33
ENDBRANCH  31  32
ENDBRANCH  30  31
ENDBRANCH  24  30
ENDBRANCH  23  27
ENDBRANCH   1  23
TORSDOF 16
ENDMDL
