MODEL 1
REMARK VINA RESULT:      -7.6      0.000      0.000
REMARK  Name = 
REMARK  7 active torsions:
REMARK  status: ('A' for Active; 'I' for Inactive)
REMARK    1  A    between atoms: C_1  and  C_2
REMARK    2  A    between atoms: C_2  and  C_3
REMARK    3  A    between atoms: C_6  and  C_7
REMARK    4  A    between atoms: C_7  and  N_8
REMARK    5  A    between atoms: C_12  and  C_13
REMARK    6  A    between atoms: C_18  and  C_19
REMARK    7  A    between atoms: N_22  and  C_23
REMARK                            x       y       z     vdW  Elec       q    Type
REMARK                         _______ _______ _______ _____ _____    ______ ____
ROOT
ATOM      1  N   UNL     1       6.101   5.076  17.253  0.00  0.00    +0.000 N 
ATOM      2  C   UNL     1       4.980   4.321  17.549  0.00  0.00    +0.000 A 
ATOM      3  O   UNL     1       4.898   3.108  17.560  0.00  0.00    +0.000 OA
ATOM      4  C   UNL     1       3.904   5.266  17.862  0.00  0.00    +0.000 A 
ATOM      5  C   UNL     1       2.582   5.099  18.228  0.00  0.00    +0.000 A 
ATOM      6  C   UNL     1       1.872   6.281  18.503  0.00  0.00    +0.000 A 
ATOM      7  C   UNL     1       2.500   7.528  18.386  0.00  0.00    +0.000 A 
ATOM      8  C   UNL     1       1.752   8.790  18.719  0.00  0.00    +0.000 C 
ATOM      9  N   UNL     1       3.787   7.669  17.973  0.00  0.00    +0.000 NA
ATOM     10  C   UNL     1       4.460   6.535  17.706  0.00  0.00    +0.000 A 
ATOM     11  N   UNL     1       5.759   6.439  17.203  0.00  0.00    +0.000 N 
ATOM     12  C   UNL     1       6.696   7.519  17.065  0.00  0.00    +0.000 C 
ENDROOT
BRANCH   5  13
ATOM     13  C   UNL     1       1.873   3.782  18.306  0.00  0.00    +0.000 C 
ATOM     14  F   UNL     1       0.610   3.783  18.782  0.00  0.00    +0.000 F 
ATOM     15  F   UNL     1       1.805   3.179  17.085  0.00  0.00    +0.000 F 
ATOM     16  F   UNL     1       2.556   2.904  19.100  0.00  0.00    +0.000 F 
ENDBRANCH   5  13
BRANCH   1  17
ATOM     17  C   UNL     1       7.268   4.514  16.604  0.00  0.00    +0.000 C 
BRANCH  17  21
ATOM     18  C   UNL     1       6.494   3.835  13.187  0.00  0.00    +0.000 A 
ATOM     19  C   UNL     1       7.231   4.988  13.049  0.00  0.00    +0.000 A 
ATOM     20  N   UNL     1       7.650   5.429  14.275  0.00  0.00    +0.000 NA
ATOM     21  C   UNL     1       7.139   4.553  15.121  0.00  0.00    +0.000 A 
ATOM     22  O   UNL     1       6.431   3.540  14.522  0.00  0.00    +0.000 OA
BRANCH  18  24
ATOM     23  C   UNL     1       4.536   3.554  11.689  0.00  0.00    +0.000 C 
ATOM     24  C   UNL     1       5.806   2.927  12.243  0.00  0.00    +0.000 C 
ENDBRANCH  18  24
ENDBRANCH  17  21
ENDBRANCH   1  17
TORSDOF 4
ENDMDL
MODEL 2
REMARK VINA RESULT:      -7.6      1.885      2.286
REMARK  Name = 
REMARK  7 active torsions:
REMARK  status: ('A' for Active; 'I' for Inactive)
REMARK    1  A    between atoms: C_1  and  C_2
REMARK    2  A    between atoms: C_2  and  C_3
REMARK    3  A    between atoms: C_6  and  C_7
REMARK    4  A    between atoms: C_7  and  N_8
REMARK    5  A    between atoms: C_12  and  C_13
REMARK    6  A    between atoms: C_18  and  C_19
REMARK    7  A    between atoms: N_22  and  C_23
REMARK                            x       y       z     vdW  Elec       q    Type
REMARK                         _______ _______ _______ _____ _____    ______ ____
ROOT
ATOM      1  N   UNL     1       5.704   4.734  18.527  0.00  0.00    +0.000 N 
ATOM      2  C   UNL     1       4.865   3.888  19.231  0.00  0.00    +0.000 A 
ATOM      3  O   UNL     1       5.048   2.709  19.470  0.00  0.00    +0.000 OA
ATOM      4  C   UNL     1       3.710   4.689  19.649  0.00  0.00    +0.000 A 
ATOM      5  C   UNL     1       2.571   4.391  20.371  0.00  0.00    +0.000 A 
ATOM      6  C   UNL     1       1.705   5.471  20.616  0.00  0.00    +0.000 A 
ATOM      7  C   UNL     1       2.010   6.749  20.128  0.00  0.00    +0.000 A 
ATOM      8  C   UNL     1       1.106   7.912  20.425  0.00  0.00    +0.000 C 
ATOM      9  N   UNL     1       3.112   7.005  19.375  0.00  0.00    +0.000 NA
ATOM     10  C   UNL     1       3.934   5.966  19.138  0.00  0.00    +0.000 A 
ATOM     11  N   UNL     1       5.078   5.977  18.337  0.00  0.00    +0.000 N 
ATOM     12  C   UNL     1       5.708   7.140  17.776  0.00  0.00    +0.000 C 
ENDROOT
BRANCH   5  13
ATOM     13  C   UNL     1       2.195   3.024  20.855  0.00  0.00    +0.000 C 
ATOM     14  F   UNL     1       2.127   2.036  19.937  0.00  0.00    +0.000 F 
ATOM     15  F   UNL     1       3.058   2.578  21.811  0.00  0.00    +0.000 F 
ATOM     16  F   UNL     1       0.970   3.038  21.459  0.00  0.00    +0.000 F 
ENDBRANCH   5  13
BRANCH   1  17
ATOM     17  C   UNL     1       6.788   4.243  17.701  0.00  0.00    +0.000 C 
BRANCH  17  21
ATOM     18  C   UNL     1       6.820   4.698  14.162  0.00  0.00    +0.000 A 
ATOM     19  C   UNL     1       5.529   4.262  14.343  0.00  0.00    +0.000 A 
ATOM     20  N   UNL     1       5.291   4.031  15.671  0.00  0.00    +0.000 NA
ATOM     21  C   UNL     1       6.444   4.307  16.254  0.00  0.00    +0.000 A 
ATOM     22  O   UNL     1       7.422   4.735  15.390  0.00  0.00    +0.000 OA
BRANCH  18  24
ATOM     23  C   UNL     1       7.299   4.241  11.770  0.00  0.00    +0.000 C 
ATOM     24  C   UNL     1       7.622   5.098  12.985  0.00  0.00    +0.000 C 
ENDBRANCH  18  24
ENDBRANCH  17  21
ENDBRANCH   1  17
TORSDOF 4
ENDMDL
MODEL 3
REMARK VINA RESULT:      -7.5      1.410      1.718
REMARK  Name = 
REMARK  7 active torsions:
REMARK  status: ('A' for Active; 'I' for Inactive)
REMARK    1  A    between atoms: C_1  and  C_2
REMARK    2  A    between atoms: C_2  and  C_3
REMARK    3  A    between atoms: C_6  and  C_7
REMARK    4  A    between atoms: C_7  and  N_8
REMARK    5  A    between atoms: C_12  and  C_13
REMARK    6  A    between atoms: C_18  and  C_19
REMARK    7  A    between atoms: N_22  and  C_23
REMARK                            x       y       z     vdW  Elec       q    Type
REMARK                         _______ _______ _______ _____ _____    ______ ____
ROOT
ATOM      1  N   UNL     1       5.939   4.854  18.294  0.00  0.00    +0.000 N 
ATOM      2  C   UNL     1       5.039   4.079  19.005  0.00  0.00    +0.000 A 
ATOM      3  O   UNL     1       5.173   2.915  19.331  0.00  0.00    +0.000 OA
ATOM      4  C   UNL     1       3.887   4.936  19.303  0.00  0.00    +0.000 A 
ATOM      5  C   UNL     1       2.702   4.717  19.979  0.00  0.00    +0.000 A 
ATOM      6  C   UNL     1       1.857   5.834  20.104  0.00  0.00    +0.000 A 
ATOM      7  C   UNL     1       2.225   7.067  19.551  0.00  0.00    +0.000 A 
ATOM      8  C   UNL     1       1.341   8.271  19.719  0.00  0.00    +0.000 C 
ATOM      9  N   UNL     1       3.373   7.244  18.845  0.00  0.00    +0.000 NA
ATOM     10  C   UNL     1       4.176   6.170  18.723  0.00  0.00    +0.000 A 
ATOM     11  N   UNL     1       5.361   6.097  17.988  0.00  0.00    +0.000 N 
ATOM     12  C   UNL     1       6.054   7.203  17.387  0.00  0.00    +0.000 C 
ENDROOT
BRANCH   5  13
ATOM     13  C   UNL     1       2.260   3.396  20.531  0.00  0.00    +0.000 C 
ATOM     14  F   UNL     1       2.225   2.348  19.680  0.00  0.00    +0.000 F 
ATOM     15  F   UNL     1       3.049   3.000  21.569  0.00  0.00    +0.000 F 
ATOM     16  F   UNL     1       1.000   3.479  21.051  0.00  0.00    +0.000 F 
ENDBRANCH   5  13
BRANCH   1  17
ATOM     17  C   UNL     1       7.051   4.280  17.564  0.00  0.00    +0.000 C 
BRANCH  17  21
ATOM     18  C   UNL     1       5.982   4.117  14.164  0.00  0.00    +0.000 A 
ATOM     19  C   UNL     1       7.042   4.984  14.048  0.00  0.00    +0.000 A 
ATOM     20  N   UNL     1       7.623   5.185  15.271  0.00  0.00    +0.000 NA
ATOM     21  C   UNL     1       6.890   4.459  16.095  0.00  0.00    +0.000 A 
ATOM     22  O   UNL     1       5.875   3.766  15.482  0.00  0.00    +0.000 OA
BRANCH  18  24
ATOM     23  C   UNL     1       5.674   3.134  11.906  0.00  0.00    +0.000 C 
ATOM     24  C   UNL     1       5.008   3.540  13.211  0.00  0.00    +0.000 C 
ENDBRANCH  18  24
ENDBRANCH  17  21
ENDBRANCH   1  17
TORSDOF 4
ENDMDL
MODEL 4
REMARK VINA RESULT:      -7.5      3.518      5.155
REMARK  Name = 
REMARK  7 active torsions:
REMARK  status: ('A' for Active; 'I' for Inactive)
REMARK    1  A    between atoms: C_1  and  C_2
REMARK    2  A    between atoms: C_2  and  C_3
REMARK    3  A    between atoms: C_6  and  C_7
REMARK    4  A    between atoms: C_7  and  N_8
REMARK    5  A    between atoms: C_12  and  C_13
REMARK    6  A    between atoms: C_18  and  C_19
REMARK    7  A    between atoms: N_22  and  C_23
REMARK                            x       y       z     vdW  Elec       q    Type
REMARK                         _______ _______ _______ _____ _____    ______ ____
ROOT
ATOM      1  N   UNL     1       4.210   6.063  17.308  0.00  0.00    +0.000 N 
ATOM      2  C   UNL     1       3.427   6.911  18.072  0.00  0.00    +0.000 A 
ATOM      3  O   UNL     1       3.308   8.114  17.941  0.00  0.00    +0.000 OA
ATOM      4  C   UNL     1       2.753   6.076  19.072  0.00  0.00    +0.000 A 
ATOM      5  C   UNL     1       1.860   6.361  20.087  0.00  0.00    +0.000 A 
ATOM      6  C   UNL     1       1.388   5.252  20.812  0.00  0.00    +0.000 A 
ATOM      7  C   UNL     1       1.832   3.961  20.501  0.00  0.00    +0.000 A 
ATOM      8  C   UNL     1       1.297   2.772  21.248  0.00  0.00    +0.000 C 
ATOM      9  N   UNL     1       2.752   3.712  19.531  0.00  0.00    +0.000 NA
ATOM     10  C   UNL     1       3.205   4.777  18.845  0.00  0.00    +0.000 A 
ATOM     11  N   UNL     1       4.197   4.772  17.861  0.00  0.00    +0.000 N 
ATOM     12  C   UNL     1       4.779   3.608  17.252  0.00  0.00    +0.000 C 
ENDROOT
BRANCH   5  13
ATOM     13  C   UNL     1       1.413   7.737  20.476  0.00  0.00    +0.000 C 
ATOM     14  F   UNL     1       1.108   8.596  19.480  0.00  0.00    +0.000 F 
ATOM     15  F   UNL     1       0.311   7.696  21.276  0.00  0.00    +0.000 F 
ATOM     16  F   UNL     1       2.369   8.372  21.217  0.00  0.00    +0.000 F 
ENDBRANCH   5  13
BRANCH   1  17
ATOM     17  C   UNL     1       5.250   6.551  16.425  0.00  0.00    +0.000 C 
BRANCH  17  21
ATOM     18  C   UNL     1       7.909   8.460  17.846  0.00  0.00    +0.000 A 
ATOM     19  C   UNL     1       8.159   7.230  18.409  0.00  0.00    +0.000 A 
ATOM     20  N   UNL     1       7.235   6.318  17.977  0.00  0.00    +0.000 NA
ATOM     21  C   UNL     1       6.440   7.018  17.189  0.00  0.00    +0.000 A 
ATOM     22  O   UNL     1       6.802   8.335  17.052  0.00  0.00    +0.000 OA
BRANCH  18  24
ATOM     23  C   UNL     1       9.233   9.994  19.278  0.00  0.00    +0.000 C 
ATOM     24  C   UNL     1       8.554   9.789  17.933  0.00  0.00    +0.000 C 
ENDBRANCH  18  24
ENDBRANCH  17  21
ENDBRANCH   1  17
TORSDOF 4
ENDMDL
MODEL 5
REMARK VINA RESULT:      -6.9      3.368      6.645
REMARK  Name = 
REMARK  7 active torsions:
REMARK  status: ('A' for Active; 'I' for Inactive)
REMARK    1  A    between atoms: C_1  and  C_2
REMARK    2  A    between atoms: C_2  and  C_3
REMARK    3  A    between atoms: C_6  and  C_7
REMARK    4  A    between atoms: C_7  and  N_8
REMARK    5  A    between atoms: C_12  and  C_13
REMARK    6  A    between atoms: C_18  and  C_19
REMARK    7  A    between atoms: N_22  and  C_23
REMARK                            x       y       z     vdW  Elec       q    Type
REMARK                         _______ _______ _______ _____ _____    ______ ____
ROOT
ATOM      1  N   UNL     1       4.779   3.374  19.088  0.00  0.00    +0.000 N 
ATOM      2  C   UNL     1       5.620   4.468  18.978  0.00  0.00    +0.000 A 
ATOM      3  O   UNL     1       6.055   5.150  19.887  0.00  0.00    +0.000 OA
ATOM      4  C   UNL     1       5.900   4.645  17.550  0.00  0.00    +0.000 A 
ATOM      5  C   UNL     1       6.666   5.555  16.847  0.00  0.00    +0.000 A 
ATOM      6  C   UNL     1       6.727   5.355  15.457  0.00  0.00    +0.000 A 
ATOM      7  C   UNL     1       6.028   4.296  14.862  0.00  0.00    +0.000 A 
ATOM      8  C   UNL     1       6.126   4.057  13.381  0.00  0.00    +0.000 C 
ATOM      9  N   UNL     1       5.238   3.446  15.569  0.00  0.00    +0.000 NA
ATOM     10  C   UNL     1       5.178   3.646  16.899  0.00  0.00    +0.000 A 
ATOM     11  N   UNL     1       4.383   2.947  17.810  0.00  0.00    +0.000 N 
ATOM     12  C   UNL     1       3.630   1.754  17.536  0.00  0.00    +0.000 C 
ENDROOT
BRANCH   5  13
ATOM     13  C   UNL     1       7.377   6.726  17.452  0.00  0.00    +0.000 C 
ATOM     14  F   UNL     1       8.234   6.478  18.466  0.00  0.00    +0.000 F 
ATOM     15  F   UNL     1       8.100   7.408  16.519  0.00  0.00    +0.000 F 
ATOM     16  F   UNL     1       6.487   7.636  17.949  0.00  0.00    +0.000 F 
ENDBRANCH   5  13
BRANCH   1  17
ATOM     17  C   UNL     1       4.045   3.077  20.301  0.00  0.00    +0.000 C 
BRANCH  17  21
ATOM     18  C   UNL     1       1.570   5.630  20.592  0.00  0.00    +0.000 A 
ATOM     19  C   UNL     1       0.767   4.524  20.437  0.00  0.00    +0.000 A 
ATOM     20  N   UNL     1       1.535   3.398  20.314  0.00  0.00    +0.000 NA
ATOM     21  C   UNL     1       2.775   3.849  20.373  0.00  0.00    +0.000 A 
ATOM     22  O   UNL     1       2.870   5.207  20.557  0.00  0.00    +0.000 OA
BRANCH  18  24
ATOM     23  C   UNL     1       1.978   7.900  19.678  0.00  0.00    +0.000 C 
ATOM     24  C   UNL     1       1.315   7.076  20.771  0.00  0.00    +0.000 C 
ENDBRANCH  18  24
ENDBRANCH  17  21
ENDBRANCH   1  17
TORSDOF 4
ENDMDL
MODEL 6
REMARK VINA RESULT:      -6.7      4.322      5.944
REMARK  Name = 
REMARK  7 active torsions:
REMARK  status: ('A' for Active; 'I' for Inactive)
REMARK    1  A    between atoms: C_1  and  C_2
REMARK    2  A    between atoms: C_2  and  C_3
REMARK    3  A    between atoms: C_6  and  C_7
REMARK    4  A    between atoms: C_7  and  N_8
REMARK    5  A    between atoms: C_12  and  C_13
REMARK    6  A    between atoms: C_18  and  C_19
REMARK    7  A    between atoms: N_22  and  C_23
REMARK                            x       y       z     vdW  Elec       q    Type
REMARK                         _______ _______ _______ _____ _____    ______ ____
ROOT
ATOM      1  N   UNL     1       2.287   6.741  18.664  0.00  0.00    +0.000 N 
ATOM      2  C   UNL     1       2.099   8.069  18.320  0.00  0.00    +0.000 A 
ATOM      3  O   UNL     1       2.308   8.580  17.237  0.00  0.00    +0.000 OA
ATOM      4  C   UNL     1       1.585   8.745  19.515  0.00  0.00    +0.000 A 
ATOM      5  C   UNL     1       1.214  10.052  19.770  0.00  0.00    +0.000 A 
ATOM      6  C   UNL     1       0.705  10.301  21.057  0.00  0.00    +0.000 A 
ATOM      7  C   UNL     1       0.611   9.264  21.994  0.00  0.00    +0.000 A 
ATOM      8  C   UNL     1       0.029   9.521  23.357  0.00  0.00    +0.000 C 
ATOM      9  N   UNL     1       1.032   7.997  21.737  0.00  0.00    +0.000 NA
ATOM     10  C   UNL     1       1.524   7.766  20.505  0.00  0.00    +0.000 A 
ATOM     11  N   UNL     1       2.076   6.570  20.042  0.00  0.00    +0.000 N 
ATOM     12  C   UNL     1       2.043   5.304  20.720  0.00  0.00    +0.000 C 
ENDROOT
BRANCH   5  13
ATOM     13  C   UNL     1       1.357  11.188  18.804  0.00  0.00    +0.000 C 
ATOM     14  F   UNL     1       0.515  11.216  17.748  0.00  0.00    +0.000 F 
ATOM     15  F   UNL     1       1.208  12.392  19.425  0.00  0.00    +0.000 F 
ATOM     16  F   UNL     1       2.612  11.217  18.264  0.00  0.00    +0.000 F 
ENDBRANCH   5  13
BRANCH   1  17
ATOM     17  C   UNL     1       3.064   5.830  17.849  0.00  0.00    +0.000 C 
BRANCH  17  21
ATOM     18  C   UNL     1       6.576   6.445  17.996  0.00  0.00    +0.000 A 
ATOM     19  C   UNL     1       6.426   5.608  19.076  0.00  0.00    +0.000 A 
ATOM     20  N   UNL     1       5.117   5.231  19.202  0.00  0.00    +0.000 NA
ATOM     21  C   UNL     1       4.507   5.863  18.217  0.00  0.00    +0.000 A 
ATOM     22  O   UNL     1       5.343   6.615  17.429  0.00  0.00    +0.000 OA
BRANCH  18  24
ATOM     23  C   UNL     1       7.780   8.607  17.803  0.00  0.00    +0.000 C 
ATOM     24  C   UNL     1       7.725   7.147  17.381  0.00  0.00    +0.000 C 
ENDBRANCH  18  24
ENDBRANCH  17  21
ENDBRANCH   1  17
TORSDOF 4
ENDMDL
MODEL 7
REMARK VINA RESULT:      -6.7      3.313      6.473
REMARK  Name = 
REMARK  7 active torsions:
REMARK  status: ('A' for Active; 'I' for Inactive)
REMARK    1  A    between atoms: C_1  and  C_2
REMARK    2  A    between atoms: C_2  and  C_3
REMARK    3  A    between atoms: C_6  and  C_7
REMARK    4  A    between atoms: C_7  and  N_8
REMARK    5  A    between atoms: C_12  and  C_13
REMARK    6  A    between atoms: C_18  and  C_19
REMARK    7  A    between atoms: N_22  and  C_23
REMARK                            x       y       z     vdW  Elec       q    Type
REMARK                         _______ _______ _______ _____ _____    ______ ____
ROOT
ATOM      1  N   UNL     1       4.408   3.829  18.927  0.00  0.00    +0.000 N 
ATOM      2  C   UNL     1       5.354   4.835  18.837  0.00  0.00    +0.000 A 
ATOM      3  O   UNL     1       5.753   5.547  19.739  0.00  0.00    +0.000 OA
ATOM      4  C   UNL     1       5.798   4.874  17.441  0.00  0.00    +0.000 A 
ATOM      5  C   UNL     1       6.716   5.657  16.767  0.00  0.00    +0.000 A 
ATOM      6  C   UNL     1       6.905   5.343  15.409  0.00  0.00    +0.000 A 
ATOM      7  C   UNL     1       6.177   4.305  14.815  0.00  0.00    +0.000 A 
ATOM      8  C   UNL     1       6.408   3.942  13.374  0.00  0.00    +0.000 C 
ATOM      9  N   UNL     1       5.240   3.583  15.486  0.00  0.00    +0.000 NA
ATOM     10  C   UNL     1       5.060   3.892  16.783  0.00  0.00    +0.000 A 
ATOM     11  N   UNL     1       4.111   3.337  17.645  0.00  0.00    +0.000 N 
ATOM     12  C   UNL     1       3.283   2.195  17.371  0.00  0.00    +0.000 C 
ENDROOT
BRANCH   5  13
ATOM     13  C   UNL     1       7.465   6.808  17.366  0.00  0.00    +0.000 C 
ATOM     14  F   UNL     1       8.252   6.550  18.432  0.00  0.00    +0.000 F 
ATOM     15  F   UNL     1       8.276   7.408  16.448  0.00  0.00    +0.000 F 
ATOM     16  F   UNL     1       6.609   7.788  17.780  0.00  0.00    +0.000 F 
ENDBRANCH   5  13
BRANCH   1  17
ATOM     17  C   UNL     1       3.525   3.692  20.067  0.00  0.00    +0.000 C 
BRANCH  17  21
ATOM     18  C   UNL     1       1.991   6.903  19.806  0.00  0.00    +0.000 A 
ATOM     19  C   UNL     1       1.357   6.417  20.924  0.00  0.00    +0.000 A 
ATOM     20  N   UNL     1       1.817   5.162  21.219  0.00  0.00    +0.000 NA
ATOM     21  C   UNL     1       2.694   4.912  20.264  0.00  0.00    +0.000 A 
ATOM     22  O   UNL     1       2.862   5.941  19.371  0.00  0.00    +0.000 OA
BRANCH  18  24
ATOM     23  C   UNL     1       2.816   8.134  17.815  0.00  0.00    +0.000 C 
ATOM     24  C   UNL     1       1.915   8.166  19.039  0.00  0.00    +0.000 C 
ENDBRANCH  18  24
ENDBRANCH  17  21
ENDBRANCH   1  17
TORSDOF 4
ENDMDL
MODEL 8
REMARK VINA RESULT:      -6.6      1.975      2.603
REMARK  Name = 
REMARK  7 active torsions:
REMARK  status: ('A' for Active; 'I' for Inactive)
REMARK    1  A    between atoms: C_1  and  C_2
REMARK    2  A    between atoms: C_2  and  C_3
REMARK    3  A    between atoms: C_6  and  C_7
REMARK    4  A    between atoms: C_7  and  N_8
REMARK    5  A    between atoms: C_12  and  C_13
REMARK    6  A    between atoms: C_18  and  C_19
REMARK    7  A    between atoms: N_22  and  C_23
REMARK                            x       y       z     vdW  Elec       q    Type
REMARK                         _______ _______ _______ _____ _____    ______ ____
ROOT
ATOM      1  N   UNL     1       4.239   3.972  17.519  0.00  0.00    +0.000 N 
ATOM      2  C   UNL     1       3.697   3.277  18.585  0.00  0.00    +0.000 A 
ATOM      3  O   UNL     1       3.810   2.088  18.817  0.00  0.00    +0.000 OA
ATOM      4  C   UNL     1       2.964   4.253  19.398  0.00  0.00    +0.000 A 
ATOM      5  C   UNL     1       2.236   4.146  20.567  0.00  0.00    +0.000 A 
ATOM      6  C   UNL     1       1.720   5.351  21.076  0.00  0.00    +0.000 A 
ATOM      7  C   UNL     1       1.941   6.558  20.400  0.00  0.00    +0.000 A 
ATOM      8  C   UNL     1       1.424   7.851  20.965  0.00  0.00    +0.000 C 
ATOM      9  N   UNL     1       2.617   6.630  19.223  0.00  0.00    +0.000 NA
ATOM     10  C   UNL     1       3.104   5.472  18.737  0.00  0.00    +0.000 A 
ATOM     11  N   UNL     1       3.763   5.294  17.519  0.00  0.00    +0.000 N 
ATOM     12  C   UNL     1       4.225   6.337  16.646  0.00  0.00    +0.000 C 
ENDROOT
BRANCH   5  13
ATOM     13  C   UNL     1       1.938   2.861  21.277  0.00  0.00    +0.000 C 
ATOM     14  F   UNL     1       2.974   2.215  21.854  0.00  0.00    +0.000 F 
ATOM     15  F   UNL     1       1.019   3.040  22.269  0.00  0.00    +0.000 F 
ATOM     16  F   UNL     1       1.374   1.951  20.429  0.00  0.00    +0.000 F 
ENDBRANCH   5  13
BRANCH   1  17
ATOM     17  C   UNL     1       4.769   3.307  16.346  0.00  0.00    +0.000 C 
BRANCH  17  21
ATOM     18  C   UNL     1       7.220   4.824  14.244  0.00  0.00    +0.000 A 
ATOM     19  C   UNL     1       7.772   5.065  15.480  0.00  0.00    +0.000 A 
ATOM     20  N   UNL     1       6.975   4.542  16.462  0.00  0.00    +0.000 NA
ATOM     21  C   UNL     1       5.956   4.023  15.802  0.00  0.00    +0.000 A 
ATOM     22  O   UNL     1       6.048   4.147  14.437  0.00  0.00    +0.000 OA
BRANCH  18  24
ATOM     23  C   UNL     1       7.099   4.097  11.874  0.00  0.00    +0.000 C 
ATOM     24  C   UNL     1       7.619   5.138  12.854  0.00  0.00    +0.000 C 
ENDBRANCH  18  24
ENDBRANCH  17  21
ENDBRANCH   1  17
TORSDOF 4
ENDMDL
MODEL 9
REMARK VINA RESULT:      -6.6      7.380     10.359
REMARK  Name = 
REMARK  7 active torsions:
REMARK  status: ('A' for Active; 'I' for Inactive)
REMARK    1  A    between atoms: C_1  and  C_2
REMARK    2  A    between atoms: C_2  and  C_3
REMARK    3  A    between atoms: C_6  and  C_7
REMARK    4  A    between atoms: C_7  and  N_8
REMARK    5  A    between atoms: C_12  and  C_13
REMARK    6  A    between atoms: C_18  and  C_19
REMARK    7  A    between atoms: N_22  and  C_23
REMARK                            x       y       z     vdW  Elec       q    Type
REMARK                         _______ _______ _______ _____ _____    ______ ____
ROOT
ATOM      1  N   UNL     1      -1.708  11.820  19.948  0.00  0.00    +0.000 N 
ATOM      2  C   UNL     1      -1.878  11.277  18.687  0.00  0.00    +0.000 A 
ATOM      3  O   UNL     1      -1.042  10.695  18.023  0.00  0.00    +0.000 OA
ATOM      4  C   UNL     1      -3.272  11.526  18.304  0.00  0.00    +0.000 A 
ATOM      5  C   UNL     1      -4.007  11.215  17.176  0.00  0.00    +0.000 A 
ATOM      6  C   UNL     1      -5.363  11.585  17.211  0.00  0.00    +0.000 A 
ATOM      7  C   UNL     1      -5.890  12.239  18.333  0.00  0.00    +0.000 A 
ATOM      8  C   UNL     1      -7.349  12.598  18.388  0.00  0.00    +0.000 C 
ATOM      9  N   UNL     1      -5.133  12.580  19.409  0.00  0.00    +0.000 NA
ATOM     10  C   UNL     1      -3.835  12.229  19.367  0.00  0.00    +0.000 A 
ATOM     11  N   UNL     1      -2.860  12.536  20.319  0.00  0.00    +0.000 N 
ATOM     12  C   UNL     1      -3.093  13.108  21.616  0.00  0.00    +0.000 C 
ENDROOT
BRANCH   5  13
ATOM     13  C   UNL     1      -3.454  10.567  15.943  0.00  0.00    +0.000 C 
ATOM     14  F   UNL     1      -4.301  10.373  14.910  0.00  0.00    +0.000 F 
ATOM     15  F   UNL     1      -2.409  11.278  15.432  0.00  0.00    +0.000 F 
ATOM     16  F   UNL     1      -2.942   9.333  16.225  0.00  0.00    +0.000 F 
ENDBRANCH   5  13
BRANCH   1  17
ATOM     17  C   UNL     1      -0.400  12.042  20.529  0.00  0.00    +0.000 C 
BRANCH  17  21
ATOM     18  C   UNL     1       0.901   8.891  21.582  0.00  0.00    +0.000 A 
ATOM     19  C   UNL     1       0.539   9.427  22.795  0.00  0.00    +0.000 A 
ATOM     20  N   UNL     1      -0.010  10.668  22.618  0.00  0.00    +0.000 NA
ATOM     21  C   UNL     1       0.056  10.862  21.313  0.00  0.00    +0.000 A 
ATOM     22  O   UNL     1       0.590   9.807  20.615  0.00  0.00    +0.000 OA
BRANCH  18  24
ATOM     23  C   UNL     1       2.021   7.688  19.723  0.00  0.00    +0.000 C 
ATOM     24  C   UNL     1       1.519   7.616  21.156  0.00  0.00    +0.000 C 
ENDBRANCH  18  24
ENDBRANCH  17  21
ENDBRANCH   1  17
TORSDOF 4
ENDMDL
