MODEL 1
REMARK VINA RESULT:      -7.7      0.000      0.000
REMARK  Name = 
REMARK  6 active torsions:
REMARK  status: ('A' for Active; 'I' for Inactive)
REMARK    1  A    between atoms: N_3  and  C_4
REMARK    2  A    between atoms: C_7  and  O_8
REMARK    3  A    between atoms: O_8  and  C_9
REMARK    4  A    between atoms: N_15  and  C_16
REMARK    5  A    between atoms: C_19  and  O_20
REMARK    6  A    between atoms: O_20  and  C_21
REMARK                            x       y       z     vdW  Elec       q    Type
REMARK                         _______ _______ _______ _____ _____    ______ ____
ROOT
ATOM      1  O   UNL     1       2.269   8.081  19.094  0.00  0.00    +0.000 OA
ATOM      2  C   UNL     1       2.170   7.328  20.054  0.00  0.00    +0.000 C 
ATOM      3  N   UNL     1       2.680   6.042  20.099  0.00  0.00    +0.000 N 
ATOM      4  N   UNL     1       1.509   7.661  21.227  0.00  0.00    +0.000 N 
ATOM      5  H   UNL     1       2.321   5.442  20.826  0.00  0.00    +0.000 HD
ATOM      6  H   UNL     1       1.796   7.175  22.062  0.00  0.00    +0.000 HD
ENDROOT
BRANCH   3   7
ATOM      7  C   UNL     1       3.391   5.416  19.050  0.00  0.00    +0.000 A 
ATOM      8  C   UNL     1       2.774   4.652  18.054  0.00  0.00    +0.000 A 
ATOM      9  C   UNL     1       3.532   4.016  17.070  0.00  0.00    +0.000 A 
ATOM     10  C   UNL     1       4.919   4.155  17.040  0.00  0.00    +0.000 A 
ATOM     11  C   UNL     1       5.543   4.906  18.031  0.00  0.00    +0.000 A 
ATOM     12  C   UNL     1       4.782   5.556  19.015  0.00  0.00    +0.000 A 
BRANCH  10  13
ATOM     13  O   UNL     1       5.538   3.444  16.063  0.00  0.00    +0.000 OA
BRANCH  13  14
ATOM     14  C   UNL     1       6.193   4.137  15.013  0.00  0.00    +0.000 C 
ATOM     15  F   UNL     1       7.464   4.496  15.286  0.00  0.00    +0.000 F 
ATOM     16  F   UNL     1       6.195   3.358  13.909  0.00  0.00    +0.000 F 
ATOM     17  F   UNL     1       5.494   5.260  14.733  0.00  0.00    +0.000 F 
ENDBRANCH  13  14
ENDBRANCH  10  13
ENDBRANCH   3   7
BRANCH   4  18
ATOM     18  C   UNL     1       0.724   8.825  21.397  0.00  0.00    +0.000 A 
ATOM     19  C   UNL     1       0.283   9.605  20.323  0.00  0.00    +0.000 A 
ATOM     20  C   UNL     1      -0.510  10.732  20.538  0.00  0.00    +0.000 A 
ATOM     21  C   UNL     1      -0.893  11.091  21.828  0.00  0.00    +0.000 A 
ATOM     22  C   UNL     1      -0.422  10.345  22.906  0.00  0.00    +0.000 A 
ATOM     23  C   UNL     1       0.357   9.199  22.691  0.00  0.00    +0.000 A 
BRANCH  21  24
ATOM     24  O   UNL     1      -1.649  12.219  21.914  0.00  0.00    +0.000 OA
BRANCH  24  25
ATOM     25  C   UNL     1      -1.073  13.385  22.486  0.00  0.00    +0.000 C 
ATOM     26  F   UNL     1      -1.157  13.452  23.832  0.00  0.00    +0.000 F 
ATOM     27  F   UNL     1       0.231  13.442  22.136  0.00  0.00    +0.000 F 
ATOM     28  F   UNL     1      -1.692  14.473  21.977  0.00  0.00    +0.000 F 
ENDBRANCH  24  25
ENDBRANCH  21  24
ENDBRANCH   4  18
TORSDOF 6
ENDMDL
MODEL 2
REMARK VINA RESULT:      -7.7      0.061      1.049
REMARK  Name = 
REMARK  6 active torsions:
REMARK  status: ('A' for Active; 'I' for Inactive)
REMARK    1  A    between atoms: N_3  and  C_4
REMARK    2  A    between atoms: C_7  and  O_8
REMARK    3  A    between atoms: O_8  and  C_9
REMARK    4  A    between atoms: N_15  and  C_16
REMARK    5  A    between atoms: C_19  and  O_20
REMARK    6  A    between atoms: O_20  and  C_21
REMARK                            x       y       z     vdW  Elec       q    Type
REMARK                         _______ _______ _______ _____ _____    ______ ____
ROOT
ATOM      1  O   UNL     1       2.247   8.109  19.086  0.00  0.00    +0.000 OA
ATOM      2  C   UNL     1       2.149   7.354  20.044  0.00  0.00    +0.000 C 
ATOM      3  N   UNL     1       2.665   6.070  20.088  0.00  0.00    +0.000 N 
ATOM      4  N   UNL     1       1.484   7.682  21.216  0.00  0.00    +0.000 N 
ATOM      5  H   UNL     1       2.307   5.467  20.812  0.00  0.00    +0.000 HD
ATOM      6  H   UNL     1       1.771   7.195  22.051  0.00  0.00    +0.000 HD
ENDROOT
BRANCH   3   7
ATOM      7  C   UNL     1       3.381   5.449  19.039  0.00  0.00    +0.000 A 
ATOM      8  C   UNL     1       2.766   4.726  18.013  0.00  0.00    +0.000 A 
ATOM      9  C   UNL     1       3.527   4.092  17.029  0.00  0.00    +0.000 A 
ATOM     10  C   UNL     1       4.917   4.193  17.032  0.00  0.00    +0.000 A 
ATOM     11  C   UNL     1       5.540   4.904  18.053  0.00  0.00    +0.000 A 
ATOM     12  C   UNL     1       4.776   5.552  19.036  0.00  0.00    +0.000 A 
BRANCH  10  13
ATOM     13  O   UNL     1       5.538   3.489  16.051  0.00  0.00    +0.000 OA
BRANCH  13  14
ATOM     14  C   UNL     1       6.134   4.187  14.970  0.00  0.00    +0.000 C 
ATOM     15  F   UNL     1       5.517   5.340  14.638  0.00  0.00    +0.000 F 
ATOM     16  F   UNL     1       7.419   4.463  15.283  0.00  0.00    +0.000 F 
ATOM     17  F   UNL     1       6.131   3.385  13.881  0.00  0.00    +0.000 F 
ENDBRANCH  13  14
ENDBRANCH  10  13
ENDBRANCH   3   7
BRANCH   4  18
ATOM     18  C   UNL     1       0.694   8.842  21.386  0.00  0.00    +0.000 A 
ATOM     19  C   UNL     1       0.260   9.627  20.314  0.00  0.00    +0.000 A 
ATOM     20  C   UNL     1      -0.538  10.751  20.528  0.00  0.00    +0.000 A 
ATOM     21  C   UNL     1      -0.936  11.099  21.817  0.00  0.00    +0.000 A 
ATOM     22  C   UNL     1      -0.473  10.347  22.895  0.00  0.00    +0.000 A 
ATOM     23  C   UNL     1       0.313   9.205  22.680  0.00  0.00    +0.000 A 
BRANCH  21  24
ATOM     24  O   UNL     1      -1.696  12.223  21.904  0.00  0.00    +0.000 OA
BRANCH  24  25
ATOM     25  C   UNL     1      -1.109  13.406  22.430  0.00  0.00    +0.000 C 
ATOM     26  F   UNL     1      -1.659  14.554  21.981  0.00  0.00    +0.000 F 
ATOM     27  F   UNL     1      -1.212  13.381  23.777  0.00  0.00    +0.000 F 
ATOM     28  F   UNL     1       0.204  13.423  22.108  0.00  0.00    +0.000 F 
ENDBRANCH  24  25
ENDBRANCH  21  24
ENDBRANCH   4  18
TORSDOF 6
ENDMDL
MODEL 3
REMARK VINA RESULT:      -7.6      0.908     10.258
REMARK  Name = 
REMARK  6 active torsions:
REMARK  status: ('A' for Active; 'I' for Inactive)
REMARK    1  A    between atoms: N_3  and  C_4
REMARK    2  A    between atoms: C_7  and  O_8
REMARK    3  A    between atoms: O_8  and  C_9
REMARK    4  A    between atoms: N_15  and  C_16
REMARK    5  A    between atoms: C_19  and  O_20
REMARK    6  A    between atoms: O_20  and  C_21
REMARK                            x       y       z     vdW  Elec       q    Type
REMARK                         _______ _______ _______ _____ _____    ______ ____
ROOT
ATOM      1  O   UNL     1       2.048   7.845  18.918  0.00  0.00    +0.000 OA
ATOM      2  C   UNL     1       2.144   7.222  19.968  0.00  0.00    +0.000 C 
ATOM      3  N   UNL     1       1.649   7.654  21.186  0.00  0.00    +0.000 N 
ATOM      4  N   UNL     1       2.785   5.997  20.078  0.00  0.00    +0.000 N 
ATOM      5  H   UNL     1       2.006   7.188  22.006  0.00  0.00    +0.000 HD
ATOM      6  H   UNL     1       2.494   5.399  20.835  0.00  0.00    +0.000 HD
ENDROOT
BRANCH   3   7
ATOM      7  C   UNL     1       0.959   8.870  21.394  0.00  0.00    +0.000 A 
ATOM      8  C   UNL     1       0.998   9.938  20.491  0.00  0.00    +0.000 A 
ATOM      9  C   UNL     1       0.337  11.134  20.772  0.00  0.00    +0.000 A 
ATOM     10  C   UNL     1      -0.403  11.280  21.944  0.00  0.00    +0.000 A 
ATOM     11  C   UNL     1      -0.440  10.227  22.853  0.00  0.00    +0.000 A 
ATOM     12  C   UNL     1       0.214   9.018  22.567  0.00  0.00    +0.000 A 
BRANCH  10  13
ATOM     13  O   UNL     1      -0.953  12.509  22.118  0.00  0.00    +0.000 OA
BRANCH  13  14
ATOM     14  C   UNL     1      -2.361  12.654  22.034  0.00  0.00    +0.000 C 
ATOM     15  F   UNL     1      -3.050  12.002  22.993  0.00  0.00    +0.000 F 
ATOM     16  F   UNL     1      -2.670  13.968  22.104  0.00  0.00    +0.000 F 
ATOM     17  F   UNL     1      -2.775  12.189  20.834  0.00  0.00    +0.000 F 
ENDBRANCH  13  14
ENDBRANCH  10  13
ENDBRANCH   3   7
BRANCH   4  18
ATOM     18  C   UNL     1       3.554   5.404  19.049  0.00  0.00    +0.000 A 
ATOM     19  C   UNL     1       4.937   5.575  18.943  0.00  0.00    +0.000 A 
ATOM     20  C   UNL     1       5.658   4.951  17.924  0.00  0.00    +0.000 A 
ATOM     21  C   UNL     1       5.012   4.128  17.005  0.00  0.00    +0.000 A 
ATOM     22  C   UNL     1       3.628   3.987  17.077  0.00  0.00    +0.000 A 
ATOM     23  C   UNL     1       2.905   4.597  18.113  0.00  0.00    +0.000 A 
BRANCH  21  24
ATOM     24  O   UNL     1       5.814   3.591  16.046  0.00  0.00    +0.000 OA
BRANCH  24  25
ATOM     25  C   UNL     1       6.111   4.364  14.891  0.00  0.00    +0.000 C 
ATOM     26  F   UNL     1       6.056   3.681  13.728  0.00  0.00    +0.000 F 
ATOM     27  F   UNL     1       5.240   5.395  14.822  0.00  0.00    +0.000 F 
ATOM     28  F   UNL     1       7.357   4.873  15.015  0.00  0.00    +0.000 F 
ENDBRANCH  24  25
ENDBRANCH  21  24
ENDBRANCH   4  18
TORSDOF 6
ENDMDL
MODEL 4
REMARK VINA RESULT:      -7.6      0.935     10.219
REMARK  Name = 
REMARK  6 active torsions:
REMARK  status: ('A' for Active; 'I' for Inactive)
REMARK    1  A    between atoms: N_3  and  C_4
REMARK    2  A    between atoms: C_7  and  O_8
REMARK    3  A    between atoms: O_8  and  C_9
REMARK    4  A    between atoms: N_15  and  C_16
REMARK    5  A    between atoms: C_19  and  O_20
REMARK    6  A    between atoms: O_20  and  C_21
REMARK                            x       y       z     vdW  Elec       q    Type
REMARK                         _______ _______ _______ _____ _____    ______ ____
ROOT
ATOM      1  O   UNL     1       2.019   7.778  18.918  0.00  0.00    +0.000 OA
ATOM      2  C   UNL     1       2.130   7.175  19.977  0.00  0.00    +0.000 C 
ATOM      3  N   UNL     1       1.652   7.631  21.194  0.00  0.00    +0.000 N 
ATOM      4  N   UNL     1       2.771   5.952  20.101  0.00  0.00    +0.000 N 
ATOM      5  H   UNL     1       2.020   7.181  22.018  0.00  0.00    +0.000 HD
ATOM      6  H   UNL     1       2.490   5.370  20.875  0.00  0.00    +0.000 HD
ENDROOT
BRANCH   3   7
ATOM      7  C   UNL     1       0.966   8.852  21.388  0.00  0.00    +0.000 A 
ATOM      8  C   UNL     1       1.013   9.911  20.476  0.00  0.00    +0.000 A 
ATOM      9  C   UNL     1       0.355  11.113  20.744  0.00  0.00    +0.000 A 
ATOM     10  C   UNL     1      -0.388  11.272  21.912  0.00  0.00    +0.000 A 
ATOM     11  C   UNL     1      -0.433  10.227  22.829  0.00  0.00    +0.000 A 
ATOM     12  C   UNL     1       0.217   9.013  22.557  0.00  0.00    +0.000 A 
BRANCH  10  13
ATOM     13  O   UNL     1      -0.934  12.504  22.072  0.00  0.00    +0.000 OA
BRANCH  13  14
ATOM     14  C   UNL     1      -2.336  12.663  21.934  0.00  0.00    +0.000 C 
ATOM     15  F   UNL     1      -2.775  13.930  22.080  0.00  0.00    +0.000 F 
ATOM     16  F   UNL     1      -2.708  12.219  20.712  0.00  0.00    +0.000 F 
ATOM     17  F   UNL     1      -2.953  11.899  22.863  0.00  0.00    +0.000 F 
ENDBRANCH  13  14
ENDBRANCH  10  13
ENDBRANCH   3   7
BRANCH   4  18
ATOM     18  C   UNL     1       3.525   5.339  19.074  0.00  0.00    +0.000 A 
ATOM     19  C   UNL     1       2.951   4.509  18.106  0.00  0.00    +0.000 A 
ATOM     20  C   UNL     1       3.731   3.945  17.096  0.00  0.00    +0.000 A 
ATOM     21  C   UNL     1       5.095   4.215  17.023  0.00  0.00    +0.000 A 
ATOM     22  C   UNL     1       5.683   5.005  18.009  0.00  0.00    +0.000 A 
ATOM     23  C   UNL     1       4.897   5.591  19.012  0.00  0.00    +0.000 A 
BRANCH  21  24
ATOM     24  O   UNL     1       5.755   3.594  16.009  0.00  0.00    +0.000 OA
BRANCH  24  25
ATOM     25  C   UNL     1       6.130   4.355  14.870  0.00  0.00    +0.000 C 
ATOM     26  F   UNL     1       6.140   3.665  13.710  0.00  0.00    +0.000 F 
ATOM     27  F   UNL     1       5.275   5.394  14.741  0.00  0.00    +0.000 F 
ATOM     28  F   UNL     1       7.371   4.854  15.066  0.00  0.00    +0.000 F 
ENDBRANCH  24  25
ENDBRANCH  21  24
ENDBRANCH   4  18
TORSDOF 6
ENDMDL
MODEL 5
REMARK VINA RESULT:      -7.6      0.208      1.424
REMARK  Name = 
REMARK  6 active torsions:
REMARK  status: ('A' for Active; 'I' for Inactive)
REMARK    1  A    between atoms: N_3  and  C_4
REMARK    2  A    between atoms: C_7  and  O_8
REMARK    3  A    between atoms: O_8  and  C_9
REMARK    4  A    between atoms: N_15  and  C_16
REMARK    5  A    between atoms: C_19  and  O_20
REMARK    6  A    between atoms: O_20  and  C_21
REMARK                            x       y       z     vdW  Elec       q    Type
REMARK                         _______ _______ _______ _____ _____    ______ ____
ROOT
ATOM      1  O   UNL     1       2.345   8.006  19.104  0.00  0.00    +0.000 OA
ATOM      2  C   UNL     1       2.222   7.275  20.079  0.00  0.00    +0.000 C 
ATOM      3  N   UNL     1       2.723   5.988  20.164  0.00  0.00    +0.000 N 
ATOM      4  N   UNL     1       1.540   7.639  21.230  0.00  0.00    +0.000 N 
ATOM      5  H   UNL     1       2.346   5.406  20.897  0.00  0.00    +0.000 HD
ATOM      6  H   UNL     1       1.806   7.171  22.082  0.00  0.00    +0.000 HD
ENDROOT
BRANCH   3   7
ATOM      7  C   UNL     1       3.451   5.334  19.144  0.00  0.00    +0.000 A 
ATOM      8  C   UNL     1       4.847   5.365  19.056  0.00  0.00    +0.000 A 
ATOM      9  C   UNL     1       5.510   4.742  17.999  0.00  0.00    +0.000 A 
ATOM     10  C   UNL     1       4.797   4.047  17.023  0.00  0.00    +0.000 A 
ATOM     11  C   UNL     1       3.408   4.017  17.096  0.00  0.00    +0.000 A 
ATOM     12  C   UNL     1       2.739   4.633  18.166  0.00  0.00    +0.000 A 
BRANCH  10  13
ATOM     13  O   UNL     1       5.559   3.532  16.025  0.00  0.00    +0.000 OA
BRANCH  13  14
ATOM     14  C   UNL     1       5.972   4.377  14.963  0.00  0.00    +0.000 C 
ATOM     15  F   UNL     1       5.905   3.813  13.739  0.00  0.00    +0.000 F 
ATOM     16  F   UNL     1       5.205   5.489  14.966  0.00  0.00    +0.000 F 
ATOM     17  F   UNL     1       7.254   4.750  15.180  0.00  0.00    +0.000 F 
ENDBRANCH  13  14
ENDBRANCH  10  13
ENDBRANCH   3   7
BRANCH   4  18
ATOM     18  C   UNL     1       0.759   8.811  21.357  0.00  0.00    +0.000 A 
ATOM     19  C   UNL     1       0.371   9.586  20.260  0.00  0.00    +0.000 A 
ATOM     20  C   UNL     1      -0.420  10.722  20.432  0.00  0.00    +0.000 A 
ATOM     21  C   UNL     1      -0.855  11.094  21.701  0.00  0.00    +0.000 A 
ATOM     22  C   UNL     1      -0.438  10.352  22.805  0.00  0.00    +0.000 A 
ATOM     23  C   UNL     1       0.340   9.198  22.632  0.00  0.00    +0.000 A 
BRANCH  21  24
ATOM     24  O   UNL     1      -1.603  12.229  21.747  0.00  0.00    +0.000 OA
BRANCH  24  25
ATOM     25  C   UNL     1      -1.045  13.392  22.342  0.00  0.00    +0.000 C 
ATOM     26  F   UNL     1       0.286  13.530  22.165  0.00  0.00    +0.000 F 
ATOM     27  F   UNL     1      -1.659  14.481  21.828  0.00  0.00    +0.000 F 
ATOM     28  F   UNL     1      -1.285  13.362  23.672  0.00  0.00    +0.000 F 
ENDBRANCH  24  25
ENDBRANCH  21  24
ENDBRANCH   4  18
TORSDOF 6
ENDMDL
MODEL 6
REMARK VINA RESULT:      -7.6      0.677      1.219
REMARK  Name = 
REMARK  6 active torsions:
REMARK  status: ('A' for Active; 'I' for Inactive)
REMARK    1  A    between atoms: N_3  and  C_4
REMARK    2  A    between atoms: C_7  and  O_8
REMARK    3  A    between atoms: O_8  and  C_9
REMARK    4  A    between atoms: N_15  and  C_16
REMARK    5  A    between atoms: C_19  and  O_20
REMARK    6  A    between atoms: O_20  and  C_21
REMARK                            x       y       z     vdW  Elec       q    Type
REMARK                         _______ _______ _______ _____ _____    ______ ____
ROOT
ATOM      1  O   UNL     1       2.270   7.955  19.051  0.00  0.00    +0.000 OA
ATOM      2  C   UNL     1       2.240   7.275  20.069  0.00  0.00    +0.000 C 
ATOM      3  N   UNL     1       2.818   6.024  20.196  0.00  0.00    +0.000 N 
ATOM      4  N   UNL     1       1.599   7.667  21.235  0.00  0.00    +0.000 N 
ATOM      5  H   UNL     1       2.514   5.466  20.979  0.00  0.00    +0.000 HD
ATOM      6  H   UNL     1       1.937   7.263  22.095  0.00  0.00    +0.000 HD
ENDROOT
BRANCH   3   7
ATOM      7  C   UNL     1       3.529   5.354  19.174  0.00  0.00    +0.000 A 
ATOM      8  C   UNL     1       4.923   5.377  19.066  0.00  0.00    +0.000 A 
ATOM      9  C   UNL     1       5.568   4.737  18.007  0.00  0.00    +0.000 A 
ATOM     10  C   UNL     1       4.838   4.034  17.050  0.00  0.00    +0.000 A 
ATOM     11  C   UNL     1       3.450   4.012  17.143  0.00  0.00    +0.000 A 
ATOM     12  C   UNL     1       2.799   4.645  18.214  0.00  0.00    +0.000 A 
BRANCH  10  13
ATOM     13  O   UNL     1       5.583   3.502  16.048  0.00  0.00    +0.000 OA
BRANCH  13  14
ATOM     14  C   UNL     1       6.023   4.342  14.993  0.00  0.00    +0.000 C 
ATOM     15  F   UNL     1       7.321   4.698  15.064  0.00  0.00    +0.000 F 
ATOM     16  F   UNL     1       5.815   3.710  13.816  0.00  0.00    +0.000 F 
ATOM     17  F   UNL     1       5.279   5.471  14.999  0.00  0.00    +0.000 F 
ENDBRANCH  13  14
ENDBRANCH  10  13
ENDBRANCH   3   7
BRANCH   4  18
ATOM     18  C   UNL     1       0.760   8.800  21.342  0.00  0.00    +0.000 A 
ATOM     19  C   UNL     1       0.343   9.541  20.232  0.00  0.00    +0.000 A 
ATOM     20  C   UNL     1      -0.505  10.638  20.384  0.00  0.00    +0.000 A 
ATOM     21  C   UNL     1      -0.969  11.003  21.645  0.00  0.00    +0.000 A 
ATOM     22  C   UNL     1      -0.525  10.296  22.761  0.00  0.00    +0.000 A 
ATOM     23  C   UNL     1       0.311   9.180  22.608  0.00  0.00    +0.000 A 
BRANCH  21  24
ATOM     24  O   UNL     1      -1.773  12.100  21.671  0.00  0.00    +0.000 OA
BRANCH  24  25
ATOM     25  C   UNL     1      -2.175  12.623  22.930  0.00  0.00    +0.000 C 
ATOM     26  F   UNL     1      -2.824  11.744  23.722  0.00  0.00    +0.000 F 
ATOM     27  F   UNL     1      -1.080  13.063  23.587  0.00  0.00    +0.000 F 
ATOM     28  F   UNL     1      -2.995  13.678  22.723  0.00  0.00    +0.000 F 
ENDBRANCH  24  25
ENDBRANCH  21  24
ENDBRANCH   4  18
TORSDOF 6
ENDMDL
MODEL 7
REMARK VINA RESULT:      -7.6      0.341     10.187
REMARK  Name = 
REMARK  6 active torsions:
REMARK  status: ('A' for Active; 'I' for Inactive)
REMARK    1  A    between atoms: N_3  and  C_4
REMARK    2  A    between atoms: C_7  and  O_8
REMARK    3  A    between atoms: O_8  and  C_9
REMARK    4  A    between atoms: N_15  and  C_16
REMARK    5  A    between atoms: C_19  and  O_20
REMARK    6  A    between atoms: O_20  and  C_21
REMARK                            x       y       z     vdW  Elec       q    Type
REMARK                         _______ _______ _______ _____ _____    ______ ____
ROOT
ATOM      1  O   UNL     1       2.065   7.719  18.876  0.00  0.00    +0.000 OA
ATOM      2  C   UNL     1       2.213   7.117  19.932  0.00  0.00    +0.000 C 
ATOM      3  N   UNL     1       1.711   7.536  21.152  0.00  0.00    +0.000 N 
ATOM      4  N   UNL     1       2.926   5.933  20.048  0.00  0.00    +0.000 N 
ATOM      5  H   UNL     1       2.106   7.104  21.973  0.00  0.00    +0.000 HD
ATOM      6  H   UNL     1       2.680   5.330  20.818  0.00  0.00    +0.000 HD
ENDROOT
BRANCH   3   7
ATOM      7  C   UNL     1       0.955   8.714  21.354  0.00  0.00    +0.000 A 
ATOM      8  C   UNL     1       0.476   9.112  22.606  0.00  0.00    +0.000 A 
ATOM      9  C   UNL     1      -0.307  10.260  22.739  0.00  0.00    +0.000 A 
ATOM     10  C   UNL     1      -0.604  11.050  21.631  0.00  0.00    +0.000 A 
ATOM     11  C   UNL     1      -0.140  10.657  20.379  0.00  0.00    +0.000 A 
ATOM     12  C   UNL     1       0.658   9.511  20.244  0.00  0.00    +0.000 A 
BRANCH  10  13
ATOM     13  O   UNL     1      -1.416  12.107  21.890  0.00  0.00    +0.000 OA
BRANCH  13  14
ATOM     14  C   UNL     1      -0.842  13.332  22.316  0.00  0.00    +0.000 C 
ATOM     15  F   UNL     1       0.472  13.462  22.040  0.00  0.00    +0.000 F 
ATOM     16  F   UNL     1      -1.506  14.353  21.732  0.00  0.00    +0.000 F 
ATOM     17  F   UNL     1      -0.998  13.441  23.655  0.00  0.00    +0.000 F 
ENDBRANCH  13  14
ENDBRANCH  10  13
ENDBRANCH   3   7
BRANCH   4  18
ATOM     18  C   UNL     1       3.712   5.371  19.016  0.00  0.00    +0.000 A 
ATOM     19  C   UNL     1       5.082   5.617  18.888  0.00  0.00    +0.000 A 
ATOM     20  C   UNL     1       5.822   5.022  17.866  0.00  0.00    +0.000 A 
ATOM     21  C   UNL     1       5.211   4.154  16.965  0.00  0.00    +0.000 A 
ATOM     22  C   UNL     1       3.838   3.938  17.058  0.00  0.00    +0.000 A 
ATOM     23  C   UNL     1       3.096   4.519  18.097  0.00  0.00    +0.000 A 
BRANCH  21  24
ATOM     24  O   UNL     1       6.028   3.650  16.001  0.00  0.00    +0.000 OA
BRANCH  24  25
ATOM     25  C   UNL     1       6.183   4.375  14.789  0.00  0.00    +0.000 C 
ATOM     26  F   UNL     1       5.324   5.405  14.636  0.00  0.00    +0.000 F 
ATOM     27  F   UNL     1       7.444   4.857  14.729  0.00  0.00    +0.000 F 
ATOM     28  F   UNL     1       6.006   3.530  13.749  0.00  0.00    +0.000 F 
ENDBRANCH  24  25
ENDBRANCH  21  24
ENDBRANCH   4  18
TORSDOF 6
ENDMDL
MODEL 8
REMARK VINA RESULT:      -7.6      0.256      1.515
REMARK  Name = 
REMARK  6 active torsions:
REMARK  status: ('A' for Active; 'I' for Inactive)
REMARK    1  A    between atoms: N_3  and  C_4
REMARK    2  A    between atoms: C_7  and  O_8
REMARK    3  A    between atoms: O_8  and  C_9
REMARK    4  A    between atoms: N_15  and  C_16
REMARK    5  A    between atoms: C_19  and  O_20
REMARK    6  A    between atoms: O_20  and  C_21
REMARK                            x       y       z     vdW  Elec       q    Type
REMARK                         _______ _______ _______ _____ _____    ______ ____
ROOT
ATOM      1  O   UNL     1       2.267   7.996  19.170  0.00  0.00    +0.000 OA
ATOM      2  C   UNL     1       2.176   7.260  20.144  0.00  0.00    +0.000 C 
ATOM      3  N   UNL     1       2.705   5.983  20.216  0.00  0.00    +0.000 N 
ATOM      4  N   UNL     1       1.507   7.607  21.309  0.00  0.00    +0.000 N 
ATOM      5  H   UNL     1       2.352   5.392  20.953  0.00  0.00    +0.000 HD
ATOM      6  H   UNL     1       1.798   7.141  22.154  0.00  0.00    +0.000 HD
ENDROOT
BRANCH   3   7
ATOM      7  C   UNL     1       3.428   5.348  19.181  0.00  0.00    +0.000 A 
ATOM      8  C   UNL     1       4.822   5.397  19.077  0.00  0.00    +0.000 A 
ATOM      9  C   UNL     1       5.480   4.791  18.005  0.00  0.00    +0.000 A 
ATOM     10  C   UNL     1       4.763   4.097  17.032  0.00  0.00    +0.000 A 
ATOM     11  C   UNL     1       3.375   4.050  17.121  0.00  0.00    +0.000 A 
ATOM     12  C   UNL     1       2.712   4.648  18.205  0.00  0.00    +0.000 A 
BRANCH  10  13
ATOM     13  O   UNL     1       5.519   3.600  16.019  0.00  0.00    +0.000 OA
BRANCH  13  14
ATOM     14  C   UNL     1       5.877   4.450  14.942  0.00  0.00    +0.000 C 
ATOM     15  F   UNL     1       5.261   5.651  14.946  0.00  0.00    +0.000 F 
ATOM     16  F   UNL     1       7.212   4.653  14.969  0.00  0.00    +0.000 F 
ATOM     17  F   UNL     1       5.570   3.830  13.780  0.00  0.00    +0.000 F 
ENDBRANCH  13  14
ENDBRANCH  10  13
ENDBRANCH   3   7
BRANCH   4  18
ATOM     18  C   UNL     1       0.704   8.762  21.454  0.00  0.00    +0.000 A 
ATOM     19  C   UNL     1       0.255   9.222  22.695  0.00  0.00    +0.000 A 
ATOM     20  C   UNL     1      -0.515  10.380  22.791  0.00  0.00    +0.000 A 
ATOM     21  C   UNL     1      -0.835  11.113  21.651  0.00  0.00    +0.000 A 
ATOM     22  C   UNL     1      -0.428  10.638  20.405  0.00  0.00    +0.000 A 
ATOM     23  C   UNL     1       0.364   9.485  20.308  0.00  0.00    +0.000 A 
BRANCH  21  24
ATOM     24  O   UNL     1      -1.606  12.212  21.866  0.00  0.00    +0.000 OA
BRANCH  24  25
ATOM     25  C   UNL     1      -0.999  13.379  22.403  0.00  0.00    +0.000 C 
ATOM     26  F   UNL     1      -1.065  13.479  23.747  0.00  0.00    +0.000 F 
ATOM     27  F   UNL     1       0.301  13.400  22.037  0.00  0.00    +0.000 F 
ATOM     28  F   UNL     1      -1.603  14.468  21.876  0.00  0.00    +0.000 F 
ENDBRANCH  24  25
ENDBRANCH  21  24
ENDBRANCH   4  18
TORSDOF 6
ENDMDL
MODEL 9
REMARK VINA RESULT:      -7.6      0.510     10.178
REMARK  Name = 
REMARK  6 active torsions:
REMARK  status: ('A' for Active; 'I' for Inactive)
REMARK    1  A    between atoms: N_3  and  C_4
REMARK    2  A    between atoms: C_7  and  O_8
REMARK    3  A    between atoms: O_8  and  C_9
REMARK    4  A    between atoms: N_15  and  C_16
REMARK    5  A    between atoms: C_19  and  O_20
REMARK    6  A    between atoms: O_20  and  C_21
REMARK                            x       y       z     vdW  Elec       q    Type
REMARK                         _______ _______ _______ _____ _____    ______ ____
ROOT
ATOM      1  O   UNL     1       2.028   7.557  18.660  0.00  0.00    +0.000 OA
ATOM      2  C   UNL     1       2.285   7.073  19.754  0.00  0.00    +0.000 C 
ATOM      3  N   UNL     1       1.838   7.580  20.962  0.00  0.00    +0.000 N 
ATOM      4  N   UNL     1       3.083   5.952  19.930  0.00  0.00    +0.000 N 
ATOM      5  H   UNL     1       2.316   7.257  21.790  0.00  0.00    +0.000 HD
ATOM      6  H   UNL     1       2.931   5.416  20.769  0.00  0.00    +0.000 HD
ENDROOT
BRANCH   3   7
ATOM      7  C   UNL     1       1.019   8.724  21.106  0.00  0.00    +0.000 A 
ATOM      8  C   UNL     1       0.652   9.544  20.036  0.00  0.00    +0.000 A 
ATOM      9  C   UNL     1      -0.119  10.689  20.245  0.00  0.00    +0.000 A 
ATOM     10  C   UNL     1      -0.566  11.021  21.522  0.00  0.00    +0.000 A 
ATOM     11  C   UNL     1      -0.198  10.216  22.596  0.00  0.00    +0.000 A 
ATOM     12  C   UNL     1       0.567   9.058  22.386  0.00  0.00    +0.000 A 
BRANCH  10  13
ATOM     13  O   UNL     1      -1.262  12.184  21.594  0.00  0.00    +0.000 OA
BRANCH  13  14
ATOM     14  C   UNL     1      -0.632  13.336  22.130  0.00  0.00    +0.000 C 
ATOM     15  F   UNL     1       0.699  13.395  21.923  0.00  0.00    +0.000 F 
ATOM     16  F   UNL     1      -1.200  14.437  21.590  0.00  0.00    +0.000 F 
ATOM     17  F   UNL     1      -0.847  13.366  23.465  0.00  0.00    +0.000 F 
ENDBRANCH  13  14
ENDBRANCH  10  13
ENDBRANCH   3   7
BRANCH   4  18
ATOM     18  C   UNL     1       3.836   5.341  18.901  0.00  0.00    +0.000 A 
ATOM     19  C   UNL     1       3.293   4.398  18.023  0.00  0.00    +0.000 A 
ATOM     20  C   UNL     1       4.068   3.838  17.008  0.00  0.00    +0.000 A 
ATOM     21  C   UNL     1       5.395   4.225  16.838  0.00  0.00    +0.000 A 
ATOM     22  C   UNL     1       5.957   5.131  17.735  0.00  0.00    +0.000 A 
ATOM     23  C   UNL     1       5.173   5.711  18.743  0.00  0.00    +0.000 A 
BRANCH  21  24
ATOM     24  O   UNL     1       6.056   3.597  15.828  0.00  0.00    +0.000 OA
BRANCH  24  25
ATOM     25  C   UNL     1       6.299   4.309  14.623  0.00  0.00    +0.000 C 
ATOM     26  F   UNL     1       6.285   3.549  13.508  0.00  0.00    +0.000 F 
ATOM     27  F   UNL     1       5.362   5.274  14.493  0.00  0.00    +0.000 F 
ATOM     28  F   UNL     1       7.509   4.906  14.703  0.00  0.00    +0.000 F 
ENDBRANCH  24  25
ENDBRANCH  21  24
ENDBRANCH   4  18
TORSDOF 6
ENDMDL
