MODEL 1
REMARK VINA RESULT:      -7.1      0.000      0.000
REMARK  Name = 
REMARK  5 active torsions:
REMARK  status: ('A' for Active; 'I' for Inactive)
REMARK    1  A    between atoms: C_1  and  C_2
REMARK    2  A    between atoms: C_5  and  C_6
REMARK    3  A    between atoms: C_8  and  C_10
REMARK    4  A    between atoms: C_19  and  C_21
REMARK    5  A    between atoms: C_23  and  C_24
REMARK                            x       y       z     vdW  Elec       q    Type
REMARK                         _______ _______ _______ _____ _____    ______ ____
ROOT
ATOM      1  C   UNL     1       8.914  13.792  20.636  0.00  0.00    +0.000 C 
ATOM      2  C   UNL     1      10.418  13.746  20.373  0.00  0.00    +0.000 C 
ATOM      3  C   UNL     1      10.836  12.288  20.620  0.00  0.00    +0.000 C 
ATOM      4  C   UNL     1      12.100  11.850  19.919  0.00  0.00    +0.000 C 
ATOM      5  C   UNL     1      11.995  11.691  18.417  0.00  0.00    +0.000 C 
ATOM      6  C   UNL     1      10.605  11.416  17.857  0.00  0.00    +0.000 C 
ATOM      7  C   UNL     1       9.439  11.120  18.814  0.00  0.00    +0.000 C 
ATOM      8  C   UNL     1       9.583  11.489  20.310  0.00  0.00    +0.000 C 
ATOM      9  N   UNL     1       8.560  12.379  20.927  0.00  0.00    +0.000 N 
ATOM     10  C   UNL     1       8.192  12.086  22.288  0.00  0.00    +0.000 C 
ATOM     11  O   UNL     1       8.477  11.035  22.846  0.00  0.00    +0.000 OA
ENDROOT
BRANCH   1  19
ATOM     12  C   UNL     1       5.337  14.833  18.239  0.00  0.00    +0.000 C 
ATOM     13  C   UNL     1       6.029  15.904  19.069  0.00  0.00    +0.000 C 
ATOM     14  C   UNL     1       4.991  16.525  20.020  0.00  0.00    +0.000 C 
ATOM     15  C   UNL     1       5.824  17.068  21.154  0.00  0.00    +0.000 C 
ATOM     16  C   UNL     1       6.961  16.048  21.294  0.00  0.00    +0.000 C 
ATOM     17  C   UNL     1       8.190  16.787  21.835  0.00  0.00    +0.000 C 
ATOM     18  N   UNL     1       7.102  15.435  19.962  0.00  0.00    +0.000 N 
ATOM     19  C   UNL     1       8.063  14.510  19.532  0.00  0.00    +0.000 C 
ATOM     20  O   UNL     1       8.222  14.240  18.340  0.00  0.00    +0.000 OA
ENDBRANCH   1  19
BRANCH  10  21
ATOM     21  C   UNL     1       7.468  13.173  23.039  0.00  0.00    +0.000 C 
ATOM     22  C   UNL     1       8.214  13.835  24.194  0.00  0.00    +0.000 C 
ATOM     23  C   UNL     1       6.844  13.273  24.417  0.00  0.00    +0.000 C 
BRANCH  23  24
ATOM     24  C   UNL     1       6.649  12.347  25.592  0.00  0.00    +0.000 A 
ATOM     25  C   UNL     1       7.366  12.624  26.787  0.00  0.00    +0.000 A 
ATOM     26  C   UNL     1       7.103  11.980  27.989  0.00  0.00    +0.000 A 
ATOM     27  C   UNL     1       6.110  11.002  28.044  0.00  0.00    +0.000 A 
ATOM     28  C   UNL     1       5.437  10.652  26.872  0.00  0.00    +0.000 A 
ATOM     29  C   UNL     1       5.709  11.316  25.664  0.00  0.00    +0.000 A 
ENDBRANCH  23  24
ENDBRANCH  10  21
TORSDOF 3
ENDMDL
MODEL 2
REMARK VINA RESULT:      -7.0      0.548      1.040
REMARK  Name = 
REMARK  5 active torsions:
REMARK  status: ('A' for Active; 'I' for Inactive)
REMARK    1  A    between atoms: C_1  and  C_2
REMARK    2  A    between atoms: C_5  and  C_6
REMARK    3  A    between atoms: C_8  and  C_10
REMARK    4  A    between atoms: C_19  and  C_21
REMARK    5  A    between atoms: C_23  and  C_24
REMARK                            x       y       z     vdW  Elec       q    Type
REMARK                         _______ _______ _______ _____ _____    ______ ____
ROOT
ATOM      1  C   UNL     1       8.963  13.985  20.357  0.00  0.00    +0.000 C 
ATOM      2  C   UNL     1      10.466  13.887  20.095  0.00  0.00    +0.000 C 
ATOM      3  C   UNL     1      10.860  12.454  20.484  0.00  0.00    +0.000 C 
ATOM      4  C   UNL     1      12.113  11.927  19.825  0.00  0.00    +0.000 C 
ATOM      5  C   UNL     1      11.997  11.622  18.347  0.00  0.00    +0.000 C 
ATOM      6  C   UNL     1      10.601  11.317  17.821  0.00  0.00    +0.000 C 
ATOM      7  C   UNL     1       9.434  11.137  18.807  0.00  0.00    +0.000 C 
ATOM      8  C   UNL     1       9.592  11.650  20.258  0.00  0.00    +0.000 C 
ATOM      9  N   UNL     1       8.588  12.614  20.787  0.00  0.00    +0.000 N 
ATOM     10  C   UNL     1       8.221  12.464  22.172  0.00  0.00    +0.000 C 
ATOM     11  O   UNL     1       8.491  11.468  22.830  0.00  0.00    +0.000 OA
ENDROOT
BRANCH   1  19
ATOM     12  C   UNL     1       5.362  15.012  17.990  0.00  0.00    +0.000 C 
ATOM     13  C   UNL     1       6.210  16.121  18.596  0.00  0.00    +0.000 C 
ATOM     14  C   UNL     1       5.303  16.996  19.478  0.00  0.00    +0.000 C 
ATOM     15  C   UNL     1       6.257  17.620  20.466  0.00  0.00    +0.000 C 
ATOM     16  C   UNL     1       7.293  16.518  20.721  0.00  0.00    +0.000 C 
ATOM     17  C   UNL     1       8.621  17.195  21.072  0.00  0.00    +0.000 C 
ATOM     18  N   UNL     1       7.286  15.686  19.504  0.00  0.00    +0.000 N 
ATOM     19  C   UNL     1       8.120  14.605  19.189  0.00  0.00    +0.000 C 
ATOM     20  O   UNL     1       8.173  14.131  18.053  0.00  0.00    +0.000 OA
ENDBRANCH   1  19
BRANCH  10  21
ATOM     21  C   UNL     1       7.519  13.632  22.813  0.00  0.00    +0.000 C 
ATOM     22  C   UNL     1       8.280  14.389  23.899  0.00  0.00    +0.000 C 
ATOM     23  C   UNL     1       6.900  13.878  24.175  0.00  0.00    +0.000 C 
BRANCH  23  24
ATOM     24  C   UNL     1       6.690  13.074  25.435  0.00  0.00    +0.000 A 
ATOM     25  C   UNL     1       5.942  11.869  25.341  0.00  0.00    +0.000 A 
ATOM     26  C   UNL     1       5.872  10.944  26.374  0.00  0.00    +0.000 A 
ATOM     27  C   UNL     1       6.542  11.196  27.572  0.00  0.00    +0.000 A 
ATOM     28  C   UNL     1       7.225  12.405  27.725  0.00  0.00    +0.000 A 
ATOM     29  C   UNL     1       7.292  13.329  26.669  0.00  0.00    +0.000 A 
ENDBRANCH  23  24
ENDBRANCH  10  21
TORSDOF 3
ENDMDL
MODEL 3
REMARK VINA RESULT:      -6.7      7.523     10.721
REMARK  Name = 
REMARK  5 active torsions:
REMARK  status: ('A' for Active; 'I' for Inactive)
REMARK    1  A    between atoms: C_1  and  C_2
REMARK    2  A    between atoms: C_5  and  C_6
REMARK    3  A    between atoms: C_8  and  C_10
REMARK    4  A    between atoms: C_19  and  C_21
REMARK    5  A    between atoms: C_23  and  C_24
REMARK                            x       y       z     vdW  Elec       q    Type
REMARK                         _______ _______ _______ _____ _____    ______ ____
ROOT
ATOM      1  C   UNL     1       0.617  13.571  21.066  0.00  0.00    +0.000 C 
ATOM      2  C   UNL     1       2.140  13.604  20.945  0.00  0.00    +0.000 C 
ATOM      3  C   UNL     1       2.430  14.134  19.532  0.00  0.00    +0.000 C 
ATOM      4  C   UNL     1       3.784  14.777  19.347  0.00  0.00    +0.000 C 
ATOM      5  C   UNL     1       3.968  16.122  20.019  0.00  0.00    +0.000 C 
ATOM      6  C   UNL     1       2.704  16.928  20.287  0.00  0.00    +0.000 C 
ATOM      7  C   UNL     1       1.359  16.459  19.708  0.00  0.00    +0.000 C 
ATOM      8  C   UNL     1       1.225  15.000  19.210  0.00  0.00    +0.000 C 
ATOM      9  N   UNL     1       0.145  14.148  19.781  0.00  0.00    +0.000 N 
ATOM     10  C   UNL     1      -0.497  13.231  18.874  0.00  0.00    +0.000 C 
ATOM     11  O   UNL     1      -0.379  13.302  17.659  0.00  0.00    +0.000 OA
ENDROOT
BRANCH   1  19
ATOM     12  C   UNL     1      -2.238  15.772  23.641  0.00  0.00    +0.000 C 
ATOM     13  C   UNL     1      -1.927  14.312  23.933  0.00  0.00    +0.000 C 
ATOM     14  C   UNL     1      -3.250  13.527  23.943  0.00  0.00    +0.000 C 
ATOM     15  C   UNL     1      -2.832  12.114  23.621  0.00  0.00    +0.000 C 
ATOM     16  C   UNL     1      -1.676  12.292  22.629  0.00  0.00    +0.000 C 
ATOM     17  C   UNL     1      -0.735  11.092  22.786  0.00  0.00    +0.000 C 
ATOM     18  N   UNL     1      -1.102  13.615  22.931  0.00  0.00    +0.000 N 
ATOM     19  C   UNL     1       0.036  14.213  22.373  0.00  0.00    +0.000 C 
ATOM     20  O   UNL     1       0.550  15.221  22.862  0.00  0.00    +0.000 OA
ENDBRANCH   1  19
BRANCH  10  21
ATOM     21  C   UNL     1      -1.301  12.120  19.497  0.00  0.00    +0.000 C 
ATOM     22  C   UNL     1      -0.813  10.693  19.261  0.00  0.00    +0.000 C 
ATOM     23  C   UNL     1      -2.233  11.055  18.955  0.00  0.00    +0.000 C 
BRANCH  23  24
ATOM     24  C   UNL     1      -2.776  10.674  17.599  0.00  0.00    +0.000 A 
ATOM     25  C   UNL     1      -3.943  11.340  17.136  0.00  0.00    +0.000 A 
ATOM     26  C   UNL     1      -4.401  11.234  15.830  0.00  0.00    +0.000 A 
ATOM     27  C   UNL     1      -3.713  10.430  14.920  0.00  0.00    +0.000 A 
ATOM     28  C   UNL     1      -2.605   9.703  15.361  0.00  0.00    +0.000 A 
ATOM     29  C   UNL     1      -2.150   9.824  16.684  0.00  0.00    +0.000 A 
ENDBRANCH  23  24
ENDBRANCH  10  21
TORSDOF 3
ENDMDL
MODEL 4
REMARK VINA RESULT:      -6.6      8.236     11.210
REMARK  Name = 
REMARK  5 active torsions:
REMARK  status: ('A' for Active; 'I' for Inactive)
REMARK    1  A    between atoms: C_1  and  C_2
REMARK    2  A    between atoms: C_5  and  C_6
REMARK    3  A    between atoms: C_8  and  C_10
REMARK    4  A    between atoms: C_19  and  C_21
REMARK    5  A    between atoms: C_23  and  C_24
REMARK                            x       y       z     vdW  Elec       q    Type
REMARK                         _______ _______ _______ _____ _____    ______ ____
ROOT
ATOM      1  C   UNL     1      -0.655  14.779  20.602  0.00  0.00    +0.000 C 
ATOM      2  C   UNL     1       0.328  15.817  21.139  0.00  0.00    +0.000 C 
ATOM      3  C   UNL     1       1.312  16.088  19.990  0.00  0.00    +0.000 C 
ATOM      4  C   UNL     1       2.014  17.423  20.040  0.00  0.00    +0.000 C 
ATOM      5  C   UNL     1       1.150  18.630  19.743  0.00  0.00    +0.000 C 
ATOM      6  C   UNL     1      -0.094  18.386  18.898  0.00  0.00    +0.000 C 
ATOM      7  C   UNL     1      -0.311  17.016  18.234  0.00  0.00    +0.000 C 
ATOM      8  C   UNL     1       0.503  15.800  18.738  0.00  0.00    +0.000 C 
ATOM      9  N   UNL     1      -0.235  14.587  19.191  0.00  0.00    +0.000 N 
ATOM     10  C   UNL     1       0.366  13.316  18.876  0.00  0.00    +0.000 C 
ATOM     11  O   UNL     1       1.276  13.190  18.069  0.00  0.00    +0.000 OA
ENDROOT
BRANCH   1  19
ATOM     12  C   UNL     1      -5.050  14.385  20.215  0.00  0.00    +0.000 C 
ATOM     13  C   UNL     1      -4.392  14.199  21.573  0.00  0.00    +0.000 C 
ATOM     14  C   UNL     1      -4.788  12.815  22.118  0.00  0.00    +0.000 C 
ATOM     15  C   UNL     1      -3.675  12.475  23.076  0.00  0.00    +0.000 C 
ATOM     16  C   UNL     1      -2.426  13.069  22.413  0.00  0.00    +0.000 C 
ATOM     17  C   UNL     1      -1.438  13.441  23.523  0.00  0.00    +0.000 C 
ATOM     18  N   UNL     1      -2.919  14.180  21.578  0.00  0.00    +0.000 N 
ATOM     19  C   UNL     1      -2.170  15.106  20.840  0.00  0.00    +0.000 C 
ATOM     20  O   UNL     1      -2.677  16.124  20.365  0.00  0.00    +0.000 OA
ENDBRANCH   1  19
BRANCH  10  21
ATOM     21  C   UNL     1      -0.147  12.122  19.638  0.00  0.00    +0.000 C 
ATOM     22  C   UNL     1       0.233  10.743  19.106  0.00  0.00    +0.000 C 
ATOM     23  C   UNL     1      -1.205  11.069  19.370  0.00  0.00    +0.000 C 
BRANCH  23  24
ATOM     24  C   UNL     1      -2.201  10.784  18.272  0.00  0.00    +0.000 A 
ATOM     25  C   UNL     1      -3.423  11.509  18.274  0.00  0.00    +0.000 A 
ATOM     26  C   UNL     1      -4.309  11.493  17.206  0.00  0.00    +0.000 A 
ATOM     27  C   UNL     1      -4.016  10.725  16.078  0.00  0.00    +0.000 A 
ATOM     28  C   UNL     1      -2.860   9.943  16.072  0.00  0.00    +0.000 A 
ATOM     29  C   UNL     1      -1.970   9.973  17.159  0.00  0.00    +0.000 A 
ENDBRANCH  23  24
ENDBRANCH  10  21
TORSDOF 3
ENDMDL
MODEL 5
REMARK VINA RESULT:      -6.5      3.107      7.235
REMARK  Name = 
REMARK  5 active torsions:
REMARK  status: ('A' for Active; 'I' for Inactive)
REMARK    1  A    between atoms: C_1  and  C_2
REMARK    2  A    between atoms: C_5  and  C_6
REMARK    3  A    between atoms: C_8  and  C_10
REMARK    4  A    between atoms: C_19  and  C_21
REMARK    5  A    between atoms: C_23  and  C_24
REMARK                            x       y       z     vdW  Elec       q    Type
REMARK                         _______ _______ _______ _____ _____    ______ ____
ROOT
ATOM      1  C   UNL     1       8.768  15.442  19.108  0.00  0.00    +0.000 C 
ATOM      2  C   UNL     1       9.693  16.031  18.044  0.00  0.00    +0.000 C 
ATOM      3  C   UNL     1       9.336  17.524  17.969  0.00  0.00    +0.000 C 
ATOM      4  C   UNL     1      10.426  18.423  17.436  0.00  0.00    +0.000 C 
ATOM      5  C   UNL     1      11.612  18.631  18.354  0.00  0.00    +0.000 C 
ATOM      6  C   UNL     1      11.364  18.433  19.843  0.00  0.00    +0.000 C 
ATOM      7  C   UNL     1       9.929  18.237  20.361  0.00  0.00    +0.000 C 
ATOM      8  C   UNL     1       8.816  17.848  19.358  0.00  0.00    +0.000 C 
ATOM      9  N   UNL     1       8.019  16.617  19.620  0.00  0.00    +0.000 N 
ATOM     10  C   UNL     1       6.620  16.674  19.280  0.00  0.00    +0.000 C 
ATOM     11  O   UNL     1       6.034  17.720  19.040  0.00  0.00    +0.000 OA
ENDROOT
BRANCH   1  19
ATOM     12  C   UNL     1       9.135  12.451  22.355  0.00  0.00    +0.000 C 
ATOM     13  C   UNL     1       9.812  12.200  21.016  0.00  0.00    +0.000 C 
ATOM     14  C   UNL     1       9.317  10.850  20.469  0.00  0.00    +0.000 C 
ATOM     15  C   UNL     1       9.516  10.972  18.979  0.00  0.00    +0.000 C 
ATOM     16  C   UNL     1       9.209  12.447  18.689  0.00  0.00    +0.000 C 
ATOM     17  C   UNL     1      10.030  12.865  17.465  0.00  0.00    +0.000 C 
ATOM     18  N   UNL     1       9.499  13.161  19.945  0.00  0.00    +0.000 N 
ATOM     19  C   UNL     1       9.472  14.542  20.182  0.00  0.00    +0.000 C 
ATOM     20  O   UNL     1       9.950  15.038  21.204  0.00  0.00    +0.000 OA
ENDBRANCH   1  19
BRANCH  10  21
ATOM     21  C   UNL     1       5.899  15.356  19.177  0.00  0.00    +0.000 C 
ATOM     22  C   UNL     1       5.579  14.846  17.774  0.00  0.00    +0.000 C 
ATOM     23  C   UNL     1       4.489  14.947  18.796  0.00  0.00    +0.000 C 
BRANCH  23  24
ATOM     24  C   UNL     1       3.220  15.662  18.399  0.00  0.00    +0.000 A 
ATOM     25  C   UNL     1       2.063  15.463  19.199  0.00  0.00    +0.000 A 
ATOM     26  C   UNL     1       0.914  16.230  19.063  0.00  0.00    +0.000 A 
ATOM     27  C   UNL     1       0.863  17.231  18.093  0.00  0.00    +0.000 A 
ATOM     28  C   UNL     1       1.955  17.404  17.240  0.00  0.00    +0.000 A 
ATOM     29  C   UNL     1       3.114  16.625  17.392  0.00  0.00    +0.000 A 
ENDBRANCH  23  24
ENDBRANCH  10  21
TORSDOF 3
ENDMDL
MODEL 6
REMARK VINA RESULT:      -6.5      7.869     10.301
REMARK  Name = 
REMARK  5 active torsions:
REMARK  status: ('A' for Active; 'I' for Inactive)
REMARK    1  A    between atoms: C_1  and  C_2
REMARK    2  A    between atoms: C_5  and  C_6
REMARK    3  A    between atoms: C_8  and  C_10
REMARK    4  A    between atoms: C_19  and  C_21
REMARK    5  A    between atoms: C_23  and  C_24
REMARK                            x       y       z     vdW  Elec       q    Type
REMARK                         _______ _______ _______ _____ _____    ______ ____
ROOT
ATOM      1  C   UNL     1      -0.812  14.621  20.756  0.00  0.00    +0.000 C 
ATOM      2  C   UNL     1       0.234  15.628  21.232  0.00  0.00    +0.000 C 
ATOM      3  C   UNL     1       1.211  15.794  20.058  0.00  0.00    +0.000 C 
ATOM      4  C   UNL     1       1.984  17.092  20.039  0.00  0.00    +0.000 C 
ATOM      5  C   UNL     1       1.179  18.329  19.700  0.00  0.00    +0.000 C 
ATOM      6  C   UNL     1      -0.089  18.114  18.884  0.00  0.00    +0.000 C 
ATOM      7  C   UNL     1      -0.389  16.730  18.285  0.00  0.00    +0.000 C 
ATOM      8  C   UNL     1       0.368  15.495  18.832  0.00  0.00    +0.000 C 
ATOM      9  N   UNL     1      -0.425  14.345  19.349  0.00  0.00    +0.000 N 
ATOM     10  C   UNL     1       0.102  13.031  19.083  0.00  0.00    +0.000 C 
ATOM     11  O   UNL     1       0.992  12.821  18.269  0.00  0.00    +0.000 OA
ENDROOT
BRANCH   1  19
ATOM     12  C   UNL     1      -5.229  14.416  20.489  0.00  0.00    +0.000 C 
ATOM     13  C   UNL     1      -4.547  14.297  21.844  0.00  0.00    +0.000 C 
ATOM     14  C   UNL     1      -4.996  12.979  22.498  0.00  0.00    +0.000 C 
ATOM     15  C   UNL     1      -3.876  12.655  23.456  0.00  0.00    +0.000 C 
ATOM     16  C   UNL     1      -2.618  13.138  22.725  0.00  0.00    +0.000 C 
ATOM     17  C   UNL     1      -1.586  13.541  23.783  0.00  0.00    +0.000 C 
ATOM     18  N   UNL     1      -3.077  14.207  21.820  0.00  0.00    +0.000 N 
ATOM     19  C   UNL     1      -2.303  15.038  21.000  0.00  0.00    +0.000 C 
ATOM     20  O   UNL     1      -2.772  16.042  20.461  0.00  0.00    +0.000 OA
ENDBRANCH   1  19
BRANCH  10  21
ATOM     21  C   UNL     1      -0.461  11.901  19.904  0.00  0.00    +0.000 C 
ATOM     22  C   UNL     1       0.361  11.439  21.105  0.00  0.00    +0.000 C 
ATOM     23  C   UNL     1      -0.096  10.441  20.087  0.00  0.00    +0.000 C 
BRANCH  23  24
ATOM     24  C   UNL     1       0.937   9.499  19.517  0.00  0.00    +0.000 A 
ATOM     25  C   UNL     1       1.398   8.436  20.341  0.00  0.00    +0.000 A 
ATOM     26  C   UNL     1       2.171   7.390  19.856  0.00  0.00    +0.000 A 
ATOM     27  C   UNL     1       2.540   7.371  18.510  0.00  0.00    +0.000 A 
ATOM     28  C   UNL     1       2.167   8.437  17.689  0.00  0.00    +0.000 A 
ATOM     29  C   UNL     1       1.379   9.486  18.192  0.00  0.00    +0.000 A 
ENDBRANCH  23  24
ENDBRANCH  10  21
TORSDOF 3
ENDMDL
MODEL 7
REMARK VINA RESULT:      -6.4      2.448      6.900
REMARK  Name = 
REMARK  5 active torsions:
REMARK  status: ('A' for Active; 'I' for Inactive)
REMARK    1  A    between atoms: C_1  and  C_2
REMARK    2  A    between atoms: C_5  and  C_6
REMARK    3  A    between atoms: C_8  and  C_10
REMARK    4  A    between atoms: C_19  and  C_21
REMARK    5  A    between atoms: C_23  and  C_24
REMARK                            x       y       z     vdW  Elec       q    Type
REMARK                         _______ _______ _______ _____ _____    ______ ____
ROOT
ATOM      1  C   UNL     1       5.107  15.287  20.988  0.00  0.00    +0.000 C 
ATOM      2  C   UNL     1       3.876  16.187  21.083  0.00  0.00    +0.000 C 
ATOM      3  C   UNL     1       3.141  16.024  19.744  0.00  0.00    +0.000 C 
ATOM      4  C   UNL     1       1.664  16.341  19.775  0.00  0.00    +0.000 C 
ATOM      5  C   UNL     1       0.795  15.343  20.510  0.00  0.00    +0.000 C 
ATOM      6  C   UNL     1       1.334  13.923  20.625  0.00  0.00    +0.000 C 
ATOM      7  C   UNL     1       2.597  13.519  19.846  0.00  0.00    +0.000 C 
ATOM      8  C   UNL     1       3.520  14.628  19.285  0.00  0.00    +0.000 C 
ATOM      9  N   UNL     1       4.959  14.620  19.670  0.00  0.00    +0.000 N 
ATOM     10  C   UNL     1       5.898  15.014  18.651  0.00  0.00    +0.000 C 
ATOM     11  O   UNL     1       5.601  15.102  17.467  0.00  0.00    +0.000 OA
ENDROOT
BRANCH   1  19
ATOM     12  C   UNL     1       6.836  11.948  23.331  0.00  0.00    +0.000 C 
ATOM     13  C   UNL     1       7.058  13.384  23.783  0.00  0.00    +0.000 C 
ATOM     14  C   UNL     1       8.574  13.626  23.896  0.00  0.00    +0.000 C 
ATOM     15  C   UNL     1       8.712  15.119  23.732  0.00  0.00    +0.000 C 
ATOM     16  C   UNL     1       7.623  15.477  22.713  0.00  0.00    +0.000 C 
ATOM     17  C   UNL     1       7.173  16.914  22.992  0.00  0.00    +0.000 C 
ATOM     18  N   UNL     1       6.594  14.431  22.856  0.00  0.00    +0.000 N 
ATOM     19  C   UNL     1       5.348  14.349  22.221  0.00  0.00    +0.000 C 
ATOM     20  O   UNL     1       4.480  13.555  22.587  0.00  0.00    +0.000 OA
ENDBRANCH   1  19
BRANCH  10  21
ATOM     21  C   UNL     1       7.283  15.377  19.116  0.00  0.00    +0.000 C 
ATOM     22  C   UNL     1       8.399  15.339  18.074  0.00  0.00    +0.000 C 
ATOM     23  C   UNL     1       8.557  14.592  19.363  0.00  0.00    +0.000 C 
BRANCH  23  24
ATOM     24  C   UNL     1       8.973  13.143  19.285  0.00  0.00    +0.000 A 
ATOM     25  C   UNL     1       9.260  12.464  20.501  0.00  0.00    +0.000 A 
ATOM     26  C   UNL     1       9.435  11.089  20.571  0.00  0.00    +0.000 A 
ATOM     27  C   UNL     1       9.347  10.322  19.409  0.00  0.00    +0.000 A 
ATOM     28  C   UNL     1       9.140  10.964  18.187  0.00  0.00    +0.000 A 
ATOM     29  C   UNL     1       8.960  12.356  18.131  0.00  0.00    +0.000 A 
ENDBRANCH  23  24
ENDBRANCH  10  21
TORSDOF 3
ENDMDL
MODEL 8
REMARK VINA RESULT:      -6.3      0.995      1.034
REMARK  Name = 
REMARK  5 active torsions:
REMARK  status: ('A' for Active; 'I' for Inactive)
REMARK    1  A    between atoms: C_1  and  C_2
REMARK    2  A    between atoms: C_5  and  C_6
REMARK    3  A    between atoms: C_8  and  C_10
REMARK    4  A    between atoms: C_19  and  C_21
REMARK    5  A    between atoms: C_23  and  C_24
REMARK                            x       y       z     vdW  Elec       q    Type
REMARK                         _______ _______ _______ _____ _____    ______ ____
ROOT
ATOM      1  C   UNL     1       8.852  14.600  19.971  0.00  0.00    +0.000 C 
ATOM      2  C   UNL     1      10.328  14.822  19.645  0.00  0.00    +0.000 C 
ATOM      3  C   UNL     1      11.011  13.465  19.876  0.00  0.00    +0.000 C 
ATOM      4  C   UNL     1      12.302  13.254  19.123  0.00  0.00    +0.000 C 
ATOM      5  C   UNL     1      12.165  13.065  17.627  0.00  0.00    +0.000 C 
ATOM      6  C   UNL     1      10.826  12.541  17.126  0.00  0.00    +0.000 C 
ATOM      7  C   UNL     1       9.772  12.049  18.133  0.00  0.00    +0.000 C 
ATOM      8  C   UNL     1       9.910  12.452  19.620  0.00  0.00    +0.000 C 
ATOM      9  N   UNL     1       8.770  13.150  20.278  0.00  0.00    +0.000 N 
ATOM     10  C   UNL     1       8.517  12.808  21.655  0.00  0.00    +0.000 C 
ATOM     11  O   UNL     1       9.009  11.830  22.201  0.00  0.00    +0.000 OA
ENDROOT
BRANCH   1  19
ATOM     12  C   UNL     1       5.006  15.073  17.824  0.00  0.00    +0.000 C 
ATOM     13  C   UNL     1       5.628  16.267  18.532  0.00  0.00    +0.000 C 
ATOM     14  C   UNL     1       4.600  16.827  19.530  0.00  0.00    +0.000 C 
ATOM     15  C   UNL     1       5.446  17.533  20.559  0.00  0.00    +0.000 C 
ATOM     16  C   UNL     1       6.702  16.660  20.662  0.00  0.00    +0.000 C 
ATOM     17  C   UNL     1       7.873  17.566  21.057  0.00  0.00    +0.000 C 
ATOM     18  N   UNL     1       6.814  15.981  19.358  0.00  0.00    +0.000 N 
ATOM     19  C   UNL     1       7.842  15.144  18.903  0.00  0.00    +0.000 C 
ATOM     20  O   UNL     1       7.940  14.817  17.719  0.00  0.00    +0.000 OA
ENDBRANCH   1  19
BRANCH  10  21
ATOM     21  C   UNL     1       7.642  13.754  22.433  0.00  0.00    +0.000 C 
ATOM     22  C   UNL     1       8.248  14.396  23.679  0.00  0.00    +0.000 C 
ATOM     23  C   UNL     1       6.934  13.684  23.773  0.00  0.00    +0.000 C 
BRANCH  23  24
ATOM     24  C   UNL     1       6.772  12.653  24.863  0.00  0.00    +0.000 A 
ATOM     25  C   UNL     1       7.403  12.899  26.113  0.00  0.00    +0.000 A 
ATOM     26  C   UNL     1       7.145  12.141  27.247  0.00  0.00    +0.000 A 
ATOM     27  C   UNL     1       6.247  11.076  27.176  0.00  0.00    +0.000 A 
ATOM     28  C   UNL     1       5.666  10.760  25.946  0.00  0.00    +0.000 A 
ATOM     29  C   UNL     1       5.931  11.539  24.808  0.00  0.00    +0.000 A 
ENDBRANCH  23  24
ENDBRANCH  10  21
TORSDOF 3
ENDMDL
MODEL 9
REMARK VINA RESULT:      -6.3      8.720     12.120
REMARK  Name = 
REMARK  5 active torsions:
REMARK  status: ('A' for Active; 'I' for Inactive)
REMARK    1  A    between atoms: C_1  and  C_2
REMARK    2  A    between atoms: C_5  and  C_6
REMARK    3  A    between atoms: C_8  and  C_10
REMARK    4  A    between atoms: C_19  and  C_21
REMARK    5  A    between atoms: C_23  and  C_24
REMARK                            x       y       z     vdW  Elec       q    Type
REMARK                         _______ _______ _______ _____ _____    ______ ____
ROOT
ATOM      1  C   UNL     1      -2.980  13.167  22.502  0.00  0.00    +0.000 C 
ATOM      2  C   UNL     1      -4.110  12.452  23.240  0.00  0.00    +0.000 C 
ATOM      3  C   UNL     1      -5.044  13.565  23.742  0.00  0.00    +0.000 C 
ATOM      4  C   UNL     1      -6.471  13.144  24.001  0.00  0.00    +0.000 C 
ATOM      5  C   UNL     1      -7.298  12.841  22.770  0.00  0.00    +0.000 C 
ATOM      6  C   UNL     1      -6.860  13.509  21.473  0.00  0.00    +0.000 C 
ATOM      7  C   UNL     1      -5.759  14.582  21.499  0.00  0.00    +0.000 C 
ATOM      8  C   UNL     1      -4.845  14.690  22.743  0.00  0.00    +0.000 C 
ATOM      9  N   UNL     1      -3.370  14.599  22.554  0.00  0.00    +0.000 N 
ATOM     10  C   UNL     1      -2.562  15.445  23.394  0.00  0.00    +0.000 C 
ATOM     11  O   UNL     1      -3.020  16.377  24.042  0.00  0.00    +0.000 OA
ENDROOT
BRANCH   1  19
ATOM     12  C   UNL     1      -0.959  12.867  18.571  0.00  0.00    +0.000 C 
ATOM     13  C   UNL     1      -0.812  11.742  19.585  0.00  0.00    +0.000 C 
ATOM     14  C   UNL     1       0.688  11.517  19.844  0.00  0.00    +0.000 C 
ATOM     15  C   UNL     1       0.725  10.892  21.217  0.00  0.00    +0.000 C 
ATOM     16  C   UNL     1      -0.421  11.585  21.965  0.00  0.00    +0.000 C 
ATOM     17  C   UNL     1      -0.951  10.608  23.019  0.00  0.00    +0.000 C 
ATOM     18  N   UNL     1      -1.375  12.000  20.921  0.00  0.00    +0.000 N 
ATOM     19  C   UNL     1      -2.635  12.590  21.085  0.00  0.00    +0.000 C 
ATOM     20  O   UNL     1      -3.437  12.685  20.154  0.00  0.00    +0.000 OA
ENDBRANCH   1  19
BRANCH  10  21
ATOM     21  C   UNL     1      -1.099  15.099  23.490  0.00  0.00    +0.000 C 
ATOM     22  C   UNL     1      -0.106  16.257  23.438  0.00  0.00    +0.000 C 
ATOM     23  C   UNL     1       0.055  15.095  22.506  0.00  0.00    +0.000 C 
BRANCH  23  24
ATOM     24  C   UNL     1       0.232  15.394  21.038  0.00  0.00    +0.000 A 
ATOM     25  C   UNL     1      -0.814  16.081  20.365  0.00  0.00    +0.000 A 
ATOM     26  C   UNL     1      -0.672  16.600  19.085  0.00  0.00    +0.000 A 
ATOM     27  C   UNL     1       0.534  16.436  18.404  0.00  0.00    +0.000 A 
ATOM     28  C   UNL     1       1.559  15.703  19.007  0.00  0.00    +0.000 A 
ATOM     29  C   UNL     1       1.403  15.188  20.304  0.00  0.00    +0.000 A 
ENDBRANCH  23  24
ENDBRANCH  10  21
TORSDOF 3
ENDMDL
