MODEL 1
REMARK VINA RESULT:      -8.2      0.000      0.000
REMARK  Name = 
REMARK  8 active torsions:
REMARK  status: ('A' for Active; 'I' for Inactive)
REMARK    1  A    between atoms: O_1  and  C_2
REMARK    2  A    between atoms: C_2  and  C_3
REMARK    3  A    between atoms: C_2  and  C_14
REMARK    4  A    between atoms: C_3  and  N_4
REMARK    5  A    between atoms: N_4  and  C_5
REMARK    6  A    between atoms: C_5  and  C_6
REMARK    7  A    between atoms: C_14  and  N_15
REMARK    8  A    between atoms: C_16  and  C_17
REMARK                            x       y       z     vdW  Elec       q    Type
REMARK                         _______ _______ _______ _____ _____    ______ ____
ROOT
ATOM      1  C   UNL     1       3.964   6.505  18.650  0.00  0.00    +0.000 C 
ENDROOT
BRANCH   1   2
ATOM      2  N   UNL     1       4.192   5.264  17.911  0.00  0.00    +0.000 N 
ATOM      3  C   UNL     1       3.745   3.979  18.218  0.00  0.00    +0.000 A 
ATOM      4  C   UNL     1       4.254   3.154  17.220  0.00  0.00    +0.000 A 
ATOM      5  C   UNL     1       4.973   3.922  16.281  0.00  0.00    +0.000 A 
ATOM      6  C   UNL     1       5.672   3.606  15.097  0.00  0.00    +0.000 A 
ATOM      7  C   UNL     1       6.269   4.628  14.354  0.00  0.00    +0.000 A 
ATOM      8  C   UNL     1       6.188   5.947  14.784  0.00  0.00    +0.000 A 
ATOM      9  C   UNL     1       5.523   6.276  15.971  0.00  0.00    +0.000 A 
ATOM     10  C   UNL     1       4.912   5.247  16.709  0.00  0.00    +0.000 A 
BRANCH   3  11
ATOM     11  C   UNL     1       2.952   3.532  19.387  0.00  0.00    +0.000 A 
ATOM     12  C   UNL     1       3.519   2.970  20.537  0.00  0.00    +0.000 A 
ATOM     13  C   UNL     1       2.721   2.532  21.599  0.00  0.00    +0.000 A 
ATOM     14  C   UNL     1       1.348   2.714  21.552  0.00  0.00    +0.000 A 
ATOM     15  F   UNL     1       0.588   2.300  22.573  0.00  0.00    +0.000 F 
ATOM     16  C   UNL     1       0.758   3.338  20.463  0.00  0.00    +0.000 A 
ATOM     17  C   UNL     1       1.556   3.734  19.386  0.00  0.00    +0.000 A 
ENDBRANCH   3  11
ENDBRANCH   1   2
BRANCH   1  18
ATOM     18  C   UNL     1       2.563   7.111  18.501  0.00  0.00    +0.000 C 
BRANCH  18  19
ATOM     19  O   UNL     1       1.942   7.185  19.796  0.00  0.00    +0.000 OA
ATOM     20  H   UNL     1       1.300   7.916  19.785  0.00  0.00    +0.000 HD
ENDBRANCH  18  19
BRANCH  18  21
ATOM     21  C   UNL     1       2.628   8.562  17.964  0.00  0.00    +0.000 C 
BRANCH  21  22
ATOM     22  N   UNL     1       1.382   9.161  17.450  0.00  0.00    +0.000 NA
ATOM     23  H   UNL     1       0.722   8.418  17.216  0.00  0.00    +0.000 HD
BRANCH  22  24
ATOM     24  C   UNL     1       0.790   9.968  18.539  0.00  0.00    +0.000 C 
BRANCH  24  25
ATOM     25  C   UNL     1      -0.658  10.351  18.325  0.00  0.00    +0.000 A 
ATOM     26  C   UNL     1      -1.375   9.751  17.273  0.00  0.00    +0.000 A 
ATOM     27  C   UNL     1      -2.666  10.176  16.946  0.00  0.00    +0.000 A 
ATOM     28  C   UNL     1      -3.260  11.207  17.668  0.00  0.00    +0.000 A 
ATOM     29 CL   UNL     1      -4.835  11.753  17.246  0.00  0.00    +0.000 Cl
ATOM     30  C   UNL     1      -2.581  11.809  18.721  0.00  0.00    +0.000 A 
ATOM     31  C   UNL     1      -1.287  11.385  19.047  0.00  0.00    +0.000 A 
ATOM     32 CL   UNL     1      -0.507  12.215  20.349  0.00  0.00    +0.000 Cl
ENDBRANCH  24  25
ENDBRANCH  22  24
ENDBRANCH  21  22
ENDBRANCH  18  21
ENDBRANCH   1  18
TORSDOF 8
ENDMDL
MODEL 2
REMARK VINA RESULT:      -8.1      1.701      2.279
REMARK  Name = 
REMARK  8 active torsions:
REMARK  status: ('A' for Active; 'I' for Inactive)
REMARK    1  A    between atoms: O_1  and  C_2
REMARK    2  A    between atoms: C_2  and  C_3
REMARK    3  A    between atoms: C_2  and  C_14
REMARK    4  A    between atoms: C_3  and  N_4
REMARK    5  A    between atoms: N_4  and  C_5
REMARK    6  A    between atoms: C_5  and  C_6
REMARK    7  A    between atoms: C_14  and  N_15
REMARK    8  A    between atoms: C_16  and  C_17
REMARK                            x       y       z     vdW  Elec       q    Type
REMARK                         _______ _______ _______ _____ _____    ______ ____
ROOT
ATOM      1  C   UNL     1       3.983   6.503  18.517  0.00  0.00    +0.000 C 
ENDROOT
BRANCH   1   2
ATOM      2  N   UNL     1       4.217   5.243  17.812  0.00  0.00    +0.000 N 
ATOM      3  C   UNL     1       3.733   3.973  18.126  0.00  0.00    +0.000 A 
ATOM      4  C   UNL     1       4.266   3.118  17.166  0.00  0.00    +0.000 A 
ATOM      5  C   UNL     1       5.038   3.853  16.242  0.00  0.00    +0.000 A 
ATOM      6  C   UNL     1       5.778   3.501  15.095  0.00  0.00    +0.000 A 
ATOM      7  C   UNL     1       6.426   4.496  14.358  0.00  0.00    +0.000 A 
ATOM      8  C   UNL     1       6.353   5.825  14.759  0.00  0.00    +0.000 A 
ATOM      9  C   UNL     1       5.646   6.190  15.910  0.00  0.00    +0.000 A 
ATOM     10  C   UNL     1       4.985   5.189  16.642  0.00  0.00    +0.000 A 
BRANCH   3  11
ATOM     11  C   UNL     1       2.883   3.565  19.269  0.00  0.00    +0.000 A 
ATOM     12  C   UNL     1       1.487   3.665  19.268  0.00  0.00    +0.000 A 
ATOM     13  C   UNL     1       0.733   3.298  20.388  0.00  0.00    +0.000 A 
ATOM     14  C   UNL     1       1.364   2.762  21.499  0.00  0.00    +0.000 A 
ATOM     15  F   UNL     1       0.638   2.405  22.567  0.00  0.00    +0.000 F 
ATOM     16  C   UNL     1       2.738   2.575  21.507  0.00  0.00    +0.000 A 
ATOM     17  C   UNL     1       3.490   2.984  20.401  0.00  0.00    +0.000 A 
ENDBRANCH   3  11
ENDBRANCH   1   2
BRANCH   1  18
ATOM     18  C   UNL     1       2.545   7.031  18.459  0.00  0.00    +0.000 C 
BRANCH  18  19
ATOM     19  O   UNL     1       2.037   7.161  19.799  0.00  0.00    +0.000 OA
ATOM     20  H   UNL     1       2.106   6.295  20.237  0.00  0.00    +0.000 HD
ENDBRANCH  18  19
BRANCH  18  21
ATOM     21  C   UNL     1       2.485   8.445  17.831  0.00  0.00    +0.000 C 
BRANCH  21  22
ATOM     22  N   UNL     1       1.212   9.184  17.922  0.00  0.00    +0.000 NA
ATOM     23  H   UNL     1       0.588   8.703  18.571  0.00  0.00    +0.000 HD
BRANCH  22  24
ATOM     24  C   UNL     1       1.508  10.521  18.480  0.00  0.00    +0.000 C 
BRANCH  24  25
ATOM     25  C   UNL     1       0.695  10.889  19.702  0.00  0.00    +0.000 A 
ATOM     26  C   UNL     1       0.661  10.000  20.792  0.00  0.00    +0.000 A 
ATOM     27  C   UNL     1      -0.187  10.226  21.881  0.00  0.00    +0.000 A 
ATOM     28  C   UNL     1      -1.013  11.346  21.895  0.00  0.00    +0.000 A 
ATOM     29 CL   UNL     1      -2.081  11.608  23.217  0.00  0.00    +0.000 Cl
ATOM     30  C   UNL     1      -0.990  12.248  20.837  0.00  0.00    +0.000 A 
ATOM     31  C   UNL     1      -0.144  12.021  19.747  0.00  0.00    +0.000 A 
ATOM     32 CL   UNL     1      -0.209  13.178  18.463  0.00  0.00    +0.000 Cl
ENDBRANCH  24  25
ENDBRANCH  22  24
ENDBRANCH  21  22
ENDBRANCH  18  21
ENDBRANCH   1  18
TORSDOF 8
ENDMDL
MODEL 3
REMARK VINA RESULT:      -8.1      5.716      8.714
REMARK  Name = 
REMARK  8 active torsions:
REMARK  status: ('A' for Active; 'I' for Inactive)
REMARK    1  A    between atoms: O_1  and  C_2
REMARK    2  A    between atoms: C_2  and  C_3
REMARK    3  A    between atoms: C_2  and  C_14
REMARK    4  A    between atoms: C_3  and  N_4
REMARK    5  A    between atoms: N_4  and  C_5
REMARK    6  A    between atoms: C_5  and  C_6
REMARK    7  A    between atoms: C_14  and  N_15
REMARK    8  A    between atoms: C_16  and  C_17
REMARK                            x       y       z     vdW  Elec       q    Type
REMARK                         _______ _______ _______ _____ _____    ______ ____
ROOT
ATOM      1  C   UNL     1       5.564   6.930  17.014  0.00  0.00    +0.000 C 
ENDROOT
BRANCH   1   2
ATOM      2  N   UNL     1       4.782   5.696  17.046  0.00  0.00    +0.000 N 
ATOM      3  C   UNL     1       4.806   4.632  16.144  0.00  0.00    +0.000 A 
ATOM      4  C   UNL     1       3.860   3.722  16.607  0.00  0.00    +0.000 A 
ATOM      5  C   UNL     1       3.285   4.195  17.806  0.00  0.00    +0.000 A 
ATOM      6  C   UNL     1       2.306   3.684  18.682  0.00  0.00    +0.000 A 
ATOM      7  C   UNL     1       1.969   4.399  19.834  0.00  0.00    +0.000 A 
ATOM      8  C   UNL     1       2.584   5.615  20.110  0.00  0.00    +0.000 A 
ATOM      9  C   UNL     1       3.537   6.152  19.237  0.00  0.00    +0.000 A 
ATOM     10  C   UNL     1       3.884   5.423  18.086  0.00  0.00    +0.000 A 
BRANCH   3  11
ATOM     11  C   UNL     1       5.605   4.490  14.905  0.00  0.00    +0.000 A 
ATOM     12  C   UNL     1       6.902   4.997  14.759  0.00  0.00    +0.000 A 
ATOM     13  C   UNL     1       7.601   4.867  13.554  0.00  0.00    +0.000 A 
ATOM     14  C   UNL     1       7.035   4.165  12.501  0.00  0.00    +0.000 A 
ATOM     15  F   UNL     1       7.710   4.037  11.352  0.00  0.00    +0.000 F 
ATOM     16  C   UNL     1       5.785   3.582  12.635  0.00  0.00    +0.000 A 
ATOM     17  C   UNL     1       5.074   3.753  13.826  0.00  0.00    +0.000 A 
ENDBRANCH   3  11
ENDBRANCH   1   2
BRANCH   1  18
ATOM     18  C   UNL     1       6.741   6.989  17.996  0.00  0.00    +0.000 C 
BRANCH  18  19
ATOM     19  O   UNL     1       7.325   5.680  18.111  0.00  0.00    +0.000 OA
ATOM     20  H   UNL     1       8.169   5.762  18.587  0.00  0.00    +0.000 HD
ENDBRANCH  18  19
BRANCH  18  21
ATOM     21  C   UNL     1       7.863   7.923  17.480  0.00  0.00    +0.000 C 
BRANCH  21  22
ATOM     22  N   UNL     1       7.850   9.327  17.932  0.00  0.00    +0.000 NA
ATOM     23  H   UNL     1       6.953   9.532  18.372  0.00  0.00    +0.000 HD
BRANCH  22  24
ATOM     24  C   UNL     1       8.905   9.477  18.958  0.00  0.00    +0.000 C 
BRANCH  24  25
ATOM     25  C   UNL     1       9.613  10.814  18.944  0.00  0.00    +0.000 A 
ATOM     26  C   UNL     1      10.323  11.199  17.792  0.00  0.00    +0.000 A 
ATOM     27  C   UNL     1      11.110  12.355  17.782  0.00  0.00    +0.000 A 
ATOM     28  C   UNL     1      11.197  13.144  18.925  0.00  0.00    +0.000 A 
ATOM     29 CL   UNL     1      12.191  14.548  18.926  0.00  0.00    +0.000 Cl
ATOM     30  C   UNL     1      10.496  12.795  20.074  0.00  0.00    +0.000 A 
ATOM     31  C   UNL     1       9.710  11.637  20.085  0.00  0.00    +0.000 A 
ATOM     32 CL   UNL     1       8.902  11.264  21.568  0.00  0.00    +0.000 Cl
ENDBRANCH  24  25
ENDBRANCH  22  24
ENDBRANCH  21  22
ENDBRANCH  18  21
ENDBRANCH   1  18
TORSDOF 8
ENDMDL
MODEL 4
REMARK VINA RESULT:      -8.0      2.402      4.819
REMARK  Name = 
REMARK  8 active torsions:
REMARK  status: ('A' for Active; 'I' for Inactive)
REMARK    1  A    between atoms: O_1  and  C_2
REMARK    2  A    between atoms: C_2  and  C_3
REMARK    3  A    between atoms: C_2  and  C_14
REMARK    4  A    between atoms: C_3  and  N_4
REMARK    5  A    between atoms: N_4  and  C_5
REMARK    6  A    between atoms: C_5  and  C_6
REMARK    7  A    between atoms: C_14  and  N_15
REMARK    8  A    between atoms: C_16  and  C_17
REMARK                            x       y       z     vdW  Elec       q    Type
REMARK                         _______ _______ _______ _____ _____    ______ ____
ROOT
ATOM      1  C   UNL     1       2.531   5.799  17.802  0.00  0.00    +0.000 C 
ENDROOT
BRANCH   1   2
ATOM      2  N   UNL     1       3.207   4.691  18.475  0.00  0.00    +0.000 N 
ATOM      3  C   UNL     1       4.426   4.095  18.150  0.00  0.00    +0.000 A 
ATOM      4  C   UNL     1       4.606   3.074  19.079  0.00  0.00    +0.000 A 
ATOM      5  C   UNL     1       3.534   3.063  19.996  0.00  0.00    +0.000 A 
ATOM      6  C   UNL     1       3.220   2.266  21.116  0.00  0.00    +0.000 A 
ATOM      7  C   UNL     1       2.066   2.536  21.854  0.00  0.00    +0.000 A 
ATOM      8  C   UNL     1       1.222   3.576  21.482  0.00  0.00    +0.000 A 
ATOM      9  C   UNL     1       1.502   4.360  20.357  0.00  0.00    +0.000 A 
ATOM     10  C   UNL     1       2.671   4.094  19.624  0.00  0.00    +0.000 A 
BRANCH   3  11
ATOM     11  C   UNL     1       5.334   4.406  17.023  0.00  0.00    +0.000 A 
ATOM     12  C   UNL     1       6.524   5.130  17.166  0.00  0.00    +0.000 A 
ATOM     13  C   UNL     1       7.330   5.428  16.062  0.00  0.00    +0.000 A 
ATOM     14  C   UNL     1       6.988   4.944  14.808  0.00  0.00    +0.000 A 
ATOM     15  F   UNL     1       7.766   5.225  13.755  0.00  0.00    +0.000 F 
ATOM     16  C   UNL     1       5.859   4.159  14.641  0.00  0.00    +0.000 A 
ATOM     17  C   UNL     1       5.035   3.901  15.741  0.00  0.00    +0.000 A 
ENDBRANCH   3  11
ENDBRANCH   1   2
BRANCH   1  18
ATOM     18  C   UNL     1       2.939   7.201  18.270  0.00  0.00    +0.000 C 
BRANCH  18  19
ATOM     19  O   UNL     1       4.101   7.623  17.535  0.00  0.00    +0.000 OA
ATOM     20  H   UNL     1       3.966   7.404  16.597  0.00  0.00    +0.000 HD
ENDBRANCH  18  19
BRANCH  18  21
ATOM     21  C   UNL     1       1.833   8.242  17.972  0.00  0.00    +0.000 C 
BRANCH  21  22
ATOM     22  N   UNL     1       1.415   9.133  19.070  0.00  0.00    +0.000 NA
ATOM     23  H   UNL     1       2.213   9.315  19.680  0.00  0.00    +0.000 HD
BRANCH  22  24
ATOM     24  C   UNL     1       0.998  10.419  18.470  0.00  0.00    +0.000 C 
BRANCH  24  25
ATOM     25  C   UNL     1      -0.494  10.672  18.492  0.00  0.00    +0.000 A 
ATOM     26  C   UNL     1      -1.314   9.992  17.572  0.00  0.00    +0.000 A 
ATOM     27  C   UNL     1      -2.674  10.298  17.456  0.00  0.00    +0.000 A 
ATOM     28  C   UNL     1      -3.233  11.287  18.260  0.00  0.00    +0.000 A 
ATOM     29 CL   UNL     1      -4.897  11.688  18.095  0.00  0.00    +0.000 Cl
ATOM     30  C   UNL     1      -2.449  11.966  19.186  0.00  0.00    +0.000 A 
ATOM     31  C   UNL     1      -1.087  11.662  19.300  0.00  0.00    +0.000 A 
ATOM     32 CL   UNL     1      -0.184  12.580  20.455  0.00  0.00    +0.000 Cl
ENDBRANCH  24  25
ENDBRANCH  22  24
ENDBRANCH  21  22
ENDBRANCH  18  21
ENDBRANCH   1  18
TORSDOF 8
ENDMDL
MODEL 5
REMARK VINA RESULT:      -7.8      2.841      5.241
REMARK  Name = 
REMARK  8 active torsions:
REMARK  status: ('A' for Active; 'I' for Inactive)
REMARK    1  A    between atoms: O_1  and  C_2
REMARK    2  A    between atoms: C_2  and  C_3
REMARK    3  A    between atoms: C_2  and  C_14
REMARK    4  A    between atoms: C_3  and  N_4
REMARK    5  A    between atoms: N_4  and  C_5
REMARK    6  A    between atoms: C_5  and  C_6
REMARK    7  A    between atoms: C_14  and  N_15
REMARK    8  A    between atoms: C_16  and  C_17
REMARK                            x       y       z     vdW  Elec       q    Type
REMARK                         _______ _______ _______ _____ _____    ______ ____
ROOT
ATOM      1  C   UNL     1       2.461   5.797  17.759  0.00  0.00    +0.000 C 
ENDROOT
BRANCH   1   2
ATOM      2  N   UNL     1       3.145   4.682  18.412  0.00  0.00    +0.000 N 
ATOM      3  C   UNL     1       4.349   4.075  18.053  0.00  0.00    +0.000 A 
ATOM      4  C   UNL     1       4.544   3.051  18.975  0.00  0.00    +0.000 A 
ATOM      5  C   UNL     1       3.498   3.048  19.921  0.00  0.00    +0.000 A 
ATOM      6  C   UNL     1       3.208   2.252  21.048  0.00  0.00    +0.000 A 
ATOM      7  C   UNL     1       2.077   2.532  21.818  0.00  0.00    +0.000 A 
ATOM      8  C   UNL     1       1.233   3.581  21.471  0.00  0.00    +0.000 A 
ATOM      9  C   UNL     1       1.489   4.364  20.340  0.00  0.00    +0.000 A 
ATOM     10  C   UNL     1       2.636   4.088  19.574  0.00  0.00    +0.000 A 
BRANCH   3  11
ATOM     11  C   UNL     1       5.229   4.380  16.901  0.00  0.00    +0.000 A 
ATOM     12  C   UNL     1       4.855   4.175  15.568  0.00  0.00    +0.000 A 
ATOM     13  C   UNL     1       5.739   4.446  14.517  0.00  0.00    +0.000 A 
ATOM     14  C   UNL     1       6.984   4.993  14.786  0.00  0.00    +0.000 A 
ATOM     15  F   UNL     1       7.823   5.258  13.777  0.00  0.00    +0.000 F 
ATOM     16  C   UNL     1       7.358   5.282  16.089  0.00  0.00    +0.000 A 
ATOM     17  C   UNL     1       6.489   4.968  17.137  0.00  0.00    +0.000 A 
ENDBRANCH   3  11
ENDBRANCH   1   2
BRANCH   1  18
ATOM     18  C   UNL     1       2.908   7.195  18.205  0.00  0.00    +0.000 C 
BRANCH  18  19
ATOM     19  O   UNL     1       4.069   7.582  17.448  0.00  0.00    +0.000 OA
ATOM     20  H   UNL     1       4.695   8.018  18.051  0.00  0.00    +0.000 HD
ENDBRANCH  18  19
BRANCH  18  21
ATOM     21  C   UNL     1       1.822   8.258  17.911  0.00  0.00    +0.000 C 
BRANCH  21  22
ATOM     22  N   UNL     1       1.759   9.438  18.793  0.00  0.00    +0.000 NA
ATOM     23  H   UNL     1       1.225  10.176  18.333  0.00  0.00    +0.000 HD
BRANCH  22  24
ATOM     24  C   UNL     1       1.030   9.044  20.019  0.00  0.00    +0.000 C 
BRANCH  24  25
ATOM     25  C   UNL     1       0.002  10.048  20.491  0.00  0.00    +0.000 A 
ATOM     26  C   UNL     1      -0.636  10.870  19.543  0.00  0.00    +0.000 A 
ATOM     27  C   UNL     1      -1.483  11.908  19.943  0.00  0.00    +0.000 A 
ATOM     28  C   UNL     1      -1.707  12.138  21.297  0.00  0.00    +0.000 A 
ATOM     29 CL   UNL     1      -2.722  13.435  21.791  0.00  0.00    +0.000 Cl
ATOM     30  C   UNL     1      -1.101  11.333  22.255  0.00  0.00    +0.000 A 
ATOM     31  C   UNL     1      -0.251  10.296  21.856  0.00  0.00    +0.000 A 
ATOM     32 CL   UNL     1       0.485   9.369  23.118  0.00  0.00    +0.000 Cl
ENDBRANCH  24  25
ENDBRANCH  22  24
ENDBRANCH  21  22
ENDBRANCH  18  21
ENDBRANCH   1  18
TORSDOF 8
ENDMDL
MODEL 6
REMARK VINA RESULT:      -7.8      1.368      1.830
REMARK  Name = 
REMARK  8 active torsions:
REMARK  status: ('A' for Active; 'I' for Inactive)
REMARK    1  A    between atoms: O_1  and  C_2
REMARK    2  A    between atoms: C_2  and  C_3
REMARK    3  A    between atoms: C_2  and  C_14
REMARK    4  A    between atoms: C_3  and  N_4
REMARK    5  A    between atoms: N_4  and  C_5
REMARK    6  A    between atoms: C_5  and  C_6
REMARK    7  A    between atoms: C_14  and  N_15
REMARK    8  A    between atoms: C_16  and  C_17
REMARK                            x       y       z     vdW  Elec       q    Type
REMARK                         _______ _______ _______ _____ _____    ______ ____
ROOT
ATOM      1  C   UNL     1       4.014   6.474  18.646  0.00  0.00    +0.000 C 
ENDROOT
BRANCH   1   2
ATOM      2  N   UNL     1       4.221   5.229  17.909  0.00  0.00    +0.000 N 
ATOM      3  C   UNL     1       3.717   3.959  18.196  0.00  0.00    +0.000 A 
ATOM      4  C   UNL     1       4.228   3.120  17.211  0.00  0.00    +0.000 A 
ATOM      5  C   UNL     1       5.005   3.864  16.299  0.00  0.00    +0.000 A 
ATOM      6  C   UNL     1       5.729   3.527  15.136  0.00  0.00    +0.000 A 
ATOM      7  C   UNL     1       6.387   4.529  14.418  0.00  0.00    +0.000 A 
ATOM      8  C   UNL     1       6.340   5.849  14.851  0.00  0.00    +0.000 A 
ATOM      9  C   UNL     1       5.649   6.198  16.017  0.00  0.00    +0.000 A 
ATOM     10  C   UNL     1       4.978   5.190  16.730  0.00  0.00    +0.000 A 
BRANCH   3  11
ATOM     11  C   UNL     1       2.871   3.538  19.336  0.00  0.00    +0.000 A 
ATOM     12  C   UNL     1       1.483   3.720  19.377  0.00  0.00    +0.000 A 
ATOM     13  C   UNL     1       0.734   3.335  20.494  0.00  0.00    +0.000 A 
ATOM     14  C   UNL     1       1.357   2.700  21.557  0.00  0.00    +0.000 A 
ATOM     15  F   UNL     1       0.635   2.327  22.622  0.00  0.00    +0.000 F 
ATOM     16  C   UNL     1       2.716   2.433  21.519  0.00  0.00    +0.000 A 
ATOM     17  C   UNL     1       3.467   2.859  20.418  0.00  0.00    +0.000 A 
ENDBRANCH   3  11
ENDBRANCH   1   2
BRANCH   1  18
ATOM     18  C   UNL     1       2.673   7.174  18.392  0.00  0.00    +0.000 C 
BRANCH  18  19
ATOM     19  O   UNL     1       2.074   7.517  19.654  0.00  0.00    +0.000 OA
ATOM     20  H   UNL     1       2.784   7.629  20.309  0.00  0.00    +0.000 HD
ENDBRANCH  18  19
BRANCH  18  21
ATOM     21  C   UNL     1       2.865   8.505  17.624  0.00  0.00    +0.000 C 
BRANCH  21  22
ATOM     22  N   UNL     1       1.691   9.384  17.471  0.00  0.00    +0.000 NA
ATOM     23  H   UNL     1       0.905   8.992  17.991  0.00  0.00    +0.000 HD
BRANCH  22  24
ATOM     24  C   UNL     1       2.028  10.692  18.074  0.00  0.00    +0.000 C 
BRANCH  24  25
ATOM     25  C   UNL     1       0.880  11.375  18.783  0.00  0.00    +0.000 A 
ATOM     26  C   UNL     1      -0.188  10.594  19.262  0.00  0.00    +0.000 A 
ATOM     27  C   UNL     1      -1.336  11.191  19.793  0.00  0.00    +0.000 A 
ATOM     28  C   UNL     1      -1.431  12.578  19.855  0.00  0.00    +0.000 A 
ATOM     29 CL   UNL     1      -2.856  13.314  20.477  0.00  0.00    +0.000 Cl
ATOM     30  C   UNL     1      -0.385  13.374  19.401  0.00  0.00    +0.000 A 
ATOM     31  C   UNL     1       0.762  12.777  18.867  0.00  0.00    +0.000 A 
ATOM     32 CL   UNL     1       1.996  13.847  18.296  0.00  0.00    +0.000 Cl
ENDBRANCH  24  25
ENDBRANCH  22  24
ENDBRANCH  21  22
ENDBRANCH  18  21
ENDBRANCH   1  18
TORSDOF 8
ENDMDL
MODEL 7
REMARK VINA RESULT:      -7.8      2.758      5.285
REMARK  Name = 
REMARK  8 active torsions:
REMARK  status: ('A' for Active; 'I' for Inactive)
REMARK    1  A    between atoms: O_1  and  C_2
REMARK    2  A    between atoms: C_2  and  C_3
REMARK    3  A    between atoms: C_2  and  C_14
REMARK    4  A    between atoms: C_3  and  N_4
REMARK    5  A    between atoms: N_4  and  C_5
REMARK    6  A    between atoms: C_5  and  C_6
REMARK    7  A    between atoms: C_14  and  N_15
REMARK    8  A    between atoms: C_16  and  C_17
REMARK                            x       y       z     vdW  Elec       q    Type
REMARK                         _______ _______ _______ _____ _____    ______ ____
ROOT
ATOM      1  C   UNL     1       2.481   5.707  17.739  0.00  0.00    +0.000 C 
ENDROOT
BRANCH   1   2
ATOM      2  N   UNL     1       3.172   4.602  18.400  0.00  0.00    +0.000 N 
ATOM      3  C   UNL     1       4.380   3.999  18.046  0.00  0.00    +0.000 A 
ATOM      4  C   UNL     1       4.582   2.984  18.975  0.00  0.00    +0.000 A 
ATOM      5  C   UNL     1       3.536   2.981  19.921  0.00  0.00    +0.000 A 
ATOM      6  C   UNL     1       3.251   2.192  21.054  0.00  0.00    +0.000 A 
ATOM      7  C   UNL     1       2.117   2.470  21.822  0.00  0.00    +0.000 A 
ATOM      8  C   UNL     1       1.267   3.510  21.466  0.00  0.00    +0.000 A 
ATOM      9  C   UNL     1       1.518   4.287  20.330  0.00  0.00    +0.000 A 
ATOM     10  C   UNL     1       2.666   4.013  19.566  0.00  0.00    +0.000 A 
BRANCH   3  11
ATOM     11  C   UNL     1       5.258   4.301  16.892  0.00  0.00    +0.000 A 
ATOM     12  C   UNL     1       4.860   4.155  15.558  0.00  0.00    +0.000 A 
ATOM     13  C   UNL     1       5.741   4.420  14.504  0.00  0.00    +0.000 A 
ATOM     14  C   UNL     1       7.012   4.903  14.772  0.00  0.00    +0.000 A 
ATOM     15  F   UNL     1       7.850   5.163  13.761  0.00  0.00    +0.000 F 
ATOM     16  C   UNL     1       7.415   5.135  16.078  0.00  0.00    +0.000 A 
ATOM     17  C   UNL     1       6.546   4.826  17.128  0.00  0.00    +0.000 A 
ENDBRANCH   3  11
ENDBRANCH   1   2
BRANCH   1  18
ATOM     18  C   UNL     1       2.926   7.111  18.167  0.00  0.00    +0.000 C 
BRANCH  18  19
ATOM     19  O   UNL     1       4.171   7.428  17.522  0.00  0.00    +0.000 OA
ATOM     20  H   UNL     1       4.766   6.664  17.613  0.00  0.00    +0.000 HD
ENDBRANCH  18  19
BRANCH  18  21
ATOM     21  C   UNL     1       1.912   8.189  17.713  0.00  0.00    +0.000 C 
BRANCH  21  22
ATOM     22  N   UNL     1       1.941   9.493  18.402  0.00  0.00    +0.000 NA
ATOM     23  H   UNL     1       2.597  10.113  17.924  0.00  0.00    +0.000 HD
BRANCH  22  24
ATOM     24  C   UNL     1       0.591  10.089  18.293  0.00  0.00    +0.000 C 
BRANCH  24  25
ATOM     25  C   UNL     1       0.045  10.654  19.585  0.00  0.00    +0.000 A 
ATOM     26  C   UNL     1       0.144   9.889  20.762  0.00  0.00    +0.000 A 
ATOM     27  C   UNL     1      -0.472  10.304  21.947  0.00  0.00    +0.000 A 
ATOM     28  C   UNL     1      -1.195  11.492  21.972  0.00  0.00    +0.000 A 
ATOM     29 CL   UNL     1      -1.981  11.988  23.419  0.00  0.00    +0.000 Cl
ATOM     30  C   UNL     1      -1.299  12.276  20.828  0.00  0.00    +0.000 A 
ATOM     31  C   UNL     1      -0.685  11.859  19.642  0.00  0.00    +0.000 A 
ATOM     32 CL   UNL     1      -0.896  12.880  18.261  0.00  0.00    +0.000 Cl
ENDBRANCH  24  25
ENDBRANCH  22  24
ENDBRANCH  21  22
ENDBRANCH  18  21
ENDBRANCH   1  18
TORSDOF 8
ENDMDL
MODEL 8
REMARK VINA RESULT:      -7.8      2.676      5.171
REMARK  Name = 
REMARK  8 active torsions:
REMARK  status: ('A' for Active; 'I' for Inactive)
REMARK    1  A    between atoms: O_1  and  C_2
REMARK    2  A    between atoms: C_2  and  C_3
REMARK    3  A    between atoms: C_2  and  C_14
REMARK    4  A    between atoms: C_3  and  N_4
REMARK    5  A    between atoms: N_4  and  C_5
REMARK    6  A    between atoms: C_5  and  C_6
REMARK    7  A    between atoms: C_14  and  N_15
REMARK    8  A    between atoms: C_16  and  C_17
REMARK                            x       y       z     vdW  Elec       q    Type
REMARK                         _______ _______ _______ _____ _____    ______ ____
ROOT
ATOM      1  C   UNL     1       2.465   5.782  17.722  0.00  0.00    +0.000 C 
ENDROOT
BRANCH   1   2
ATOM      2  N   UNL     1       3.151   4.672  18.382  0.00  0.00    +0.000 N 
ATOM      3  C   UNL     1       4.355   4.065  18.027  0.00  0.00    +0.000 A 
ATOM      4  C   UNL     1       4.553   3.047  18.954  0.00  0.00    +0.000 A 
ATOM      5  C   UNL     1       3.506   3.048  19.900  0.00  0.00    +0.000 A 
ATOM      6  C   UNL     1       3.216   2.258  21.031  0.00  0.00    +0.000 A 
ATOM      7  C   UNL     1       2.084   2.540  21.799  0.00  0.00    +0.000 A 
ATOM      8  C   UNL     1       1.239   3.585  21.445  0.00  0.00    +0.000 A 
ATOM      9  C   UNL     1       1.494   4.362  20.310  0.00  0.00    +0.000 A 
ATOM     10  C   UNL     1       2.641   4.084  19.547  0.00  0.00    +0.000 A 
BRANCH   3  11
ATOM     11  C   UNL     1       5.236   4.365  16.874  0.00  0.00    +0.000 A 
ATOM     12  C   UNL     1       4.867   4.144  15.542  0.00  0.00    +0.000 A 
ATOM     13  C   UNL     1       5.750   4.411  14.490  0.00  0.00    +0.000 A 
ATOM     14  C   UNL     1       6.991   4.970  14.756  0.00  0.00    +0.000 A 
ATOM     15  F   UNL     1       7.830   5.232  13.747  0.00  0.00    +0.000 F 
ATOM     16  C   UNL     1       7.360   5.275  16.057  0.00  0.00    +0.000 A 
ATOM     17  C   UNL     1       6.491   4.965  17.107  0.00  0.00    +0.000 A 
ENDBRANCH   3  11
ENDBRANCH   1   2
BRANCH   1  18
ATOM     18  C   UNL     1       2.912   7.183  18.157  0.00  0.00    +0.000 C 
BRANCH  18  19
ATOM     19  O   UNL     1       4.102   7.544  17.434  0.00  0.00    +0.000 OA
ATOM     20  H   UNL     1       4.044   8.486  17.200  0.00  0.00    +0.000 HD
ENDBRANCH  18  19
BRANCH  18  21
ATOM     21  C   UNL     1       1.848   8.252  17.806  0.00  0.00    +0.000 C 
BRANCH  21  22
ATOM     22  N   UNL     1       1.801   9.472  18.634  0.00  0.00    +0.000 NA
ATOM     23  H   UNL     1       1.542  10.267  18.048  0.00  0.00    +0.000 HD
BRANCH  22  24
ATOM     24  C   UNL     1       0.737   9.286  19.646  0.00  0.00    +0.000 C 
BRANCH  24  25
ATOM     25  C   UNL     1      -0.178  10.478  19.825  0.00  0.00    +0.000 A 
ATOM     26  C   UNL     1      -0.098  11.228  21.012  0.00  0.00    +0.000 A 
ATOM     27  C   UNL     1      -1.018  12.245  21.286  0.00  0.00    +0.000 A 
ATOM     28  C   UNL     1      -2.030  12.528  20.373  0.00  0.00    +0.000 A 
ATOM     29 CL   UNL     1      -3.182  13.756  20.723  0.00  0.00    +0.000 Cl
ATOM     30  C   UNL     1      -2.125  11.812  19.185  0.00  0.00    +0.000 A 
ATOM     31  C   UNL     1      -1.206  10.792  18.913  0.00  0.00    +0.000 A 
ATOM     32 CL   UNL     1      -1.423   9.933  17.427  0.00  0.00    +0.000 Cl
ENDBRANCH  24  25
ENDBRANCH  22  24
ENDBRANCH  21  22
ENDBRANCH  18  21
ENDBRANCH   1  18
TORSDOF 8
ENDMDL
MODEL 9
REMARK VINA RESULT:      -7.7      5.386      7.505
REMARK  Name = 
REMARK  8 active torsions:
REMARK  status: ('A' for Active; 'I' for Inactive)
REMARK    1  A    between atoms: O_1  and  C_2
REMARK    2  A    between atoms: C_2  and  C_3
REMARK    3  A    between atoms: C_2  and  C_14
REMARK    4  A    between atoms: C_3  and  N_4
REMARK    5  A    between atoms: N_4  and  C_5
REMARK    6  A    between atoms: C_5  and  C_6
REMARK    7  A    between atoms: C_14  and  N_15
REMARK    8  A    between atoms: C_16  and  C_17
REMARK                            x       y       z     vdW  Elec       q    Type
REMARK                         _______ _______ _______ _____ _____    ______ ____
ROOT
ATOM      1  C   UNL     1       7.038   5.721  17.697  0.00  0.00    +0.000 C 
ENDROOT
BRANCH   1   2
ATOM      2  N   UNL     1       6.177   4.979  16.777  0.00  0.00    +0.000 N 
ATOM      3  C   UNL     1       4.944   4.381  17.037  0.00  0.00    +0.000 A 
ATOM      4  C   UNL     1       4.555   3.782  15.843  0.00  0.00    +0.000 A 
ATOM      5  C   UNL     1       5.513   4.041  14.840  0.00  0.00    +0.000 A 
ATOM      6  C   UNL     1       5.615   3.689  13.478  0.00  0.00    +0.000 A 
ATOM      7  C   UNL     1       6.706   4.139  12.729  0.00  0.00    +0.000 A 
ATOM      8  C   UNL     1       7.692   4.918  13.323  0.00  0.00    +0.000 A 
ATOM      9  C   UNL     1       7.622   5.253  14.680  0.00  0.00    +0.000 A 
ATOM     10  C   UNL     1       6.517   4.810  15.428  0.00  0.00    +0.000 A 
BRANCH   3  11
ATOM     11  C   UNL     1       4.202   4.315  18.318  0.00  0.00    +0.000 A 
ATOM     12  C   UNL     1       3.498   5.397  18.860  0.00  0.00    +0.000 A 
ATOM     13  C   UNL     1       2.843   5.292  20.092  0.00  0.00    +0.000 A 
ATOM     14  C   UNL     1       2.826   4.079  20.763  0.00  0.00    +0.000 A 
ATOM     15  F   UNL     1       2.191   3.981  21.938  0.00  0.00    +0.000 F 
ATOM     16  C   UNL     1       3.445   2.965  20.219  0.00  0.00    +0.000 A 
ATOM     17  C   UNL     1       4.136   3.088  19.009  0.00  0.00    +0.000 A 
ENDBRANCH   3  11
ENDBRANCH   1   2
BRANCH   1  18
ATOM     18  C   UNL     1       7.455   7.119  17.224  0.00  0.00    +0.000 C 
BRANCH  18  19
ATOM     19  O   UNL     1       6.277   7.883  16.914  0.00  0.00    +0.000 OA
ATOM     20  H   UNL     1       5.777   7.409  16.226  0.00  0.00    +0.000 HD
ENDBRANCH  18  19
BRANCH  18  21
ATOM     21  C   UNL     1       8.197   7.895  18.339  0.00  0.00    +0.000 C 
BRANCH  21  22
ATOM     22  N   UNL     1       8.342   9.354  18.180  0.00  0.00    +0.000 NA
ATOM     23  H   UNL     1       7.428   9.797  18.278  0.00  0.00    +0.000 HD
BRANCH  22  24
ATOM     24  C   UNL     1       9.205   9.842  19.278  0.00  0.00    +0.000 C 
BRANCH  24  25
ATOM     25  C   UNL     1       9.871  11.175  19.013  0.00  0.00    +0.000 A 
ATOM     26  C   UNL     1      10.474  11.400  17.762  0.00  0.00    +0.000 A 
ATOM     27  C   UNL     1      11.225  12.555  17.521  0.00  0.00    +0.000 A 
ATOM     28  C   UNL     1      11.381  13.502  18.528  0.00  0.00    +0.000 A 
ATOM     29 CL   UNL     1      12.331  14.908  18.244  0.00  0.00    +0.000 Cl
ATOM     30  C   UNL     1      10.784  13.313  19.770  0.00  0.00    +0.000 A 
ATOM     31  C   UNL     1      10.036  12.155  20.012  0.00  0.00    +0.000 A 
ATOM     32 CL   UNL     1       9.360  11.989  21.596  0.00  0.00    +0.000 Cl
ENDBRANCH  24  25
ENDBRANCH  22  24
ENDBRANCH  21  22
ENDBRANCH  18  21
ENDBRANCH   1  18
TORSDOF 8
ENDMDL
