MODEL 1
REMARK VINA RESULT:      -5.7      0.000      0.000
REMARK  Name = 
REMARK  5 active torsions:
REMARK  status: ('A' for Active; 'I' for Inactive)
REMARK    1  A    between atoms: C_1  and  C_2
REMARK    2  A    between atoms: C_5  and  O_6
REMARK    3  A    between atoms: O_6  and  C_7
REMARK    4  A    between atoms: N_9  and  C_10
REMARK    5  A    between atoms: N_9  and  C_11
REMARK                            x       y       z     vdW  Elec       q    Type
REMARK                         _______ _______ _______ _____ _____    ______ ____
ROOT
ATOM      1  C   UNL     1       0.828   3.646  20.314  0.00  0.00    +0.000 C 
ATOM      2  C   UNL     1       2.253   3.802  19.873  0.00  0.00    +0.000 A 
ATOM      3  C   UNL     1       2.751   5.038  19.445  0.00  0.00    +0.000 A 
ATOM      4  C   UNL     1       4.085   5.164  19.045  0.00  0.00    +0.000 A 
ATOM      5  C   UNL     1       4.927   4.052  19.079  0.00  0.00    +0.000 A 
ATOM      6  C   UNL     1       4.436   2.810  19.474  0.00  0.00    +0.000 A 
ATOM      7  C   UNL     1       3.106   2.689  19.882  0.00  0.00    +0.000 A 
ENDROOT
BRANCH   5   8
ATOM      8  O   UNL     1       6.253   4.257  18.634  0.00  0.00    +0.000 OA
BRANCH   8   9
ATOM      9  C   UNL     1       7.017   5.355  19.046  0.00  0.00    +0.000 C 
ATOM     10  O   UNL     1       7.408   5.529  20.196  0.00  0.00    +0.000 OA
ATOM     11  N   UNL     1       7.295   6.243  18.014  0.00  0.00    +0.000 N 
ATOM     12  C   UNL     1       6.775   6.110  16.664  0.00  0.00    +0.000 C 
ATOM     13  C   UNL     1       8.116   7.410  18.283  0.00  0.00    +0.000 C 
ENDBRANCH   8   9
ENDBRANCH   5   8
TORSDOF 2
ENDMDL
MODEL 2
REMARK VINA RESULT:      -5.6      1.970      2.603
REMARK  Name = 
REMARK  5 active torsions:
REMARK  status: ('A' for Active; 'I' for Inactive)
REMARK    1  A    between atoms: C_1  and  C_2
REMARK    2  A    between atoms: C_5  and  O_6
REMARK    3  A    between atoms: O_6  and  C_7
REMARK    4  A    between atoms: N_9  and  C_10
REMARK    5  A    between atoms: N_9  and  C_11
REMARK                            x       y       z     vdW  Elec       q    Type
REMARK                         _______ _______ _______ _____ _____    ______ ____
ROOT
ATOM      1  C   UNL     1       0.830   3.137  19.994  0.00  0.00    +0.000 C 
ATOM      2  C   UNL     1       1.914   3.524  19.032  0.00  0.00    +0.000 A 
ATOM      3  C   UNL     1       2.776   2.567  18.484  0.00  0.00    +0.000 A 
ATOM      4  C   UNL     1       3.775   2.948  17.582  0.00  0.00    +0.000 A 
ATOM      5  C   UNL     1       3.909   4.289  17.221  0.00  0.00    +0.000 A 
ATOM      6  C   UNL     1       3.077   5.255  17.783  0.00  0.00    +0.000 A 
ATOM      7  C   UNL     1       2.074   4.870  18.676  0.00  0.00    +0.000 A 
ENDROOT
BRANCH   5   8
ATOM      8  O   UNL     1       4.959   4.594  16.327  0.00  0.00    +0.000 OA
BRANCH   8   9
ATOM      9  C   UNL     1       5.595   5.841  16.318  0.00  0.00    +0.000 C 
ATOM     10  O   UNL     1       5.217   6.802  15.654  0.00  0.00    +0.000 OA
ATOM     11  N   UNL     1       6.711   5.889  17.145  0.00  0.00    +0.000 N 
ATOM     12  C   UNL     1       7.232   4.747  17.874  0.00  0.00    +0.000 C 
ATOM     13  C   UNL     1       7.448   7.133  17.271  0.00  0.00    +0.000 C 
ENDBRANCH   8   9
ENDBRANCH   5   8
TORSDOF 2
ENDMDL
MODEL 3
REMARK VINA RESULT:      -5.6      0.772      1.526
REMARK  Name = 
REMARK  5 active torsions:
REMARK  status: ('A' for Active; 'I' for Inactive)
REMARK    1  A    between atoms: C_1  and  C_2
REMARK    2  A    between atoms: C_5  and  O_6
REMARK    3  A    between atoms: O_6  and  C_7
REMARK    4  A    between atoms: N_9  and  C_10
REMARK    5  A    between atoms: N_9  and  C_11
REMARK                            x       y       z     vdW  Elec       q    Type
REMARK                         _______ _______ _______ _____ _____    ______ ____
ROOT
ATOM      1  C   UNL     1       1.316   2.854  21.704  0.00  0.00    +0.000 C 
ATOM      2  C   UNL     1       2.473   3.275  20.847  0.00  0.00    +0.000 A 
ATOM      3  C   UNL     1       3.440   2.354  20.426  0.00  0.00    +0.000 A 
ATOM      4  C   UNL     1       4.506   2.766  19.620  0.00  0.00    +0.000 A 
ATOM      5  C   UNL     1       4.604   4.102  19.230  0.00  0.00    +0.000 A 
ATOM      6  C   UNL     1       3.667   5.034  19.667  0.00  0.00    +0.000 A 
ATOM      7  C   UNL     1       2.597   4.618  20.464  0.00  0.00    +0.000 A 
ENDROOT
BRANCH   5   8
ATOM      8  O   UNL     1       5.726   4.441  18.439  0.00  0.00    +0.000 OA
BRANCH   8   9
ATOM      9  C   UNL     1       6.666   5.395  18.847  0.00  0.00    +0.000 C 
ATOM     10  O   UNL     1       7.217   5.392  19.943  0.00  0.00    +0.000 OA
ATOM     11  N   UNL     1       6.918   6.359  17.879  0.00  0.00    +0.000 N 
ATOM     12  C   UNL     1       6.219   6.439  16.609  0.00  0.00    +0.000 C 
ATOM     13  C   UNL     1       7.905   7.391  18.145  0.00  0.00    +0.000 C 
ENDBRANCH   8   9
ENDBRANCH   5   8
TORSDOF 2
ENDMDL
MODEL 4
REMARK VINA RESULT:      -5.6      2.252      5.074
REMARK  Name = 
REMARK  5 active torsions:
REMARK  status: ('A' for Active; 'I' for Inactive)
REMARK    1  A    between atoms: C_1  and  C_2
REMARK    2  A    between atoms: C_5  and  O_6
REMARK    3  A    between atoms: O_6  and  C_7
REMARK    4  A    between atoms: N_9  and  C_10
REMARK    5  A    between atoms: N_9  and  C_11
REMARK                            x       y       z     vdW  Elec       q    Type
REMARK                         _______ _______ _______ _____ _____    ______ ____
ROOT
ATOM      1  C   UNL     1       7.848   8.196  17.536  0.00  0.00    +0.000 C 
ATOM      2  C   UNL     1       6.991   6.976  17.708  0.00  0.00    +0.000 A 
ATOM      3  C   UNL     1       5.686   6.928  17.204  0.00  0.00    +0.000 A 
ATOM      4  C   UNL     1       4.906   5.778  17.368  0.00  0.00    +0.000 A 
ATOM      5  C   UNL     1       5.435   4.670  18.032  0.00  0.00    +0.000 A 
ATOM      6  C   UNL     1       6.721   4.717  18.564  0.00  0.00    +0.000 A 
ATOM      7  C   UNL     1       7.501   5.863  18.390  0.00  0.00    +0.000 A 
ENDROOT
BRANCH   5   8
ATOM      8  O   UNL     1       4.574   3.560  18.178  0.00  0.00    +0.000 OA
BRANCH   8   9
ATOM      9  C   UNL     1       4.249   3.027  19.431  0.00  0.00    +0.000 C 
ATOM     10  O   UNL     1       5.012   2.345  20.108  0.00  0.00    +0.000 OA
ATOM     11  N   UNL     1       2.961   3.348  19.842  0.00  0.00    +0.000 N 
ATOM     12  C   UNL     1       2.006   4.078  19.027  0.00  0.00    +0.000 C 
ATOM     13  C   UNL     1       2.498   2.899  21.143  0.00  0.00    +0.000 C 
ENDBRANCH   8   9
ENDBRANCH   5   8
TORSDOF 2
ENDMDL
MODEL 5
REMARK VINA RESULT:      -5.6      0.969      1.521
REMARK  Name = 
REMARK  5 active torsions:
REMARK  status: ('A' for Active; 'I' for Inactive)
REMARK    1  A    between atoms: C_1  and  C_2
REMARK    2  A    between atoms: C_5  and  O_6
REMARK    3  A    between atoms: O_6  and  C_7
REMARK    4  A    between atoms: N_9  and  C_10
REMARK    5  A    between atoms: N_9  and  C_11
REMARK                            x       y       z     vdW  Elec       q    Type
REMARK                         _______ _______ _______ _____ _____    ______ ____
ROOT
ATOM      1  C   UNL     1       0.595   2.838  19.098  0.00  0.00    +0.000 C 
ATOM      2  C   UNL     1       2.046   3.148  18.876  0.00  0.00    +0.000 A 
ATOM      3  C   UNL     1       3.043   2.569  19.671  0.00  0.00    +0.000 A 
ATOM      4  C   UNL     1       4.391   2.864  19.442  0.00  0.00    +0.000 A 
ATOM      5  C   UNL     1       4.744   3.737  18.412  0.00  0.00    +0.000 A 
ATOM      6  C   UNL     1       3.761   4.342  17.634  0.00  0.00    +0.000 A 
ATOM      7  C   UNL     1       2.416   4.038  17.858  0.00  0.00    +0.000 A 
ENDROOT
BRANCH   5   8
ATOM      8  O   UNL     1       6.124   4.003  18.265  0.00  0.00    +0.000 OA
BRANCH   8   9
ATOM      9  C   UNL     1       6.709   5.189  18.727  0.00  0.00    +0.000 C 
ATOM     10  O   UNL     1       6.839   5.475  19.913  0.00  0.00    +0.000 OA
ATOM     11  N   UNL     1       7.133   6.022  17.699  0.00  0.00    +0.000 N 
ATOM     12  C   UNL     1       6.915   5.751  16.289  0.00  0.00    +0.000 C 
ATOM     13  C   UNL     1       7.799   7.271  18.027  0.00  0.00    +0.000 C 
ENDBRANCH   8   9
ENDBRANCH   5   8
TORSDOF 2
ENDMDL
MODEL 6
REMARK VINA RESULT:      -5.5      2.503      5.275
REMARK  Name = 
REMARK  5 active torsions:
REMARK  status: ('A' for Active; 'I' for Inactive)
REMARK    1  A    between atoms: C_1  and  C_2
REMARK    2  A    between atoms: C_5  and  O_6
REMARK    3  A    between atoms: O_6  and  C_7
REMARK    4  A    between atoms: N_9  and  C_10
REMARK    5  A    between atoms: N_9  and  C_11
REMARK                            x       y       z     vdW  Elec       q    Type
REMARK                         _______ _______ _______ _____ _____    ______ ____
ROOT
ATOM      1  C   UNL     1       7.021   4.645  14.336  0.00  0.00    +0.000 C 
ATOM      2  C   UNL     1       6.374   4.565  15.687  0.00  0.00    +0.000 A 
ATOM      3  C   UNL     1       7.123   4.703  16.861  0.00  0.00    +0.000 A 
ATOM      4  C   UNL     1       6.500   4.633  18.111  0.00  0.00    +0.000 A 
ATOM      5  C   UNL     1       5.121   4.431  18.188  0.00  0.00    +0.000 A 
ATOM      6  C   UNL     1       4.369   4.262  17.028  0.00  0.00    +0.000 A 
ATOM      7  C   UNL     1       4.993   4.342  15.781  0.00  0.00    +0.000 A 
ENDROOT
BRANCH   5   8
ATOM      8  O   UNL     1       4.573   4.346  19.488  0.00  0.00    +0.000 OA
BRANCH   8   9
ATOM      9  C   UNL     1       3.795   3.258  19.900  0.00  0.00    +0.000 C 
ATOM     10  O   UNL     1       4.123   2.084  19.760  0.00  0.00    +0.000 OA
ATOM     11  N   UNL     1       2.596   3.639  20.491  0.00  0.00    +0.000 N 
ATOM     12  C   UNL     1       2.140   5.014  20.592  0.00  0.00    +0.000 C 
ATOM     13  C   UNL     1       1.702   2.617  21.007  0.00  0.00    +0.000 C 
ENDBRANCH   8   9
ENDBRANCH   5   8
TORSDOF 2
ENDMDL
MODEL 7
REMARK VINA RESULT:      -5.5      1.433      2.154
REMARK  Name = 
REMARK  5 active torsions:
REMARK  status: ('A' for Active; 'I' for Inactive)
REMARK    1  A    between atoms: C_1  and  C_2
REMARK    2  A    between atoms: C_5  and  O_6
REMARK    3  A    between atoms: O_6  and  C_7
REMARK    4  A    between atoms: N_9  and  C_10
REMARK    5  A    between atoms: N_9  and  C_11
REMARK                            x       y       z     vdW  Elec       q    Type
REMARK                         _______ _______ _______ _____ _____    ______ ____
ROOT
ATOM      1  C   UNL     1       0.959   3.179  19.608  0.00  0.00    +0.000 C 
ATOM      2  C   UNL     1       2.301   3.508  19.024  0.00  0.00    +0.000 A 
ATOM      3  C   UNL     1       3.484   3.244  19.726  0.00  0.00    +0.000 A 
ATOM      4  C   UNL     1       4.726   3.551  19.160  0.00  0.00    +0.000 A 
ATOM      5  C   UNL     1       4.786   4.118  17.886  0.00  0.00    +0.000 A 
ATOM      6  C   UNL     1       3.616   4.413  17.191  0.00  0.00    +0.000 A 
ATOM      7  C   UNL     1       2.378   4.096  17.754  0.00  0.00    +0.000 A 
ENDROOT
BRANCH   5   8
ATOM      8  O   UNL     1       6.077   4.422  17.398  0.00  0.00    +0.000 OA
BRANCH   8   9
ATOM      9  C   UNL     1       6.428   5.706  16.966  0.00  0.00    +0.000 C 
ATOM     10  O   UNL     1       6.078   6.192  15.895  0.00  0.00    +0.000 OA
ATOM     11  N   UNL     1       7.224   6.389  17.877  0.00  0.00    +0.000 N 
ATOM     12  C   UNL     1       7.727   5.811  19.111  0.00  0.00    +0.000 C 
ATOM     13  C   UNL     1       7.633   7.751  17.583  0.00  0.00    +0.000 C 
ENDBRANCH   8   9
ENDBRANCH   5   8
TORSDOF 2
ENDMDL
MODEL 8
REMARK VINA RESULT:      -5.5      1.784      1.977
REMARK  Name = 
REMARK  5 active torsions:
REMARK  status: ('A' for Active; 'I' for Inactive)
REMARK    1  A    between atoms: C_1  and  C_2
REMARK    2  A    between atoms: C_5  and  O_6
REMARK    3  A    between atoms: O_6  and  C_7
REMARK    4  A    between atoms: N_9  and  C_10
REMARK    5  A    between atoms: N_9  and  C_11
REMARK                            x       y       z     vdW  Elec       q    Type
REMARK                         _______ _______ _______ _____ _____    ______ ____
ROOT
ATOM      1  C   UNL     1       1.266   2.715  21.275  0.00  0.00    +0.000 C 
ATOM      2  C   UNL     1       2.118   3.261  20.168  0.00  0.00    +0.000 A 
ATOM      3  C   UNL     1       1.567   4.040  19.143  0.00  0.00    +0.000 A 
ATOM      4  C   UNL     1       2.380   4.546  18.124  0.00  0.00    +0.000 A 
ATOM      5  C   UNL     1       3.750   4.278  18.132  0.00  0.00    +0.000 A 
ATOM      6  C   UNL     1       4.305   3.479  19.129  0.00  0.00    +0.000 A 
ATOM      7  C   UNL     1       3.492   2.983  20.150  0.00  0.00    +0.000 A 
ENDROOT
BRANCH   5   8
ATOM      8  O   UNL     1       4.496   4.803  17.053  0.00  0.00    +0.000 OA
BRANCH   8   9
ATOM      9  C   UNL     1       5.170   6.027  17.137  0.00  0.00    +0.000 C 
ATOM     10  O   UNL     1       4.614   7.121  17.142  0.00  0.00    +0.000 OA
ATOM     11  N   UNL     1       6.550   5.884  17.214  0.00  0.00    +0.000 N 
ATOM     12  C   UNL     1       7.242   4.610  17.123  0.00  0.00    +0.000 C 
ATOM     13  C   UNL     1       7.381   7.067  17.349  0.00  0.00    +0.000 C 
ENDBRANCH   8   9
ENDBRANCH   5   8
TORSDOF 2
ENDMDL
MODEL 9
REMARK VINA RESULT:      -5.5      1.951      2.232
REMARK  Name = 
REMARK  5 active torsions:
REMARK  status: ('A' for Active; 'I' for Inactive)
REMARK    1  A    between atoms: C_1  and  C_2
REMARK    2  A    between atoms: C_5  and  O_6
REMARK    3  A    between atoms: O_6  and  C_7
REMARK    4  A    between atoms: N_9  and  C_10
REMARK    5  A    between atoms: N_9  and  C_11
REMARK                            x       y       z     vdW  Elec       q    Type
REMARK                         _______ _______ _______ _____ _____    ______ ____
ROOT
ATOM      1  C   UNL     1       0.851   3.614  20.089  0.00  0.00    +0.000 C 
ATOM      2  C   UNL     1       1.935   3.895  19.091  0.00  0.00    +0.000 A 
ATOM      3  C   UNL     1       2.203   5.199  18.657  0.00  0.00    +0.000 A 
ATOM      4  C   UNL     1       3.224   5.441  17.732  0.00  0.00    +0.000 A 
ATOM      5  C   UNL     1       3.985   4.377  17.244  0.00  0.00    +0.000 A 
ATOM      6  C   UNL     1       3.708   3.073  17.645  0.00  0.00    +0.000 A 
ATOM      7  C   UNL     1       2.694   2.835  18.576  0.00  0.00    +0.000 A 
ENDROOT
BRANCH   5   8
ATOM      8  O   UNL     1       4.978   4.704  16.294  0.00  0.00    +0.000 OA
BRANCH   8   9
ATOM      9  C   UNL     1       5.634   5.940  16.294  0.00  0.00    +0.000 C 
ATOM     10  O   UNL     1       5.267   6.914  15.645  0.00  0.00    +0.000 OA
ATOM     11  N   UNL     1       6.758   5.959  17.111  0.00  0.00    +0.000 N 
ATOM     12  C   UNL     1       7.267   4.799  17.822  0.00  0.00    +0.000 C 
ATOM     13  C   UNL     1       7.518   7.189  17.245  0.00  0.00    +0.000 C 
ENDBRANCH   8   9
ENDBRANCH   5   8
TORSDOF 2
ENDMDL
