MODEL 1
REMARK VINA RESULT:      -7.1      0.000      0.000
REMARK  Name = 
REMARK  12 active torsions:
REMARK  status: ('A' for Active; 'I' for Inactive)
REMARK    1  A    between atoms: C_1  and  N_2
REMARK    2  A    between atoms: C_3  and  C_4
REMARK    3  A    between atoms: C_4  and  C_6
REMARK    4  A    between atoms: C_6  and  O_7
REMARK    5  A    between atoms: O_7  and  C_8
REMARK    6  A    between atoms: C_11  and  S_12
REMARK    7  A    between atoms: S_12  and  C_13
REMARK    8  A    between atoms: C_13  and  C_14
REMARK    9  A    between atoms: C_14  and  C_15
REMARK   10  A    between atoms: C_15  and  C_16
REMARK   11  A    between atoms: C_16  and  C_17
REMARK   12  A    between atoms: C_17  and  C_18
REMARK                            x       y       z     vdW  Elec       q    Type
REMARK                         _______ _______ _______ _____ _____    ______ ____
ROOT
ATOM      1  C   UNL     1       2.311   7.209  18.760  0.00  0.00    +0.000 A 
ATOM      2  C   UNL     1       2.177   6.974  20.131  0.00  0.00    +0.000 A 
ATOM      3  C   UNL     1       1.829   5.708  20.599  0.00  0.00    +0.000 A 
ATOM      4  C   UNL     1       1.552   4.672  19.709  0.00  0.00    +0.000 A 
ATOM      5  C   UNL     1       1.639   4.917  18.336  0.00  0.00    +0.000 A 
ATOM      6  C   UNL     1       2.004   6.185  17.860  0.00  0.00    +0.000 A 
ENDROOT
BRANCH   1   7
ATOM      7  O   UNL     1       2.759   8.395  18.231  0.00  0.00    +0.000 OA
BRANCH   7   8
ATOM      8  C   UNL     1       1.710   9.268  17.798  0.00  0.00    +0.000 C 
BRANCH   8   9
ATOM      9  C   UNL     1       1.802  10.698  18.342  0.00  0.00    +0.000 C 
ATOM     10  O   UNL     1       2.608  11.516  17.896  0.00  0.00    +0.000 OA
BRANCH   9  13
ATOM     11  C   UNL     1      -0.525  12.884  18.413  0.00  0.00    +0.000 C 
ATOM     12  N   UNL     1      -0.151  11.938  19.438  0.00  0.00    +0.000 N 
ATOM     13  C   UNL     1       0.859  10.997  19.420  0.00  0.00    +0.000 A 
ATOM     14  N   UNL     1       0.892  10.345  20.574  0.00  0.00    +0.000 NA
ATOM     15  C   UNL     1      -0.116  10.868  21.344  0.00  0.00    +0.000 A 
ATOM     16  C   UNL     1      -0.514  10.540  22.649  0.00  0.00    +0.000 A 
ATOM     17  C   UNL     1      -1.600  11.222  23.215  0.00  0.00    +0.000 A 
ATOM     18  C   UNL     1      -2.271  12.215  22.501  0.00  0.00    +0.000 A 
ATOM     19  C   UNL     1      -1.881  12.559  21.202  0.00  0.00    +0.000 A 
ATOM     20  C   UNL     1      -0.795  11.863  20.655  0.00  0.00    +0.000 A 
ENDBRANCH   9  13
ENDBRANCH   8   9
ENDBRANCH   7   8
ENDBRANCH   1   7
BRANCH   4  21
ATOM     21  S   UNL     1       1.162   3.040  20.313  0.00  0.00    +0.000 S 
BRANCH  21  22
ATOM     22  C   UNL     1       2.605   2.731  21.400  0.00  0.00    +0.000 C 
BRANCH  22  23
ATOM     23  C   UNL     1       3.810   2.337  20.547  0.00  0.00    +0.000 C 
BRANCH  23  24
ATOM     24  C   UNL     1       3.392   1.719  19.206  0.00  0.00    +0.000 C 
BRANCH  24  25
ATOM     25  C   UNL     1       4.085   2.441  18.046  0.00  0.00    +0.000 C 
BRANCH  25  26
ATOM     26  C   UNL     1       5.056   3.524  18.523  0.00  0.00    +0.000 C 
BRANCH  26  27
ATOM     27  C   UNL     1       5.254   4.586  17.466  0.00  0.00    +0.000 A 
ATOM     28  C   UNL     1       5.551   5.906  17.833  0.00  0.00    +0.000 A 
ATOM     29  C   UNL     1       5.676   6.901  16.862  0.00  0.00    +0.000 A 
ATOM     30  C   UNL     1       5.502   6.590  15.515  0.00  0.00    +0.000 A 
ATOM     31  C   UNL     1       5.217   5.279  15.137  0.00  0.00    +0.000 A 
ATOM     32  C   UNL     1       5.093   4.281  16.107  0.00  0.00    +0.000 A 
ENDBRANCH  26  27
ENDBRANCH  25  26
ENDBRANCH  24  25
ENDBRANCH  23  24
ENDBRANCH  22  23
ENDBRANCH  21  22
ENDBRANCH   4  21
TORSDOF 11
ENDMDL
MODEL 2
REMARK VINA RESULT:      -6.9      3.845      9.951
REMARK  Name = 
REMARK  12 active torsions:
REMARK  status: ('A' for Active; 'I' for Inactive)
REMARK    1  A    between atoms: C_1  and  N_2
REMARK    2  A    between atoms: C_3  and  C_4
REMARK    3  A    between atoms: C_4  and  C_6
REMARK    4  A    between atoms: C_6  and  O_7
REMARK    5  A    between atoms: O_7  and  C_8
REMARK    6  A    between atoms: C_11  and  S_12
REMARK    7  A    between atoms: S_12  and  C_13
REMARK    8  A    between atoms: C_13  and  C_14
REMARK    9  A    between atoms: C_14  and  C_15
REMARK   10  A    between atoms: C_15  and  C_16
REMARK   11  A    between atoms: C_16  and  C_17
REMARK   12  A    between atoms: C_17  and  C_18
REMARK                            x       y       z     vdW  Elec       q    Type
REMARK                         _______ _______ _______ _____ _____    ______ ____
ROOT
ATOM      1  C   UNL     1       1.705   8.430  19.682  0.00  0.00    +0.000 A 
ATOM      2  C   UNL     1       1.174   8.918  20.880  0.00  0.00    +0.000 A 
ATOM      3  C   UNL     1       0.530  10.154  20.914  0.00  0.00    +0.000 A 
ATOM      4  C   UNL     1       0.456  10.950  19.772  0.00  0.00    +0.000 A 
ATOM      5  C   UNL     1       1.028  10.485  18.585  0.00  0.00    +0.000 A 
ATOM      6  C   UNL     1       1.663   9.235  18.541  0.00  0.00    +0.000 A 
ENDROOT
BRANCH   1   7
ATOM      7  O   UNL     1       2.250   7.177  19.546  0.00  0.00    +0.000 OA
BRANCH   7   8
ATOM      8  C   UNL     1       1.746   6.222  20.486  0.00  0.00    +0.000 C 
BRANCH   8   9
ATOM      9  C   UNL     1       2.547   4.918  20.568  0.00  0.00    +0.000 C 
ATOM     10  O   UNL     1       2.342   4.080  21.448  0.00  0.00    +0.000 OA
BRANCH   9  13
ATOM     11  C   UNL     1       2.171   3.934  17.553  0.00  0.00    +0.000 C 
ATOM     12  N   UNL     1       3.384   4.346  18.218  0.00  0.00    +0.000 N 
ATOM     13  C   UNL     1       3.558   4.763  19.522  0.00  0.00    +0.000 A 
ATOM     14  N   UNL     1       4.839   5.023  19.748  0.00  0.00    +0.000 NA
ATOM     15  C   UNL     1       5.498   4.777  18.571  0.00  0.00    +0.000 A 
ATOM     16  C   UNL     1       6.862   4.891  18.263  0.00  0.00    +0.000 A 
ATOM     17  C   UNL     1       7.289   4.590  16.962  0.00  0.00    +0.000 A 
ATOM     18  C   UNL     1       6.378   4.178  15.989  0.00  0.00    +0.000 A 
ATOM     19  C   UNL     1       5.015   4.052  16.282  0.00  0.00    +0.000 A 
ATOM     20  C   UNL     1       4.612   4.361  17.588  0.00  0.00    +0.000 A 
ENDBRANCH   9  13
ENDBRANCH   8   9
ENDBRANCH   7   8
ENDBRANCH   1   7
BRANCH   4  21
ATOM     21  S   UNL     1      -0.417  12.505  19.808  0.00  0.00    +0.000 S 
BRANCH  21  22
ATOM     22  C   UNL     1      -2.126  11.938  19.473  0.00  0.00    +0.000 C 
BRANCH  22  23
ATOM     23  C   UNL     1      -2.268  11.596  17.990  0.00  0.00    +0.000 C 
BRANCH  23  24
ATOM     24  C   UNL     1      -3.274  10.462  17.752  0.00  0.00    +0.000 C 
BRANCH  24  25
ATOM     25  C   UNL     1      -4.295  10.870  16.684  0.00  0.00    +0.000 C 
BRANCH  25  26
ATOM     26  C   UNL     1      -5.159  12.057  17.119  0.00  0.00    +0.000 C 
BRANCH  26  27
ATOM     27  C   UNL     1      -5.887  11.759  18.410  0.00  0.00    +0.000 A 
ATOM     28  C   UNL     1      -5.737  12.602  19.519  0.00  0.00    +0.000 A 
ATOM     29  C   UNL     1      -6.360  12.299  20.731  0.00  0.00    +0.000 A 
ATOM     30  C   UNL     1      -7.138  11.149  20.848  0.00  0.00    +0.000 A 
ATOM     31  C   UNL     1      -7.304  10.308  19.749  0.00  0.00    +0.000 A 
ATOM     32  C   UNL     1      -6.682  10.612  18.535  0.00  0.00    +0.000 A 
ENDBRANCH  26  27
ENDBRANCH  25  26
ENDBRANCH  24  25
ENDBRANCH  23  24
ENDBRANCH  22  23
ENDBRANCH  21  22
ENDBRANCH   4  21
TORSDOF 11
ENDMDL
MODEL 3
REMARK VINA RESULT:      -6.8      2.150      4.162
REMARK  Name = 
REMARK  12 active torsions:
REMARK  status: ('A' for Active; 'I' for Inactive)
REMARK    1  A    between atoms: C_1  and  N_2
REMARK    2  A    between atoms: C_3  and  C_4
REMARK    3  A    between atoms: C_4  and  C_6
REMARK    4  A    between atoms: C_6  and  O_7
REMARK    5  A    between atoms: O_7  and  C_8
REMARK    6  A    between atoms: C_11  and  S_12
REMARK    7  A    between atoms: S_12  and  C_13
REMARK    8  A    between atoms: C_13  and  C_14
REMARK    9  A    between atoms: C_14  and  C_15
REMARK   10  A    between atoms: C_15  and  C_16
REMARK   11  A    between atoms: C_16  and  C_17
REMARK   12  A    between atoms: C_17  and  C_18
REMARK                            x       y       z     vdW  Elec       q    Type
REMARK                         _______ _______ _______ _____ _____    ______ ____
ROOT
ATOM      1  C   UNL     1       1.554   8.186  19.893  0.00  0.00    +0.000 A 
ATOM      2  C   UNL     1       2.193   6.947  19.993  0.00  0.00    +0.000 A 
ATOM      3  C   UNL     1       3.065   6.521  18.993  0.00  0.00    +0.000 A 
ATOM      4  C   UNL     1       3.269   7.291  17.850  0.00  0.00    +0.000 A 
ATOM      5  C   UNL     1       2.594   8.509  17.725  0.00  0.00    +0.000 A 
ATOM      6  C   UNL     1       1.728   8.951  18.737  0.00  0.00    +0.000 A 
ENDROOT
BRANCH   1   7
ATOM      7  O   UNL     1       0.774   8.723  20.888  0.00  0.00    +0.000 OA
BRANCH   7   8
ATOM      8  C   UNL     1      -0.030   9.827  20.459  0.00  0.00    +0.000 C 
BRANCH   8   9
ATOM      9  C   UNL     1       0.071  11.075  21.344  0.00  0.00    +0.000 C 
ATOM     10  O   UNL     1       1.156  11.574  21.647  0.00  0.00    +0.000 OA
BRANCH   9  13
ATOM     11  C   UNL     1      -2.198  12.508  19.614  0.00  0.00    +0.000 C 
ATOM     12  N   UNL     1      -2.197  12.218  21.028  0.00  0.00    +0.000 N 
ATOM     13  C   UNL     1      -1.217  11.609  21.786  0.00  0.00    +0.000 A 
ATOM     14  N   UNL     1      -1.591  11.560  23.057  0.00  0.00    +0.000 NA
ATOM     15  C   UNL     1      -2.833  12.140  23.118  0.00  0.00    +0.000 A 
ATOM     16  C   UNL     1      -3.677  12.346  24.220  0.00  0.00    +0.000 A 
ATOM     17  C   UNL     1      -4.922  12.956  24.013  0.00  0.00    +0.000 A 
ATOM     18  C   UNL     1      -5.316  13.359  22.737  0.00  0.00    +0.000 A 
ATOM     19  C   UNL     1      -4.484  13.168  21.629  0.00  0.00    +0.000 A 
ATOM     20  C   UNL     1      -3.245  12.553  21.859  0.00  0.00    +0.000 A 
ENDBRANCH   9  13
ENDBRANCH   8   9
ENDBRANCH   7   8
ENDBRANCH   1   7
BRANCH   4  21
ATOM     21  S   UNL     1       4.427   6.767  16.599  0.00  0.00    +0.000 S 
BRANCH  21  22
ATOM     22  C   UNL     1       5.970   6.685  17.584  0.00  0.00    +0.000 C 
BRANCH  22  23
ATOM     23  C   UNL     1       6.699   5.377  17.280  0.00  0.00    +0.000 C 
BRANCH  23  24
ATOM     24  C   UNL     1       5.734   4.262  16.853  0.00  0.00    +0.000 C 
BRANCH  24  25
ATOM     25  C   UNL     1       5.066   3.635  18.081  0.00  0.00    +0.000 C 
BRANCH  25  26
ATOM     26  C   UNL     1       3.696   3.029  17.760  0.00  0.00    +0.000 C 
BRANCH  26  27
ATOM     27  C   UNL     1       2.832   2.946  18.997  0.00  0.00    +0.000 A 
ATOM     28  C   UNL     1       1.452   3.181  18.916  0.00  0.00    +0.000 A 
ATOM     29  C   UNL     1       0.660   3.164  20.065  0.00  0.00    +0.000 A 
ATOM     30  C   UNL     1       1.238   2.914  21.309  0.00  0.00    +0.000 A 
ATOM     31  C   UNL     1       2.607   2.669  21.401  0.00  0.00    +0.000 A 
ATOM     32  C   UNL     1       3.401   2.685  20.251  0.00  0.00    +0.000 A 
ENDBRANCH  26  27
ENDBRANCH  25  26
ENDBRANCH  24  25
ENDBRANCH  23  24
ENDBRANCH  22  23
ENDBRANCH  21  22
ENDBRANCH   4  21
TORSDOF 11
ENDMDL
MODEL 4
REMARK VINA RESULT:      -6.8      2.778      4.901
REMARK  Name = 
REMARK  12 active torsions:
REMARK  status: ('A' for Active; 'I' for Inactive)
REMARK    1  A    between atoms: C_1  and  N_2
REMARK    2  A    between atoms: C_3  and  C_4
REMARK    3  A    between atoms: C_4  and  C_6
REMARK    4  A    between atoms: C_6  and  O_7
REMARK    5  A    between atoms: O_7  and  C_8
REMARK    6  A    between atoms: C_11  and  S_12
REMARK    7  A    between atoms: S_12  and  C_13
REMARK    8  A    between atoms: C_13  and  C_14
REMARK    9  A    between atoms: C_14  and  C_15
REMARK   10  A    between atoms: C_15  and  C_16
REMARK   11  A    between atoms: C_16  and  C_17
REMARK   12  A    between atoms: C_17  and  C_18
REMARK                            x       y       z     vdW  Elec       q    Type
REMARK                         _______ _______ _______ _____ _____    ______ ____
ROOT
ATOM      1  C   UNL     1       0.493  10.039  19.270  0.00  0.00    +0.000 A 
ATOM      2  C   UNL     1       1.203   9.616  18.142  0.00  0.00    +0.000 A 
ATOM      3  C   UNL     1       1.978   8.459  18.192  0.00  0.00    +0.000 A 
ATOM      4  C   UNL     1       2.108   7.738  19.378  0.00  0.00    +0.000 A 
ATOM      5  C   UNL     1       1.437   8.187  20.519  0.00  0.00    +0.000 A 
ATOM      6  C   UNL     1       0.642   9.341  20.471  0.00  0.00    +0.000 A 
ENDROOT
BRANCH   1   7
ATOM      7  O   UNL     1      -0.379  11.100  19.265  0.00  0.00    +0.000 OA
BRANCH   7   8
ATOM      8  C   UNL     1      -0.799  11.509  20.572  0.00  0.00    +0.000 C 
BRANCH   8   9
ATOM      9  C   UNL     1      -1.600  12.815  20.609  0.00  0.00    +0.000 C 
ATOM     10  O   UNL     1      -1.051  13.914  20.710  0.00  0.00    +0.000 OA
BRANCH   9  13
ATOM     11  C   UNL     1      -3.787  12.950  22.932  0.00  0.00    +0.000 C 
ATOM     12  N   UNL     1      -3.988  12.710  21.523  0.00  0.00    +0.000 N 
ATOM     13  C   UNL     1      -3.049  12.640  20.514  0.00  0.00    +0.000 A 
ATOM     14  N   UNL     1      -3.642  12.370  19.359  0.00  0.00    +0.000 NA
ATOM     15  C   UNL     1      -4.984  12.271  19.627  0.00  0.00    +0.000 A 
ATOM     16  C   UNL     1      -6.056  11.999  18.764  0.00  0.00    +0.000 A 
ATOM     17  C   UNL     1      -7.356  11.969  19.289  0.00  0.00    +0.000 A 
ATOM     18  C   UNL     1      -7.583  12.196  20.646  0.00  0.00    +0.000 A 
ATOM     19  C   UNL     1      -6.524  12.461  21.521  0.00  0.00    +0.000 A 
ATOM     20  C   UNL     1      -5.234  12.490  20.974  0.00  0.00    +0.000 A 
ENDBRANCH   9  13
ENDBRANCH   8   9
ENDBRANCH   7   8
ENDBRANCH   1   7
BRANCH   4  21
ATOM     21  S   UNL     1       3.058   6.229  19.421  0.00  0.00    +0.000 S 
BRANCH  21  22
ATOM     22  C   UNL     1       3.517   6.072  17.654  0.00  0.00    +0.000 C 
BRANCH  22  23
ATOM     23  C   UNL     1       4.994   5.696  17.543  0.00  0.00    +0.000 C 
BRANCH  23  24
ATOM     24  C   UNL     1       5.221   4.187  17.706  0.00  0.00    +0.000 C 
BRANCH  24  25
ATOM     25  C   UNL     1       4.081   3.402  17.049  0.00  0.00    +0.000 C 
BRANCH  25  26
ATOM     26  C   UNL     1       3.720   2.130  17.822  0.00  0.00    +0.000 C 
BRANCH  26  27
ATOM     27  C   UNL     1       2.849   2.445  19.017  0.00  0.00    +0.000 A 
ATOM     28  C   UNL     1       1.495   2.761  18.844  0.00  0.00    +0.000 A 
ATOM     29  C   UNL     1       0.702   3.111  19.939  0.00  0.00    +0.000 A 
ATOM     30  C   UNL     1       1.254   3.151  21.218  0.00  0.00    +0.000 A 
ATOM     31  C   UNL     1       2.597   2.828  21.404  0.00  0.00    +0.000 A 
ATOM     32  C   UNL     1       3.392   2.477  20.309  0.00  0.00    +0.000 A 
ENDBRANCH  26  27
ENDBRANCH  25  26
ENDBRANCH  24  25
ENDBRANCH  23  24
ENDBRANCH  22  23
ENDBRANCH  21  22
ENDBRANCH   4  21
TORSDOF 11
ENDMDL
MODEL 5
REMARK VINA RESULT:      -6.8      2.093      2.978
REMARK  Name = 
REMARK  12 active torsions:
REMARK  status: ('A' for Active; 'I' for Inactive)
REMARK    1  A    between atoms: C_1  and  N_2
REMARK    2  A    between atoms: C_3  and  C_4
REMARK    3  A    between atoms: C_4  and  C_6
REMARK    4  A    between atoms: C_6  and  O_7
REMARK    5  A    between atoms: O_7  and  C_8
REMARK    6  A    between atoms: C_11  and  S_12
REMARK    7  A    between atoms: S_12  and  C_13
REMARK    8  A    between atoms: C_13  and  C_14
REMARK    9  A    between atoms: C_14  and  C_15
REMARK   10  A    between atoms: C_15  and  C_16
REMARK   11  A    between atoms: C_16  and  C_17
REMARK   12  A    between atoms: C_17  and  C_18
REMARK                            x       y       z     vdW  Elec       q    Type
REMARK                         _______ _______ _______ _____ _____    ______ ____
ROOT
ATOM      1  C   UNL     1       1.697   9.049  19.007  0.00  0.00    +0.000 A 
ATOM      2  C   UNL     1       1.241   8.701  20.281  0.00  0.00    +0.000 A 
ATOM      3  C   UNL     1       1.470   7.423  20.788  0.00  0.00    +0.000 A 
ATOM      4  C   UNL     1       2.103   6.453  20.013  0.00  0.00    +0.000 A 
ATOM      5  C   UNL     1       2.517   6.784  18.720  0.00  0.00    +0.000 A 
ATOM      6  C   UNL     1       2.305   8.074  18.211  0.00  0.00    +0.000 A 
ENDROOT
BRANCH   1   7
ATOM      7  O   UNL     1       1.611  10.317  18.487  0.00  0.00    +0.000 OA
BRANCH   7   8
ATOM      8  C   UNL     1       1.069  11.279  19.399  0.00  0.00    +0.000 C 
BRANCH   8   9
ATOM      9  C   UNL     1       0.275  12.412  18.738  0.00  0.00    +0.000 C 
ATOM     10  O   UNL     1       0.827  13.405  18.262  0.00  0.00    +0.000 OA
BRANCH   9  13
ATOM     11  C   UNL     1      -1.890  13.306  20.908  0.00  0.00    +0.000 C 
ATOM     12  N   UNL     1      -2.103  12.607  19.664  0.00  0.00    +0.000 N 
ATOM     13  C   UNL     1      -1.174  12.207  18.725  0.00  0.00    +0.000 A 
ATOM     14  N   UNL     1      -1.776  11.562  17.736  0.00  0.00    +0.000 NA
ATOM     15  C   UNL     1      -3.114  11.553  18.037  0.00  0.00    +0.000 A 
ATOM     16  C   UNL     1      -4.193  11.001  17.328  0.00  0.00    +0.000 A 
ATOM     17  C   UNL     1      -5.486  11.142  17.850  0.00  0.00    +0.000 A 
ATOM     18  C   UNL     1      -5.702  11.810  19.055  0.00  0.00    +0.000 A 
ATOM     19  C   UNL     1      -4.637  12.359  19.777  0.00  0.00    +0.000 A 
ATOM     20  C   UNL     1      -3.353  12.209  19.236  0.00  0.00    +0.000 A 
ENDBRANCH   9  13
ENDBRANCH   8   9
ENDBRANCH   7   8
ENDBRANCH   1   7
BRANCH   4  21
ATOM     21  S   UNL     1       2.441   4.836  20.685  0.00  0.00    +0.000 S 
BRANCH  21  22
ATOM     22  C   UNL     1       0.904   3.952  20.225  0.00  0.00    +0.000 C 
BRANCH  22  23
ATOM     23  C   UNL     1       1.255   2.573  19.670  0.00  0.00    +0.000 C 
BRANCH  23  24
ATOM     24  C   UNL     1       2.672   2.530  19.080  0.00  0.00    +0.000 C 
BRANCH  24  25
ATOM     25  C   UNL     1       2.687   3.156  17.681  0.00  0.00    +0.000 C 
BRANCH  25  26
ATOM     26  C   UNL     1       4.064   3.078  17.016  0.00  0.00    +0.000 C 
BRANCH  26  27
ATOM     27  C   UNL     1       4.846   4.353  17.228  0.00  0.00    +0.000 A 
ATOM     28  C   UNL     1       4.861   5.348  16.241  0.00  0.00    +0.000 A 
ATOM     29  C   UNL     1       5.630   6.502  16.408  0.00  0.00    +0.000 A 
ATOM     30  C   UNL     1       6.394   6.672  17.561  0.00  0.00    +0.000 A 
ATOM     31  C   UNL     1       6.378   5.695  18.555  0.00  0.00    +0.000 A 
ATOM     32  C   UNL     1       5.608   4.540  18.390  0.00  0.00    +0.000 A 
ENDBRANCH  26  27
ENDBRANCH  25  26
ENDBRANCH  24  25
ENDBRANCH  23  24
ENDBRANCH  22  23
ENDBRANCH  21  22
ENDBRANCH   4  21
TORSDOF 11
ENDMDL
MODEL 6
REMARK VINA RESULT:      -6.7      4.116      5.556
REMARK  Name = 
REMARK  12 active torsions:
REMARK  status: ('A' for Active; 'I' for Inactive)
REMARK    1  A    between atoms: C_1  and  N_2
REMARK    2  A    between atoms: C_3  and  C_4
REMARK    3  A    between atoms: C_4  and  C_6
REMARK    4  A    between atoms: C_6  and  O_7
REMARK    5  A    between atoms: O_7  and  C_8
REMARK    6  A    between atoms: C_11  and  S_12
REMARK    7  A    between atoms: S_12  and  C_13
REMARK    8  A    between atoms: C_13  and  C_14
REMARK    9  A    between atoms: C_14  and  C_15
REMARK   10  A    between atoms: C_15  and  C_16
REMARK   11  A    between atoms: C_16  and  C_17
REMARK   12  A    between atoms: C_17  and  C_18
REMARK                            x       y       z     vdW  Elec       q    Type
REMARK                         _______ _______ _______ _____ _____    ______ ____
ROOT
ATOM      1  C   UNL     1       1.551   8.869  19.634  0.00  0.00    +0.000 A 
ATOM      2  C   UNL     1       2.109   9.077  18.369  0.00  0.00    +0.000 A 
ATOM      3  C   UNL     1       2.817   8.057  17.734  0.00  0.00    +0.000 A 
ATOM      4  C   UNL     1       3.031   6.836  18.371  0.00  0.00    +0.000 A 
ATOM      5  C   UNL     1       2.514   6.643  19.655  0.00  0.00    +0.000 A 
ATOM      6  C   UNL     1       1.787   7.659  20.292  0.00  0.00    +0.000 A 
ENDROOT
BRANCH   1   7
ATOM      7  O   UNL     1       0.747   9.782  20.270  0.00  0.00    +0.000 OA
BRANCH   7   8
ATOM      8  C   UNL     1      -0.559   9.902  19.697  0.00  0.00    +0.000 C 
BRANCH   8   9
ATOM      9  C   UNL     1      -0.863  11.267  19.071  0.00  0.00    +0.000 C 
ATOM     10  O   UNL     1       0.030  12.067  18.785  0.00  0.00    +0.000 OA
BRANCH   9  13
ATOM     11  C   UNL     1      -2.676  10.439  16.576  0.00  0.00    +0.000 C 
ATOM     12  N   UNL     1      -3.063  11.156  17.768  0.00  0.00    +0.000 N 
ATOM     13  C   UNL     1      -2.284  11.527  18.846  0.00  0.00    +0.000 A 
ATOM     14  N   UNL     1      -3.015  12.202  19.723  0.00  0.00    +0.000 NA
ATOM     15  C   UNL     1      -4.285  12.261  19.206  0.00  0.00    +0.000 A 
ATOM     16  C   UNL     1      -5.442  12.859  19.727  0.00  0.00    +0.000 A 
ATOM     17  C   UNL     1      -6.637  12.764  19.002  0.00  0.00    +0.000 A 
ATOM     18  C   UNL     1      -6.679  12.094  17.778  0.00  0.00    +0.000 A 
ATOM     19  C   UNL     1      -5.532  11.500  17.241  0.00  0.00    +0.000 A 
ATOM     20  C   UNL     1      -4.349  11.604  17.985  0.00  0.00    +0.000 A 
ENDBRANCH   9  13
ENDBRANCH   8   9
ENDBRANCH   7   8
ENDBRANCH   1   7
BRANCH   4  21
ATOM     21  S   UNL     1       3.889   5.517  17.532  0.00  0.00    +0.000 S 
BRANCH  21  22
ATOM     22  C   UNL     1       5.281   6.444  16.784  0.00  0.00    +0.000 C 
BRANCH  22  23
ATOM     23  C   UNL     1       6.410   6.580  17.805  0.00  0.00    +0.000 C 
BRANCH  23  24
ATOM     24  C   UNL     1       7.634   7.300  17.222  0.00  0.00    +0.000 C 
BRANCH  24  25
ATOM     25  C   UNL     1       8.234   8.255  18.258  0.00  0.00    +0.000 C 
BRANCH  25  26
ATOM     26  C   UNL     1       8.260   9.708  17.773  0.00  0.00    +0.000 C 
BRANCH  26  27
ATOM     27  C   UNL     1       9.297  10.515  18.521  0.00  0.00    +0.000 A 
ATOM     28  C   UNL     1       9.302  10.537  19.923  0.00  0.00    +0.000 A 
ATOM     29  C   UNL     1      10.220  11.328  20.617  0.00  0.00    +0.000 A 
ATOM     30  C   UNL     1      11.141  12.107  19.918  0.00  0.00    +0.000 A 
ATOM     31  C   UNL     1      11.152  12.084  18.524  0.00  0.00    +0.000 A 
ATOM     32  C   UNL     1      10.235  11.292  17.829  0.00  0.00    +0.000 A 
ENDBRANCH  26  27
ENDBRANCH  25  26
ENDBRANCH  24  25
ENDBRANCH  23  24
ENDBRANCH  22  23
ENDBRANCH  21  22
ENDBRANCH   4  21
TORSDOF 11
ENDMDL
MODEL 7
REMARK VINA RESULT:      -6.6      1.665      3.629
REMARK  Name = 
REMARK  12 active torsions:
REMARK  status: ('A' for Active; 'I' for Inactive)
REMARK    1  A    between atoms: C_1  and  N_2
REMARK    2  A    between atoms: C_3  and  C_4
REMARK    3  A    between atoms: C_4  and  C_6
REMARK    4  A    between atoms: C_6  and  O_7
REMARK    5  A    between atoms: O_7  and  C_8
REMARK    6  A    between atoms: C_11  and  S_12
REMARK    7  A    between atoms: S_12  and  C_13
REMARK    8  A    between atoms: C_13  and  C_14
REMARK    9  A    between atoms: C_14  and  C_15
REMARK   10  A    between atoms: C_15  and  C_16
REMARK   11  A    between atoms: C_16  and  C_17
REMARK   12  A    between atoms: C_17  and  C_18
REMARK                            x       y       z     vdW  Elec       q    Type
REMARK                         _______ _______ _______ _____ _____    ______ ____
ROOT
ATOM      1  C   UNL     1       2.113   7.960  18.897  0.00  0.00    +0.000 A 
ATOM      2  C   UNL     1       2.390   6.837  19.681  0.00  0.00    +0.000 A 
ATOM      3  C   UNL     1       3.502   6.042  19.405  0.00  0.00    +0.000 A 
ATOM      4  C   UNL     1       4.321   6.318  18.312  0.00  0.00    +0.000 A 
ATOM      5  C   UNL     1       4.018   7.414  17.499  0.00  0.00    +0.000 A 
ATOM      6  C   UNL     1       2.910   8.226  17.781  0.00  0.00    +0.000 A 
ENDROOT
BRANCH   1   7
ATOM      7  O   UNL     1       1.106   8.852  19.175  0.00  0.00    +0.000 OA
BRANCH   7   8
ATOM      8  C   UNL     1       1.004   9.922  18.229  0.00  0.00    +0.000 C 
BRANCH   8   9
ATOM      9  C   UNL     1       1.083  11.326  18.837  0.00  0.00    +0.000 C 
ATOM     10  O   UNL     1       2.013  12.095  18.586  0.00  0.00    +0.000 OA
BRANCH   9  13
ATOM     11  C   UNL     1      -1.902  12.169  18.078  0.00  0.00    +0.000 C 
ATOM     12  N   UNL     1      -1.319  12.018  19.389  0.00  0.00    +0.000 N 
ATOM     13  C   UNL     1      -0.028  11.664  19.727  0.00  0.00    +0.000 A 
ATOM     14  N   UNL     1       0.113  11.668  21.046  0.00  0.00    +0.000 NA
ATOM     15  C   UNL     1      -1.106  12.022  21.565  0.00  0.00    +0.000 A 
ATOM     16  C   UNL     1      -1.504  12.177  22.902  0.00  0.00    +0.000 A 
ATOM     17  C   UNL     1      -2.831  12.537  23.174  0.00  0.00    +0.000 A 
ATOM     18  C   UNL     1      -3.742  12.744  22.138  0.00  0.00    +0.000 A 
ATOM     19  C   UNL     1      -3.359  12.601  20.800  0.00  0.00    +0.000 A 
ATOM     20  C   UNL     1      -2.029  12.238  20.551  0.00  0.00    +0.000 A 
ENDBRANCH   9  13
ENDBRANCH   8   9
ENDBRANCH   7   8
ENDBRANCH   1   7
BRANCH   4  21
ATOM     21  S   UNL     1       5.773   5.332  17.996  0.00  0.00    +0.000 S 
BRANCH  21  22
ATOM     22  C   UNL     1       5.810   5.365  16.165  0.00  0.00    +0.000 C 
BRANCH  22  23
ATOM     23  C   UNL     1       5.275   4.042  15.620  0.00  0.00    +0.000 C 
BRANCH  23  24
ATOM     24  C   UNL     1       4.652   3.173  16.720  0.00  0.00    +0.000 C 
BRANCH  24  25
ATOM     25  C   UNL     1       3.130   3.349  16.742  0.00  0.00    +0.000 C 
BRANCH  25  26
ATOM     26  C   UNL     1       2.420   2.242  17.526  0.00  0.00    +0.000 C 
BRANCH  26  27
ATOM     27  C   UNL     1       2.242   2.626  18.976  0.00  0.00    +0.000 A 
ATOM     28  C   UNL     1       3.247   2.347  19.913  0.00  0.00    +0.000 A 
ATOM     29  C   UNL     1       3.062   2.647  21.263  0.00  0.00    +0.000 A 
ATOM     30  C   UNL     1       1.870   3.228  21.694  0.00  0.00    +0.000 A 
ATOM     31  C   UNL     1       0.868   3.521  20.770  0.00  0.00    +0.000 A 
ATOM     32  C   UNL     1       1.052   3.222  19.418  0.00  0.00    +0.000 A 
ENDBRANCH  26  27
ENDBRANCH  25  26
ENDBRANCH  24  25
ENDBRANCH  23  24
ENDBRANCH  22  23
ENDBRANCH  21  22
ENDBRANCH   4  21
TORSDOF 11
ENDMDL
MODEL 8
REMARK VINA RESULT:      -6.6      2.290      4.447
REMARK  Name = 
REMARK  12 active torsions:
REMARK  status: ('A' for Active; 'I' for Inactive)
REMARK    1  A    between atoms: C_1  and  N_2
REMARK    2  A    between atoms: C_3  and  C_4
REMARK    3  A    between atoms: C_4  and  C_6
REMARK    4  A    between atoms: C_6  and  O_7
REMARK    5  A    between atoms: O_7  and  C_8
REMARK    6  A    between atoms: C_11  and  S_12
REMARK    7  A    between atoms: S_12  and  C_13
REMARK    8  A    between atoms: C_13  and  C_14
REMARK    9  A    between atoms: C_14  and  C_15
REMARK   10  A    between atoms: C_15  and  C_16
REMARK   11  A    between atoms: C_16  and  C_17
REMARK   12  A    between atoms: C_17  and  C_18
REMARK                            x       y       z     vdW  Elec       q    Type
REMARK                         _______ _______ _______ _____ _____    ______ ____
ROOT
ATOM      1  C   UNL     1       1.548   7.958  20.103  0.00  0.00    +0.000 A 
ATOM      2  C   UNL     1       1.685   8.911  19.091  0.00  0.00    +0.000 A 
ATOM      3  C   UNL     1       2.493   8.653  17.984  0.00  0.00    +0.000 A 
ATOM      4  C   UNL     1       3.222   7.469  17.896  0.00  0.00    +0.000 A 
ATOM      5  C   UNL     1       3.123   6.534  18.930  0.00  0.00    +0.000 A 
ATOM      6  C   UNL     1       2.299   6.782  20.038  0.00  0.00    +0.000 A 
ENDROOT
BRANCH   1   7
ATOM      7  O   UNL     1       0.685   8.092  21.163  0.00  0.00    +0.000 OA
BRANCH   7   8
ATOM      8  C   UNL     1      -0.246   9.171  21.017  0.00  0.00    +0.000 C 
BRANCH   8   9
ATOM      9  C   UNL     1       0.019  10.375  21.928  0.00  0.00    +0.000 C 
ATOM     10  O   UNL     1       0.025  10.275  23.156  0.00  0.00    +0.000 OA
BRANCH   9  13
ATOM     11  C   UNL     1      -2.101  12.378  20.629  0.00  0.00    +0.000 C 
ATOM     12  N   UNL     1      -0.663  12.495  20.667  0.00  0.00    +0.000 N 
ATOM     13  C   UNL     1       0.262  11.630  21.217  0.00  0.00    +0.000 A 
ATOM     14  N   UNL     1       1.489  12.087  21.012  0.00  0.00    +0.000 NA
ATOM     15  C   UNL     1       1.354  13.268  20.327  0.00  0.00    +0.000 A 
ATOM     16  C   UNL     1       2.335  14.156  19.861  0.00  0.00    +0.000 A 
ATOM     17  C   UNL     1       1.931  15.319  19.192  0.00  0.00    +0.000 A 
ATOM     18  C   UNL     1       0.578  15.590  18.984  0.00  0.00    +0.000 A 
ATOM     19  C   UNL     1      -0.412  14.711  19.435  0.00  0.00    +0.000 A 
ATOM     20  C   UNL     1       0.015  13.556  20.104  0.00  0.00    +0.000 A 
ENDBRANCH   9  13
ENDBRANCH   8   9
ENDBRANCH   7   8
ENDBRANCH   1   7
BRANCH   4  21
ATOM     21  S   UNL     1       4.210   7.120  16.452  0.00  0.00    +0.000 S 
BRANCH  21  22
ATOM     22  C   UNL     1       5.640   6.271  17.222  0.00  0.00    +0.000 C 
BRANCH  22  23
ATOM     23  C   UNL     1       6.167   5.197  16.272  0.00  0.00    +0.000 C 
BRANCH  23  24
ATOM     24  C   UNL     1       5.303   3.929  16.295  0.00  0.00    +0.000 C 
BRANCH  24  25
ATOM     25  C   UNL     1       4.788   3.660  17.712  0.00  0.00    +0.000 C 
BRANCH  25  26
ATOM     26  C   UNL     1       3.699   2.584  17.748  0.00  0.00    +0.000 C 
BRANCH  26  27
ATOM     27  C   UNL     1       2.837   2.719  18.983  0.00  0.00    +0.000 A 
ATOM     28  C   UNL     1       1.475   3.029  18.867  0.00  0.00    +0.000 A 
ATOM     29  C   UNL     1       0.689   3.213  20.006  0.00  0.00    +0.000 A 
ATOM     30  C   UNL     1       1.257   3.092  21.273  0.00  0.00    +0.000 A 
ATOM     31  C   UNL     1       2.607   2.774  21.402  0.00  0.00    +0.000 A 
ATOM     32  C   UNL     1       3.395   2.588  20.262  0.00  0.00    +0.000 A 
ENDBRANCH  26  27
ENDBRANCH  25  26
ENDBRANCH  24  25
ENDBRANCH  23  24
ENDBRANCH  22  23
ENDBRANCH  21  22
ENDBRANCH   4  21
TORSDOF 11
ENDMDL
MODEL 9
REMARK VINA RESULT:      -6.6      2.907      4.428
REMARK  Name = 
REMARK  12 active torsions:
REMARK  status: ('A' for Active; 'I' for Inactive)
REMARK    1  A    between atoms: C_1  and  N_2
REMARK    2  A    between atoms: C_3  and  C_4
REMARK    3  A    between atoms: C_4  and  C_6
REMARK    4  A    between atoms: C_6  and  O_7
REMARK    5  A    between atoms: O_7  and  C_8
REMARK    6  A    between atoms: C_11  and  S_12
REMARK    7  A    between atoms: S_12  and  C_13
REMARK    8  A    between atoms: C_13  and  C_14
REMARK    9  A    between atoms: C_14  and  C_15
REMARK   10  A    between atoms: C_15  and  C_16
REMARK   11  A    between atoms: C_16  and  C_17
REMARK   12  A    between atoms: C_17  and  C_18
REMARK                            x       y       z     vdW  Elec       q    Type
REMARK                         _______ _______ _______ _____ _____    ______ ____
ROOT
ATOM      1  C   UNL     1       0.949   9.609  19.707  0.00  0.00    +0.000 A 
ATOM      2  C   UNL     1       0.911   8.760  20.817  0.00  0.00    +0.000 A 
ATOM      3  C   UNL     1       1.551   7.522  20.780  0.00  0.00    +0.000 A 
ATOM      4  C   UNL     1       2.188   7.084  19.620  0.00  0.00    +0.000 A 
ATOM      5  C   UNL     1       2.186   7.911  18.493  0.00  0.00    +0.000 A 
ATOM      6  C   UNL     1       1.558   9.165  18.531  0.00  0.00    +0.000 A 
ENDROOT
BRANCH   1   7
ATOM      7  O   UNL     1       0.441  10.885  19.708  0.00  0.00    +0.000 OA
BRANCH   7   8
ATOM      8  C   UNL     1       1.423  11.897  19.959  0.00  0.00    +0.000 C 
BRANCH   8   9
ATOM      9  C   UNL     1       0.887  13.149  20.662  0.00  0.00    +0.000 C 
ATOM     10  O   UNL     1       0.492  13.123  21.830  0.00  0.00    +0.000 OA
BRANCH   9  13
ATOM     11  C   UNL     1       3.378  14.755  19.474  0.00  0.00    +0.000 C 
ATOM     12  N   UNL     1       1.971  15.037  19.317  0.00  0.00    +0.000 N 
ATOM     13  C   UNL     1       0.888  14.355  19.835  0.00  0.00    +0.000 A 
ATOM     14  N   UNL     1      -0.239  14.957  19.481  0.00  0.00    +0.000 NA
ATOM     15  C   UNL     1       0.122  16.039  18.719  0.00  0.00    +0.000 A 
ATOM     16  C   UNL     1      -0.679  17.009  18.097  0.00  0.00    +0.000 A 
ATOM     17  C   UNL     1      -0.058  18.020  17.350  0.00  0.00    +0.000 A 
ATOM     18  C   UNL     1       1.331  18.068  17.229  0.00  0.00    +0.000 A 
ATOM     19  C   UNL     1       2.144  17.112  17.849  0.00  0.00    +0.000 A 
ATOM     20  C   UNL     1       1.502  16.110  18.588  0.00  0.00    +0.000 A 
ENDBRANCH   9  13
ENDBRANCH   8   9
ENDBRANCH   7   8
ENDBRANCH   1   7
BRANCH   4  21
ATOM     21  S   UNL     1       3.052   5.524  19.596  0.00  0.00    +0.000 S 
BRANCH  21  22
ATOM     22  C   UNL     1       1.963   4.555  18.487  0.00  0.00    +0.000 C 
BRANCH  22  23
ATOM     23  C   UNL     1       2.802   3.911  17.384  0.00  0.00    +0.000 C 
BRANCH  23  24
ATOM     24  C   UNL     1       4.231   4.467  17.345  0.00  0.00    +0.000 C 
BRANCH  24  25
ATOM     25  C   UNL     1       4.848   4.258  15.958  0.00  0.00    +0.000 C 
BRANCH  25  26
ATOM     26  C   UNL     1       6.371   4.105  16.007  0.00  0.00    +0.000 C 
BRANCH  26  27
ATOM     27  C   UNL     1       6.995   5.137  16.918  0.00  0.00    +0.000 A 
ATOM     28  C   UNL     1       7.512   4.762  18.166  0.00  0.00    +0.000 A 
ATOM     29  C   UNL     1       8.035   5.721  19.035  0.00  0.00    +0.000 A 
ATOM     30  C   UNL     1       8.046   7.066  18.668  0.00  0.00    +0.000 A 
ATOM     31  C   UNL     1       7.545   7.449  17.425  0.00  0.00    +0.000 A 
ATOM     32  C   UNL     1       7.022   6.490  16.554  0.00  0.00    +0.000 A 
ENDBRANCH  26  27
ENDBRANCH  25  26
ENDBRANCH  24  25
ENDBRANCH  23  24
ENDBRANCH  22  23
ENDBRANCH  21  22
ENDBRANCH   4  21
TORSDOF 11
ENDMDL
