MODEL 1
REMARK VINA RESULT:      -5.9      0.000      0.000
REMARK  Name = 
REMARK  8 active torsions:
REMARK  status: ('A' for Active; 'I' for Inactive)
REMARK    1  A    between atoms: C_1  and  O_2
REMARK    2  A    between atoms: O_2  and  C_3
REMARK    3  A    between atoms: C_5  and  C_6
REMARK    4  A    between atoms: C_6  and  C_7
REMARK    5  A    between atoms: C_7  and  C_8
REMARK    6  A    between atoms: C_7  and  N_9
REMARK    7  A    between atoms: C_10  and  O_11
REMARK    8  A    between atoms: O_11  and  C_12
REMARK                            x       y       z     vdW  Elec       q    Type
REMARK                         _______ _______ _______ _____ _____    ______ ____
ROOT
ATOM      1  C   UNL     1       2.674   3.903  18.302  0.00  0.00    +0.000 A 
ATOM      2  C   UNL     1       3.443   3.813  17.139  0.00  0.00    +0.000 A 
ATOM      3  C   UNL     1       4.837   4.021  17.162  0.00  0.00    +0.000 A 
ATOM      4  C   UNL     1       5.457   4.334  18.383  0.00  0.00    +0.000 A 
ATOM      5  C   UNL     1       4.689   4.456  19.544  0.00  0.00    +0.000 A 
ATOM      6  C   UNL     1       3.309   4.239  19.502  0.00  0.00    +0.000 A 
ATOM      7 BR   UNL     1       2.339   4.362  21.134  0.00  0.00    +0.000 Br
ENDROOT
BRANCH   1   9
ATOM      8  C   UNL     1       0.879   2.382  18.629  0.00  0.00    +0.000 C 
ATOM      9  O   UNL     1       1.318   3.702  18.330  0.00  0.00    +0.000 OA
ENDBRANCH   1   9
BRANCH   4  10
ATOM     10  O   UNL     1       6.816   4.523  18.346  0.00  0.00    +0.000 OA
ATOM     11  C   UNL     1       7.312   5.715  18.947  0.00  0.00    +0.000 C 
ENDBRANCH   4  10
BRANCH   3  12
ATOM     12  C   UNL     1       5.631   3.806  15.886  0.00  0.00    +0.000 C 
BRANCH  12  13
ATOM     13  C   UNL     1       6.035   5.091  15.133  0.00  0.00    +0.000 C 
ATOM     14  C   UNL     1       5.251   6.316  15.605  0.00  0.00    +0.000 C 
BRANCH  13  15
ATOM     15  N   UNL     1       7.474   5.335  15.316  0.00  0.00    +0.000 NA
ATOM     16  H   UNL     1       7.686   6.307  15.084  0.00  0.00    +0.000 HD
ATOM     17  H   UNL     1       8.002   4.770  14.653  0.00  0.00    +0.000 HD
ENDBRANCH  13  15
ENDBRANCH  12  13
ENDBRANCH   3  12
TORSDOF 5
ENDMDL
MODEL 2
REMARK VINA RESULT:      -5.9      3.091      4.965
REMARK  Name = 
REMARK  8 active torsions:
REMARK  status: ('A' for Active; 'I' for Inactive)
REMARK    1  A    between atoms: C_1  and  O_2
REMARK    2  A    between atoms: O_2  and  C_3
REMARK    3  A    between atoms: C_5  and  C_6
REMARK    4  A    between atoms: C_6  and  C_7
REMARK    5  A    between atoms: C_7  and  C_8
REMARK    6  A    between atoms: C_7  and  N_9
REMARK    7  A    between atoms: C_10  and  O_11
REMARK    8  A    between atoms: O_11  and  C_12
REMARK                            x       y       z     vdW  Elec       q    Type
REMARK                         _______ _______ _______ _____ _____    ______ ____
ROOT
ATOM      1  C   UNL     1       5.188   4.215  17.062  0.00  0.00    +0.000 A 
ATOM      2  C   UNL     1       3.833   3.874  17.060  0.00  0.00    +0.000 A 
ATOM      3  C   UNL     1       2.953   4.350  18.052  0.00  0.00    +0.000 A 
ATOM      4  C   UNL     1       3.458   5.181  19.066  0.00  0.00    +0.000 A 
ATOM      5  C   UNL     1       4.818   5.501  19.092  0.00  0.00    +0.000 A 
ATOM      6  C   UNL     1       5.673   5.023  18.095  0.00  0.00    +0.000 A 
ATOM      7 BR   UNL     1       7.500   5.553  18.162  0.00  0.00    +0.000 Br
ENDROOT
BRANCH   1   9
ATOM      8  C   UNL     1       5.908   4.297  14.800  0.00  0.00    +0.000 C 
ATOM      9  O   UNL     1       6.080   3.782  16.115  0.00  0.00    +0.000 OA
ENDBRANCH   1   9
BRANCH   4  10
ATOM     10  O   UNL     1       2.556   5.618  20.003  0.00  0.00    +0.000 OA
ATOM     11  C   UNL     1       2.209   6.998  19.961  0.00  0.00    +0.000 C 
ENDBRANCH   4  10
BRANCH   3  12
ATOM     12  C   UNL     1       1.473   4.030  17.935  0.00  0.00    +0.000 C 
BRANCH  12  13
ATOM     13  C   UNL     1       0.970   2.891  18.847  0.00  0.00    +0.000 C 
ATOM     14  C   UNL     1       2.043   1.834  19.111  0.00  0.00    +0.000 C 
BRANCH  13  15
ATOM     15  N   UNL     1       0.515   3.453  20.127  0.00  0.00    +0.000 NA
ATOM     16  H   UNL     1       0.233   2.694  20.751  0.00  0.00    +0.000 HD
ATOM     17  H   UNL     1      -0.322   4.013  19.976  0.00  0.00    +0.000 HD
ENDBRANCH  13  15
ENDBRANCH  12  13
ENDBRANCH   3  12
TORSDOF 5
ENDMDL
MODEL 3
REMARK VINA RESULT:      -5.9      2.205      2.650
REMARK  Name = 
REMARK  8 active torsions:
REMARK  status: ('A' for Active; 'I' for Inactive)
REMARK    1  A    between atoms: C_1  and  O_2
REMARK    2  A    between atoms: O_2  and  C_3
REMARK    3  A    between atoms: C_5  and  C_6
REMARK    4  A    between atoms: C_6  and  C_7
REMARK    5  A    between atoms: C_7  and  C_8
REMARK    6  A    between atoms: C_7  and  N_9
REMARK    7  A    between atoms: C_10  and  O_11
REMARK    8  A    between atoms: O_11  and  C_12
REMARK                            x       y       z     vdW  Elec       q    Type
REMARK                         _______ _______ _______ _____ _____    ______ ____
ROOT
ATOM      1  C   UNL     1       3.827   3.789  18.824  0.00  0.00    +0.000 A 
ATOM      2  C   UNL     1       4.530   4.230  17.699  0.00  0.00    +0.000 A 
ATOM      3  C   UNL     1       4.400   5.550  17.222  0.00  0.00    +0.000 A 
ATOM      4  C   UNL     1       3.538   6.433  17.893  0.00  0.00    +0.000 A 
ATOM      5  C   UNL     1       2.808   5.989  19.000  0.00  0.00    +0.000 A 
ATOM      6  C   UNL     1       2.956   4.677  19.461  0.00  0.00    +0.000 A 
ATOM      7 BR   UNL     1       1.978   4.165  21.010  0.00  0.00    +0.000 Br
ENDROOT
BRANCH   1   9
ATOM      8  C   UNL     1       3.546   1.459  18.456  0.00  0.00    +0.000 C 
ATOM      9  O   UNL     1       3.926   2.517  19.328  0.00  0.00    +0.000 OA
ENDBRANCH   1   9
BRANCH   4  10
ATOM     10  O   UNL     1       3.453   7.705  17.387  0.00  0.00    +0.000 OA
ATOM     11  C   UNL     1       2.354   8.496  17.827  0.00  0.00    +0.000 C 
ENDBRANCH   4  10
BRANCH   3  12
ATOM     12  C   UNL     1       5.270   5.998  16.061  0.00  0.00    +0.000 C 
BRANCH  12  13
ATOM     13  C   UNL     1       6.220   4.923  15.493  0.00  0.00    +0.000 C 
ATOM     14  C   UNL     1       5.707   4.318  14.186  0.00  0.00    +0.000 C 
BRANCH  13  15
ATOM     15  N   UNL     1       7.548   5.513  15.267  0.00  0.00    +0.000 NA
ATOM     16  H   UNL     1       7.732   6.220  15.982  0.00  0.00    +0.000 HD
ATOM     17  H   UNL     1       7.555   6.009  14.378  0.00  0.00    +0.000 HD
ENDBRANCH  13  15
ENDBRANCH  12  13
ENDBRANCH   3  12
TORSDOF 5
ENDMDL
MODEL 4
REMARK VINA RESULT:      -5.9      2.209      2.672
REMARK  Name = 
REMARK  8 active torsions:
REMARK  status: ('A' for Active; 'I' for Inactive)
REMARK    1  A    between atoms: C_1  and  O_2
REMARK    2  A    between atoms: O_2  and  C_3
REMARK    3  A    between atoms: C_5  and  C_6
REMARK    4  A    between atoms: C_6  and  C_7
REMARK    5  A    between atoms: C_7  and  C_8
REMARK    6  A    between atoms: C_7  and  N_9
REMARK    7  A    between atoms: C_10  and  O_11
REMARK    8  A    between atoms: O_11  and  C_12
REMARK                            x       y       z     vdW  Elec       q    Type
REMARK                         _______ _______ _______ _____ _____    ______ ____
ROOT
ATOM      1  C   UNL     1       2.954   3.485  17.963  0.00  0.00    +0.000 A 
ATOM      2  C   UNL     1       3.854   4.084  17.078  0.00  0.00    +0.000 A 
ATOM      3  C   UNL     1       4.055   5.479  17.064  0.00  0.00    +0.000 A 
ATOM      4  C   UNL     1       3.324   6.279  17.959  0.00  0.00    +0.000 A 
ATOM      5  C   UNL     1       2.399   5.689  18.825  0.00  0.00    +0.000 A 
ATOM      6  C   UNL     1       2.220   4.303  18.827  0.00  0.00    +0.000 A 
ATOM      7 BR   UNL     1       0.989   3.568  20.078  0.00  0.00    +0.000 Br
ENDROOT
BRANCH   1   9
ATOM      8  C   UNL     1       3.767   1.342  18.587  0.00  0.00    +0.000 C 
ATOM      9  O   UNL     1       2.731   2.133  18.017  0.00  0.00    +0.000 OA
ENDBRANCH   1   9
BRANCH   4  10
ATOM     10  O   UNL     1       3.562   7.629  17.904  0.00  0.00    +0.000 OA
ATOM     11  C   UNL     1       2.420   8.477  17.849  0.00  0.00    +0.000 C 
ENDBRANCH   4  10
BRANCH   3  12
ATOM     12  C   UNL     1       5.123   6.058  16.153  0.00  0.00    +0.000 C 
BRANCH  12  13
ATOM     13  C   UNL     1       6.515   5.400  16.266  0.00  0.00    +0.000 C 
ATOM     14  C   UNL     1       6.869   4.562  15.038  0.00  0.00    +0.000 C 
BRANCH  13  15
ATOM     15  N   UNL     1       7.535   6.442  16.455  0.00  0.00    +0.000 NA
ATOM     16  H   UNL     1       7.246   7.293  15.967  0.00  0.00    +0.000 HD
ATOM     17  H   UNL     1       8.406   6.152  16.013  0.00  0.00    +0.000 HD
ENDBRANCH  13  15
ENDBRANCH  12  13
ENDBRANCH   3  12
TORSDOF 5
ENDMDL
MODEL 5
REMARK VINA RESULT:      -5.8      3.303      5.129
REMARK  Name = 
REMARK  8 active torsions:
REMARK  status: ('A' for Active; 'I' for Inactive)
REMARK    1  A    between atoms: C_1  and  O_2
REMARK    2  A    between atoms: O_2  and  C_3
REMARK    3  A    between atoms: C_5  and  C_6
REMARK    4  A    between atoms: C_6  and  C_7
REMARK    5  A    between atoms: C_7  and  C_8
REMARK    6  A    between atoms: C_7  and  N_9
REMARK    7  A    between atoms: C_10  and  O_11
REMARK    8  A    between atoms: O_11  and  C_12
REMARK                            x       y       z     vdW  Elec       q    Type
REMARK                         _______ _______ _______ _____ _____    ______ ____
ROOT
ATOM      1  C   UNL     1       5.269   4.613  16.901  0.00  0.00    +0.000 A 
ATOM      2  C   UNL     1       4.013   4.028  17.085  0.00  0.00    +0.000 A 
ATOM      3  C   UNL     1       2.946   4.743  17.665  0.00  0.00    +0.000 A 
ATOM      4  C   UNL     1       3.160   6.071  18.072  0.00  0.00    +0.000 A 
ATOM      5  C   UNL     1       4.422   6.651  17.921  0.00  0.00    +0.000 A 
ATOM      6  C   UNL     1       5.466   5.927  17.336  0.00  0.00    +0.000 A 
ATOM      7 BR   UNL     1       7.137   6.806  17.106  0.00  0.00    +0.000 Br
ENDROOT
BRANCH   1   9
ATOM      8  C   UNL     1       6.338   3.868  14.916  0.00  0.00    +0.000 C 
ATOM      9  O   UNL     1       6.333   3.959  16.336  0.00  0.00    +0.000 OA
ENDBRANCH   1   9
BRANCH   4  10
ATOM     10  O   UNL     1       2.086   6.719  18.627  0.00  0.00    +0.000 OA
ATOM     11  C   UNL     1       2.224   7.141  19.980  0.00  0.00    +0.000 C 
ENDBRANCH   4  10
BRANCH   3  12
ATOM     12  C   UNL     1       1.578   4.087  17.740  0.00  0.00    +0.000 C 
BRANCH  12  13
ATOM     13  C   UNL     1       1.412   3.033  18.855  0.00  0.00    +0.000 C 
ATOM     14  C   UNL     1       0.931   3.643  20.171  0.00  0.00    +0.000 C 
BRANCH  13  15
ATOM     15  N   UNL     1       0.455   2.004  18.417  0.00  0.00    +0.000 NA
ATOM     16  H   UNL     1      -0.461   2.432  18.272  0.00  0.00    +0.000 HD
ATOM     17  H   UNL     1       0.327   1.319  19.160  0.00  0.00    +0.000 HD
ENDBRANCH  13  15
ENDBRANCH  12  13
ENDBRANCH   3  12
TORSDOF 5
ENDMDL
MODEL 6
REMARK VINA RESULT:      -5.8      2.971      5.023
REMARK  Name = 
REMARK  8 active torsions:
REMARK  status: ('A' for Active; 'I' for Inactive)
REMARK    1  A    between atoms: C_1  and  O_2
REMARK    2  A    between atoms: O_2  and  C_3
REMARK    3  A    between atoms: C_5  and  C_6
REMARK    4  A    between atoms: C_6  and  C_7
REMARK    5  A    between atoms: C_7  and  C_8
REMARK    6  A    between atoms: C_7  and  N_9
REMARK    7  A    between atoms: C_10  and  O_11
REMARK    8  A    between atoms: O_11  and  C_12
REMARK                            x       y       z     vdW  Elec       q    Type
REMARK                         _______ _______ _______ _____ _____    ______ ____
ROOT
ATOM      1  C   UNL     1       6.040   4.976  16.666  0.00  0.00    +0.000 A 
ATOM      2  C   UNL     1       4.956   4.094  16.702  0.00  0.00    +0.000 A 
ATOM      3  C   UNL     1       3.746   4.440  17.335  0.00  0.00    +0.000 A 
ATOM      4  C   UNL     1       3.637   5.699  17.948  0.00  0.00    +0.000 A 
ATOM      5  C   UNL     1       4.726   6.574  17.944  0.00  0.00    +0.000 A 
ATOM      6  C   UNL     1       5.916   6.214  17.304  0.00  0.00    +0.000 A 
ATOM      7 BR   UNL     1       7.334   7.483  17.285  0.00  0.00    +0.000 Br
ENDROOT
BRANCH   1   9
ATOM      8  C   UNL     1       7.244   4.725  14.634  0.00  0.00    +0.000 C 
ATOM      9  O   UNL     1       7.233   4.686  16.056  0.00  0.00    +0.000 OA
ENDBRANCH   1   9
BRANCH   4  10
ATOM     10  O   UNL     1       2.435   5.984  18.547  0.00  0.00    +0.000 OA
ATOM     11  C   UNL     1       2.428   6.043  19.969  0.00  0.00    +0.000 C 
ENDBRANCH   4  10
BRANCH   3  12
ATOM     12  C   UNL     1       2.572   3.480  17.248  0.00  0.00    +0.000 C 
BRANCH  12  13
ATOM     13  C   UNL     1       2.341   2.604  18.497  0.00  0.00    +0.000 C 
ATOM     14  C   UNL     1       0.858   2.356  18.773  0.00  0.00    +0.000 C 
BRANCH  13  15
ATOM     15  N   UNL     1       3.026   1.314  18.324  0.00  0.00    +0.000 NA
ATOM     16  H   UNL     1       2.511   0.743  17.651  0.00  0.00    +0.000 HD
ATOM     17  H   UNL     1       3.006   0.796  19.201  0.00  0.00    +0.000 HD
ENDBRANCH  13  15
ENDBRANCH  12  13
ENDBRANCH   3  12
TORSDOF 5
ENDMDL
MODEL 7
REMARK VINA RESULT:      -5.7      0.936      1.199
REMARK  Name = 
REMARK  8 active torsions:
REMARK  status: ('A' for Active; 'I' for Inactive)
REMARK    1  A    between atoms: C_1  and  O_2
REMARK    2  A    between atoms: O_2  and  C_3
REMARK    3  A    between atoms: C_5  and  C_6
REMARK    4  A    between atoms: C_6  and  C_7
REMARK    5  A    between atoms: C_7  and  C_8
REMARK    6  A    between atoms: C_7  and  N_9
REMARK    7  A    between atoms: C_10  and  O_11
REMARK    8  A    between atoms: O_11  and  C_12
REMARK                            x       y       z     vdW  Elec       q    Type
REMARK                         _______ _______ _______ _____ _____    ______ ____
ROOT
ATOM      1  C   UNL     1       2.604   4.283  18.359  0.00  0.00    +0.000 A 
ATOM      2  C   UNL     1       3.287   4.555  17.171  0.00  0.00    +0.000 A 
ATOM      3  C   UNL     1       4.557   5.166  17.176  0.00  0.00    +0.000 A 
ATOM      4  C   UNL     1       5.138   5.513  18.408  0.00  0.00    +0.000 A 
ATOM      5  C   UNL     1       4.447   5.272  19.598  0.00  0.00    +0.000 A 
ATOM      6  C   UNL     1       3.191   4.658  19.571  0.00  0.00    +0.000 A 
ATOM      7 BR   UNL     1       2.338   4.306  21.235  0.00  0.00    +0.000 Br
ENDROOT
BRANCH   1   9
ATOM      8  C   UNL     1       1.359   2.263  18.479  0.00  0.00    +0.000 C 
ATOM      9  O   UNL     1       1.371   3.684  18.403  0.00  0.00    +0.000 OA
ENDBRANCH   1   9
BRANCH   4  10
ATOM     10  O   UNL     1       6.376   6.102  18.353  0.00  0.00    +0.000 OA
ATOM     11  C   UNL     1       7.333   5.669  19.314  0.00  0.00    +0.000 C 
ENDBRANCH   4  10
BRANCH   3  12
ATOM     12  C   UNL     1       5.293   5.339  15.859  0.00  0.00    +0.000 C 
BRANCH  12  13
ATOM     13  C   UNL     1       6.266   4.199  15.492  0.00  0.00    +0.000 C 
ATOM     14  C   UNL     1       6.246   3.870  13.999  0.00  0.00    +0.000 C 
BRANCH  13  15
ATOM     15  N   UNL     1       7.632   4.573  15.890  0.00  0.00    +0.000 NA
ATOM     16  H   UNL     1       8.211   4.684  15.055  0.00  0.00    +0.000 HD
ATOM     17  H   UNL     1       8.053   3.812  16.421  0.00  0.00    +0.000 HD
ENDBRANCH  13  15
ENDBRANCH  12  13
ENDBRANCH   3  12
TORSDOF 5
ENDMDL
MODEL 8
REMARK VINA RESULT:      -5.7      2.005      2.309
REMARK  Name = 
REMARK  8 active torsions:
REMARK  status: ('A' for Active; 'I' for Inactive)
REMARK    1  A    between atoms: C_1  and  O_2
REMARK    2  A    between atoms: O_2  and  C_3
REMARK    3  A    between atoms: C_5  and  C_6
REMARK    4  A    between atoms: C_6  and  C_7
REMARK    5  A    between atoms: C_7  and  C_8
REMARK    6  A    between atoms: C_7  and  N_9
REMARK    7  A    between atoms: C_10  and  O_11
REMARK    8  A    between atoms: O_11  and  C_12
REMARK                            x       y       z     vdW  Elec       q    Type
REMARK                         _______ _______ _______ _____ _____    ______ ____
ROOT
ATOM      1  C   UNL     1       3.802   4.108  17.519  0.00  0.00    +0.000 A 
ATOM      2  C   UNL     1       4.803   3.828  16.585  0.00  0.00    +0.000 A 
ATOM      3  C   UNL     1       5.774   4.788  16.237  0.00  0.00    +0.000 A 
ATOM      4  C   UNL     1       5.723   6.055  16.843  0.00  0.00    +0.000 A 
ATOM      5  C   UNL     1       4.706   6.352  17.754  0.00  0.00    +0.000 A 
ATOM      6  C   UNL     1       3.756   5.383  18.090  0.00  0.00    +0.000 A 
ATOM      7 BR   UNL     1       2.439   5.841  19.385  0.00  0.00    +0.000 Br
ENDROOT
BRANCH   1   9
ATOM      8  C   UNL     1       3.287   1.881  18.165  0.00  0.00    +0.000 C 
ATOM      9  O   UNL     1       2.840   3.205  17.892  0.00  0.00    +0.000 OA
ENDBRANCH   1   9
BRANCH   4  10
ATOM     10  O   UNL     1       6.695   6.949  16.470  0.00  0.00    +0.000 OA
ATOM     11  C   UNL     1       7.521   7.466  17.508  0.00  0.00    +0.000 C 
ENDBRANCH   4  10
BRANCH   3  12
ATOM     12  C   UNL     1       6.897   4.388  15.297  0.00  0.00    +0.000 C 
BRANCH  12  13
ATOM     13  C   UNL     1       6.604   4.591  13.795  0.00  0.00    +0.000 C 
ATOM     14  C   UNL     1       7.782   5.216  13.047  0.00  0.00    +0.000 C 
BRANCH  13  15
ATOM     15  N   UNL     1       6.271   3.296  13.182  0.00  0.00    +0.000 NA
ATOM     16  H   UNL     1       7.118   2.876  12.793  0.00  0.00    +0.000 HD
ATOM     17  H   UNL     1       5.646   3.443  12.391  0.00  0.00    +0.000 HD
ENDBRANCH  13  15
ENDBRANCH  12  13
ENDBRANCH   3  12
TORSDOF 5
ENDMDL
MODEL 9
REMARK VINA RESULT:      -5.6      3.278      5.472
REMARK  Name = 
REMARK  8 active torsions:
REMARK  status: ('A' for Active; 'I' for Inactive)
REMARK    1  A    between atoms: C_1  and  O_2
REMARK    2  A    between atoms: O_2  and  C_3
REMARK    3  A    between atoms: C_5  and  C_6
REMARK    4  A    between atoms: C_6  and  C_7
REMARK    5  A    between atoms: C_7  and  C_8
REMARK    6  A    between atoms: C_7  and  N_9
REMARK    7  A    between atoms: C_10  and  O_11
REMARK    8  A    between atoms: O_11  and  C_12
REMARK                            x       y       z     vdW  Elec       q    Type
REMARK                         _______ _______ _______ _____ _____    ______ ____
ROOT
ATOM      1  C   UNL     1       6.177   5.847  16.911  0.00  0.00    +0.000 A 
ATOM      2  C   UNL     1       5.463   5.915  18.110  0.00  0.00    +0.000 A 
ATOM      3  C   UNL     1       4.422   5.009  18.399  0.00  0.00    +0.000 A 
ATOM      4  C   UNL     1       4.097   4.024  17.451  0.00  0.00    +0.000 A 
ATOM      5  C   UNL     1       4.786   3.970  16.237  0.00  0.00    +0.000 A 
ATOM      6  C   UNL     1       5.820   4.874  15.973  0.00  0.00    +0.000 A 
ATOM      7 BR   UNL     1       6.754   4.698  14.324  0.00  0.00    +0.000 Br
ENDROOT
BRANCH   1   9
ATOM      8  C   UNL     1       7.582   7.637  17.591  0.00  0.00    +0.000 C 
ATOM      9  O   UNL     1       7.201   6.701  16.590  0.00  0.00    +0.000 OA
ENDBRANCH   1   9
BRANCH   4  10
ATOM     10  O   UNL     1       3.079   3.168  17.787  0.00  0.00    +0.000 OA
ATOM     11  C   UNL     1       3.443   1.820  18.067  0.00  0.00    +0.000 C 
ENDBRANCH   4  10
BRANCH   3  12
ATOM     12  C   UNL     1       3.756   5.068  19.762  0.00  0.00    +0.000 C 
BRANCH  12  13
ATOM     13  C   UNL     1       2.319   5.632  19.771  0.00  0.00    +0.000 C 
ATOM     14  C   UNL     1       1.342   4.734  20.529  0.00  0.00    +0.000 C 
BRANCH  13  15
ATOM     15  N   UNL     1       2.322   6.971  20.381  0.00  0.00    +0.000 NA
ATOM     16  H   UNL     1       2.011   6.903  21.352  0.00  0.00    +0.000 HD
ATOM     17  H   UNL     1       1.638   7.561  19.911  0.00  0.00    +0.000 HD
ENDBRANCH  13  15
ENDBRANCH  12  13
ENDBRANCH   3  12
TORSDOF 5
ENDMDL
