MODEL 1
REMARK VINA RESULT:      -7.3      0.000      0.000
REMARK  Name = 
REMARK  4 active torsions:
REMARK  status: ('A' for Active; 'I' for Inactive)
REMARK    1  A    between atoms: C_2  and  C_3
REMARK    2  A    between atoms: C_6  and  S_7
REMARK    3  A    between atoms: S_7  and  C_8
REMARK    4  A    between atoms: N_21  and  C_22
REMARK                            x       y       z     vdW  Elec       q    Type
REMARK                         _______ _______ _______ _____ _____    ______ ____
ROOT
ATOM      1  C   UNL     1       0.662   9.576  19.013  0.00  0.00    +0.000 A 
ATOM      2  C   UNL     1       1.279   9.156  17.837  0.00  0.00    +0.000 A 
ATOM      3  C   UNL     1       2.225   8.132  17.897  0.00  0.00    +0.000 A 
ATOM      4  C   UNL     1       2.518   7.565  19.136  0.00  0.00    +0.000 A 
ATOM      5  N   UNL     1       1.905   7.941  20.281  0.00  0.00    +0.000 NA
ATOM      6  C   UNL     1       0.970   8.908  20.188  0.00  0.00    +0.000 A 
ENDROOT
BRANCH   1   8
ATOM      7  O   UNL     1      -1.506  10.370  18.870  0.00  0.00    +0.000 OA
ATOM      8  C   UNL     1      -0.328  10.674  19.012  0.00  0.00    +0.000 C 
ATOM      9  N   UNL     1       0.131  11.991  19.211  0.00  0.00    +0.000 N 
ATOM     10  C   UNL     1      -0.884  13.023  19.375  0.00  0.00    +0.000 C 
ATOM     11  C   UNL     1      -0.693  13.988  20.541  0.00  0.00    +0.000 C 
ATOM     12  C   UNL     1       0.709  14.425  20.969  0.00  0.00    +0.000 C 
ATOM     13  N   UNL     1       1.783  14.576  19.991  0.00  0.00    +0.000 NA
ATOM     14  C   UNL     1       2.294  13.284  19.524  0.00  0.00    +0.000 C 
ATOM     15  C   UNL     1       1.397  12.443  18.607  0.00  0.00    +0.000 C 
BRANCH  13  16
ATOM     16  C   UNL     1       1.485  15.526  18.914  0.00  0.00    +0.000 C 
ATOM     17  C   UNL     1       1.500  16.971  19.478  0.00  0.00    +0.000 C 
ATOM     18  C   UNL     1       2.376  17.376  18.278  0.00  0.00    +0.000 C 
ATOM     19  C   UNL     1       2.789  15.899  18.155  0.00  0.00    +0.000 C 
ENDBRANCH  13  16
ENDBRANCH   1   8
BRANCH   4  20
ATOM     20  S   UNL     1       3.725   6.269  19.281  0.00  0.00    +0.000 S 
BRANCH  20  21
ATOM     21  C   UNL     1       2.669   4.843  19.104  0.00  0.00    +0.000 A 
ATOM     22  C   UNL     1       2.800   4.053  17.956  0.00  0.00    +0.000 A 
ATOM     23  C   UNL     1       1.974   2.945  17.769  0.00  0.00    +0.000 A 
ATOM     24  C   UNL     1       1.024   2.626  18.734  0.00  0.00    +0.000 A 
ATOM     25  F   UNL     1       0.224   1.570  18.544  0.00  0.00    +0.000 F 
ATOM     26  C   UNL     1       0.889   3.390  19.886  0.00  0.00    +0.000 A 
ATOM     27  C   UNL     1       1.720   4.494  20.076  0.00  0.00    +0.000 A 
ENDBRANCH  20  21
ENDBRANCH   4  20
TORSDOF 4
ENDMDL
MODEL 2
REMARK VINA RESULT:      -7.2      0.590      1.111
REMARK  Name = 
REMARK  4 active torsions:
REMARK  status: ('A' for Active; 'I' for Inactive)
REMARK    1  A    between atoms: C_2  and  C_3
REMARK    2  A    between atoms: C_6  and  S_7
REMARK    3  A    between atoms: S_7  and  C_8
REMARK    4  A    between atoms: N_21  and  C_22
REMARK                            x       y       z     vdW  Elec       q    Type
REMARK                         _______ _______ _______ _____ _____    ______ ____
ROOT
ATOM      1  C   UNL     1       0.554   9.679  19.009  0.00  0.00    +0.000 A 
ATOM      2  C   UNL     1       1.187   9.246  17.846  0.00  0.00    +0.000 A 
ATOM      3  C   UNL     1       2.132   8.222  17.930  0.00  0.00    +0.000 A 
ATOM      4  C   UNL     1       2.408   7.670  19.179  0.00  0.00    +0.000 A 
ATOM      5  N   UNL     1       1.779   8.058  20.312  0.00  0.00    +0.000 NA
ATOM      6  C   UNL     1       0.846   9.024  20.195  0.00  0.00    +0.000 A 
ENDROOT
BRANCH   1   8
ATOM      7  O   UNL     1      -1.565  10.508  18.593  0.00  0.00    +0.000 OA
ATOM      8  C   UNL     1      -0.435  10.778  18.983  0.00  0.00    +0.000 C 
ATOM      9  N   UNL     1      -0.038  12.050  19.438  0.00  0.00    +0.000 N 
ATOM     10  C   UNL     1      -1.081  13.060  19.558  0.00  0.00    +0.000 C 
ATOM     11  C   UNL     1      -1.113  13.854  20.861  0.00  0.00    +0.000 C 
ATOM     12  C   UNL     1       0.184  14.214  21.587  0.00  0.00    +0.000 C 
ATOM     13  N   UNL     1       1.413  14.486  20.845  0.00  0.00    +0.000 NA
ATOM     14  C   UNL     1       2.016  13.266  20.305  0.00  0.00    +0.000 C 
ATOM     15  C   UNL     1       1.309  12.567  19.136  0.00  0.00    +0.000 C 
BRANCH  13  16
ATOM     16  C   UNL     1       1.297  15.578  19.872  0.00  0.00    +0.000 C 
ATOM     17  C   UNL     1       1.064  16.917  20.621  0.00  0.00    +0.000 C 
ATOM     18  C   UNL     1       2.159  17.542  19.737  0.00  0.00    +0.000 C 
ATOM     19  C   UNL     1       2.706  16.122  19.511  0.00  0.00    +0.000 C 
ENDBRANCH  13  16
ENDBRANCH   1   8
BRANCH   4  20
ATOM     20  S   UNL     1       3.612   6.375  19.356  0.00  0.00    +0.000 S 
BRANCH  20  21
ATOM     21  C   UNL     1       2.574   4.950  19.089  0.00  0.00    +0.000 A 
ATOM     22  C   UNL     1       1.726   4.537  20.124  0.00  0.00    +0.000 A 
ATOM     23  C   UNL     1       0.920   3.411  19.963  0.00  0.00    +0.000 A 
ATOM     24  C   UNL     1       0.958   2.705  18.765  0.00  0.00    +0.000 A 
ATOM     25  F   UNL     1       0.192   1.617  18.620  0.00  0.00    +0.000 F 
ATOM     26  C   UNL     1       1.782   3.107  17.722  0.00  0.00    +0.000 A 
ATOM     27  C   UNL     1       2.583   4.238  17.881  0.00  0.00    +0.000 A 
ENDBRANCH  20  21
ENDBRANCH   4  20
TORSDOF 4
ENDMDL
MODEL 3
REMARK VINA RESULT:      -7.0      1.113      1.398
REMARK  Name = 
REMARK  4 active torsions:
REMARK  status: ('A' for Active; 'I' for Inactive)
REMARK    1  A    between atoms: C_2  and  C_3
REMARK    2  A    between atoms: C_6  and  S_7
REMARK    3  A    between atoms: S_7  and  C_8
REMARK    4  A    between atoms: N_21  and  C_22
REMARK                            x       y       z     vdW  Elec       q    Type
REMARK                         _______ _______ _______ _____ _____    ______ ____
ROOT
ATOM      1  C   UNL     1       1.012   9.490  19.140  0.00  0.00    +0.000 A 
ATOM      2  C   UNL     1       1.454   8.505  20.021  0.00  0.00    +0.000 A 
ATOM      3  C   UNL     1       2.380   7.562  19.573  0.00  0.00    +0.000 A 
ATOM      4  C   UNL     1       2.830   7.641  18.256  0.00  0.00    +0.000 A 
ATOM      5  N   UNL     1       2.434   8.610  17.400  0.00  0.00    +0.000 NA
ATOM      6  C   UNL     1       1.565   9.528  17.870  0.00  0.00    +0.000 A 
ENDROOT
BRANCH   1   8
ATOM      7  O   UNL     1      -1.125  10.102  19.781  0.00  0.00    +0.000 OA
ATOM      8  C   UNL     1       0.012  10.498  19.554  0.00  0.00    +0.000 C 
ATOM      9  N   UNL     1       0.428  11.836  19.699  0.00  0.00    +0.000 N 
ATOM     10  C   UNL     1      -0.538  12.766  20.271  0.00  0.00    +0.000 C 
ATOM     11  C   UNL     1      -0.030  13.675  21.385  0.00  0.00    +0.000 C 
ATOM     12  C   UNL     1       1.405  14.206  21.365  0.00  0.00    +0.000 C 
ATOM     13  N   UNL     1       2.080  14.505  20.105  0.00  0.00    +0.000 NA
ATOM     14  C   UNL     1       2.486  13.291  19.392  0.00  0.00    +0.000 C 
ATOM     15  C   UNL     1       1.390  12.429  18.753  0.00  0.00    +0.000 C 
BRANCH  13  16
ATOM     16  C   UNL     1       1.382  15.486  19.267  0.00  0.00    +0.000 C 
ATOM     17  C   UNL     1       1.290  16.839  20.020  0.00  0.00    +0.000 C 
ATOM     18  C   UNL     1       1.777  17.530  18.733  0.00  0.00    +0.000 C 
ATOM     19  C   UNL     1       2.388  16.183  18.311  0.00  0.00    +0.000 C 
ENDBRANCH  13  16
ENDBRANCH   1   8
BRANCH   4  20
ATOM     20  S   UNL     1       3.996   6.462  17.620  0.00  0.00    +0.000 S 
BRANCH  20  21
ATOM     21  C   UNL     1       3.276   4.952  18.238  0.00  0.00    +0.000 A 
ATOM     22  C   UNL     1       2.006   4.580  17.780  0.00  0.00    +0.000 A 
ATOM     23  C   UNL     1       1.399   3.420  18.260  0.00  0.00    +0.000 A 
ATOM     24  C   UNL     1       2.067   2.631  19.192  0.00  0.00    +0.000 A 
ATOM     25  F   UNL     1       1.475   1.526  19.660  0.00  0.00    +0.000 F 
ATOM     26  C   UNL     1       3.332   2.976  19.647  0.00  0.00    +0.000 A 
ATOM     27  C   UNL     1       3.942   4.133  19.161  0.00  0.00    +0.000 A 
ENDBRANCH  20  21
ENDBRANCH   4  20
TORSDOF 4
ENDMDL
MODEL 4
REMARK VINA RESULT:      -6.9      1.265      1.551
REMARK  Name = 
REMARK  4 active torsions:
REMARK  status: ('A' for Active; 'I' for Inactive)
REMARK    1  A    between atoms: C_2  and  C_3
REMARK    2  A    between atoms: C_6  and  S_7
REMARK    3  A    between atoms: S_7  and  C_8
REMARK    4  A    between atoms: N_21  and  C_22
REMARK                            x       y       z     vdW  Elec       q    Type
REMARK                         _______ _______ _______ _____ _____    ______ ____
ROOT
ATOM      1  C   UNL     1       1.010   9.718  19.376  0.00  0.00    +0.000 A 
ATOM      2  C   UNL     1       1.305   9.549  18.025  0.00  0.00    +0.000 A 
ATOM      3  C   UNL     1       1.968   8.391  17.616  0.00  0.00    +0.000 A 
ATOM      4  C   UNL     1       2.311   7.443  18.579  0.00  0.00    +0.000 A 
ATOM      5  N   UNL     1       2.003   7.579  19.888  0.00  0.00    +0.000 NA
ATOM      6  C   UNL     1       1.332   8.691  20.249  0.00  0.00    +0.000 A 
ENDROOT
BRANCH   1   8
ATOM      7  O   UNL     1      -0.742  10.793  20.436  0.00  0.00    +0.000 OA
ATOM      8  C   UNL     1       0.333  10.937  19.868  0.00  0.00    +0.000 C 
ATOM      9  N   UNL     1       0.976  12.178  19.693  0.00  0.00    +0.000 N 
ATOM     10  C   UNL     1       0.364  13.332  20.340  0.00  0.00    +0.000 C 
ATOM     11  C   UNL     1       1.297  14.242  21.133  0.00  0.00    +0.000 C 
ATOM     12  C   UNL     1       2.734  14.483  20.666  0.00  0.00    +0.000 C 
ATOM     13  N   UNL     1       3.070  14.509  19.245  0.00  0.00    +0.000 NA
ATOM     14  C   UNL     1       3.068  13.170  18.650  0.00  0.00    +0.000 C 
ATOM     15  C   UNL     1       1.717  12.470  18.454  0.00  0.00    +0.000 C 
BRANCH  13  16
ATOM     16  C   UNL     1       2.328  15.509  18.470  0.00  0.00    +0.000 C 
ATOM     17  C   UNL     1       2.731  16.932  18.938  0.00  0.00    +0.000 C 
ATOM     18  C   UNL     1       2.892  17.319  17.457  0.00  0.00    +0.000 C 
ATOM     19  C   UNL     1       3.079  15.823  17.147  0.00  0.00    +0.000 C 
ENDBRANCH  13  16
ENDBRANCH   1   8
BRANCH   4  20
ATOM     20  S   UNL     1       3.170   5.955  18.125  0.00  0.00    +0.000 S 
BRANCH  20  21
ATOM     21  C   UNL     1       2.500   4.831  19.337  0.00  0.00    +0.000 A 
ATOM     22  C   UNL     1       1.377   4.069  18.993  0.00  0.00    +0.000 A 
ATOM     23  C   UNL     1       0.809   3.198  19.922  0.00  0.00    +0.000 A 
ATOM     24  C   UNL     1       1.370   3.086  21.191  0.00  0.00    +0.000 A 
ATOM     25  F   UNL     1       0.813   2.260  22.084  0.00  0.00    +0.000 F 
ATOM     26  C   UNL     1       2.492   3.823  21.545  0.00  0.00    +0.000 A 
ATOM     27  C   UNL     1       3.064   4.689  20.613  0.00  0.00    +0.000 A 
ENDBRANCH  20  21
ENDBRANCH   4  20
TORSDOF 4
ENDMDL
MODEL 5
REMARK VINA RESULT:      -6.9      1.143      1.495
REMARK  Name = 
REMARK  4 active torsions:
REMARK  status: ('A' for Active; 'I' for Inactive)
REMARK    1  A    between atoms: C_2  and  C_3
REMARK    2  A    between atoms: C_6  and  S_7
REMARK    3  A    between atoms: S_7  and  C_8
REMARK    4  A    between atoms: N_21  and  C_22
REMARK                            x       y       z     vdW  Elec       q    Type
REMARK                         _______ _______ _______ _____ _____    ______ ____
ROOT
ATOM      1  C   UNL     1       0.742   9.612  18.925  0.00  0.00    +0.000 A 
ATOM      2  C   UNL     1       1.144   8.743  19.938  0.00  0.00    +0.000 A 
ATOM      3  C   UNL     1       2.140   7.803  19.669  0.00  0.00    +0.000 A 
ATOM      4  C   UNL     1       2.697   7.768  18.392  0.00  0.00    +0.000 A 
ATOM      5  N   UNL     1       2.339   8.625  17.409  0.00  0.00    +0.000 NA
ATOM      6  C   UNL     1       1.400   9.545  17.707  0.00  0.00    +0.000 A 
ENDROOT
BRANCH   1   8
ATOM      7  O   UNL     1      -1.480  10.254  18.935  0.00  0.00    +0.000 OA
ATOM      8  C   UNL     1      -0.327  10.609  19.147  0.00  0.00    +0.000 C 
ATOM      9  N   UNL     1       0.034  11.885  19.622  0.00  0.00    +0.000 N 
ATOM     10  C   UNL     1      -1.054  12.781  19.991  0.00  0.00    +0.000 C 
ATOM     11  C   UNL     1      -0.926  13.490  21.336  0.00  0.00    +0.000 C 
ATOM     12  C   UNL     1       0.443  13.931  21.857  0.00  0.00    +0.000 C 
ATOM     13  N   UNL     1       1.494  14.365  20.941  0.00  0.00    +0.000 NA
ATOM     14  C   UNL     1       2.096  13.242  20.217  0.00  0.00    +0.000 C 
ATOM     15  C   UNL     1       1.258  12.547  19.137  0.00  0.00    +0.000 C 
BRANCH  13  16
ATOM     16  C   UNL     1       1.117  15.495  20.086  0.00  0.00    +0.000 C 
ATOM     17  C   UNL     1       1.035  16.787  20.940  0.00  0.00    +0.000 C 
ATOM     18  C   UNL     1       1.866  17.496  19.855  0.00  0.00    +0.000 C 
ATOM     19  C   UNL     1       2.383  16.111  19.428  0.00  0.00    +0.000 C 
ENDBRANCH  13  16
ENDBRANCH   1   8
BRANCH   4  20
ATOM     20  S   UNL     1       3.957   6.585  17.981  0.00  0.00    +0.000 S 
BRANCH  20  21
ATOM     21  C   UNL     1       3.137   5.079  18.470  0.00  0.00    +0.000 A 
ATOM     22  C   UNL     1       3.702   4.313  19.497  0.00  0.00    +0.000 A 
ATOM     23  C   UNL     1       3.105   3.116  19.889  0.00  0.00    +0.000 A 
ATOM     24  C   UNL     1       1.940   2.690  19.257  0.00  0.00    +0.000 A 
ATOM     25  F   UNL     1       1.378   1.534  19.627  0.00  0.00    +0.000 F 
ATOM     26  C   UNL     1       1.358   3.443  18.246  0.00  0.00    +0.000 A 
ATOM     27  C   UNL     1       1.952   4.644  17.859  0.00  0.00    +0.000 A 
ENDBRANCH  20  21
ENDBRANCH   4  20
TORSDOF 4
ENDMDL
MODEL 6
REMARK VINA RESULT:      -6.9      1.025      1.167
REMARK  Name = 
REMARK  4 active torsions:
REMARK  status: ('A' for Active; 'I' for Inactive)
REMARK    1  A    between atoms: C_2  and  C_3
REMARK    2  A    between atoms: C_6  and  S_7
REMARK    3  A    between atoms: S_7  and  C_8
REMARK    4  A    between atoms: N_21  and  C_22
REMARK                            x       y       z     vdW  Elec       q    Type
REMARK                         _______ _______ _______ _____ _____    ______ ____
ROOT
ATOM      1  C   UNL     1       1.053   9.465  19.299  0.00  0.00    +0.000 A 
ATOM      2  C   UNL     1       1.442   9.506  17.961  0.00  0.00    +0.000 A 
ATOM      3  C   UNL     1       2.343   8.551  17.488  0.00  0.00    +0.000 A 
ATOM      4  C   UNL     1       2.822   7.588  18.375  0.00  0.00    +0.000 A 
ATOM      5  N   UNL     1       2.430   7.517  19.667  0.00  0.00    +0.000 NA
ATOM      6  C   UNL     1       1.532   8.431  20.088  0.00  0.00    +0.000 A 
ENDROOT
BRANCH   1   8
ATOM      7  O   UNL     1      -0.956  10.063  20.275  0.00  0.00    +0.000 OA
ATOM      8  C   UNL     1       0.123  10.468  19.860  0.00  0.00    +0.000 C 
ATOM      9  N   UNL     1       0.540  11.811  19.920  0.00  0.00    +0.000 N 
ATOM     10  C   UNL     1      -0.329  12.739  20.632  0.00  0.00    +0.000 C 
ATOM     11  C   UNL     1       0.344  13.667  21.638  0.00  0.00    +0.000 C 
ATOM     12  C   UNL     1       1.749  14.213  21.376  0.00  0.00    +0.000 C 
ATOM     13  N   UNL     1       2.205  14.502  20.019  0.00  0.00    +0.000 NA
ATOM     14  C   UNL     1       2.503  13.283  19.263  0.00  0.00    +0.000 C 
ATOM     15  C   UNL     1       1.327  12.402  18.823  0.00  0.00    +0.000 C 
BRANCH  13  16
ATOM     16  C   UNL     1       1.367  15.465  19.297  0.00  0.00    +0.000 C 
ATOM     17  C   UNL     1       1.334  16.808  20.072  0.00  0.00    +0.000 C 
ATOM     18  C   UNL     1       1.618  17.526  18.740  0.00  0.00    +0.000 C 
ATOM     19  C   UNL     1       2.210  16.203  18.221  0.00  0.00    +0.000 C 
ENDBRANCH  13  16
ENDBRANCH   1   8
BRANCH   4  20
ATOM     20  S   UNL     1       3.983   6.355  17.839  0.00  0.00    +0.000 S 
BRANCH  20  21
ATOM     21  C   UNL     1       3.130   4.879  18.362  0.00  0.00    +0.000 A 
ATOM     22  C   UNL     1       3.725   4.074  19.340  0.00  0.00    +0.000 A 
ATOM     23  C   UNL     1       3.101   2.898  19.755  0.00  0.00    +0.000 A 
ATOM     24  C   UNL     1       1.880   2.534  19.196  0.00  0.00    +0.000 A 
ATOM     25  F   UNL     1       1.291   1.398  19.587  0.00  0.00    +0.000 F 
ATOM     26  C   UNL     1       1.268   3.327  18.235  0.00  0.00    +0.000 A 
ATOM     27  C   UNL     1       1.889   4.507  17.825  0.00  0.00    +0.000 A 
ENDBRANCH  20  21
ENDBRANCH   4  20
TORSDOF 4
ENDMDL
MODEL 7
REMARK VINA RESULT:      -6.8      2.149      2.680
REMARK  Name = 
REMARK  4 active torsions:
REMARK  status: ('A' for Active; 'I' for Inactive)
REMARK    1  A    between atoms: C_2  and  C_3
REMARK    2  A    between atoms: C_6  and  S_7
REMARK    3  A    between atoms: S_7  and  C_8
REMARK    4  A    between atoms: N_21  and  C_22
REMARK                            x       y       z     vdW  Elec       q    Type
REMARK                         _______ _______ _______ _____ _____    ______ ____
ROOT
ATOM      1  C   UNL     1       0.771   9.497  18.778  0.00  0.00    +0.000 A 
ATOM      2  C   UNL     1       1.407   8.879  17.702  0.00  0.00    +0.000 A 
ATOM      3  C   UNL     1       2.242   7.788  17.945  0.00  0.00    +0.000 A 
ATOM      4  C   UNL     1       2.409   7.355  19.259  0.00  0.00    +0.000 A 
ATOM      5  N   UNL     1       1.775   7.924  20.308  0.00  0.00    +0.000 NA
ATOM      6  C   UNL     1       0.947   8.954  20.040  0.00  0.00    +0.000 A 
ENDROOT
BRANCH   1   8
ATOM      7  O   UNL     1      -1.271  10.462  18.279  0.00  0.00    +0.000 OA
ATOM      8  C   UNL     1      -0.103  10.673  18.581  0.00  0.00    +0.000 C 
ATOM      9  N   UNL     1       0.441  11.955  18.789  0.00  0.00    +0.000 N 
ATOM     10  C   UNL     1      -0.488  13.078  18.755  0.00  0.00    +0.000 C 
ATOM     11  C   UNL     1      -0.379  14.087  19.894  0.00  0.00    +0.000 C 
ATOM     12  C   UNL     1       0.981  14.427  20.506  0.00  0.00    +0.000 C 
ATOM     13  N   UNL     1       2.194  14.432  19.693  0.00  0.00    +0.000 NA
ATOM     14  C   UNL     1       2.646  13.078  19.364  0.00  0.00    +0.000 C 
ATOM     15  C   UNL     1       1.818  12.264  18.361  0.00  0.00    +0.000 C 
BRANCH  13  16
ATOM     16  C   UNL     1       2.143  15.342  18.544  0.00  0.00    +0.000 C 
ATOM     17  C   UNL     1       2.543  16.771  18.994  0.00  0.00    +0.000 C 
ATOM     18  C   UNL     1       3.480  16.838  17.775  0.00  0.00    +0.000 C 
ATOM     19  C   UNL     1       3.489  15.299  17.770  0.00  0.00    +0.000 C 
ENDBRANCH  13  16
ENDBRANCH   1   8
BRANCH   4  20
ATOM     20  S   UNL     1       3.471   5.981  19.635  0.00  0.00    +0.000 S 
BRANCH  20  21
ATOM     21  C   UNL     1       4.237   5.736  18.044  0.00  0.00    +0.000 A 
ATOM     22  C   UNL     1       3.991   4.539  17.360  0.00  0.00    +0.000 A 
ATOM     23  C   UNL     1       4.593   4.300  16.126  0.00  0.00    +0.000 A 
ATOM     24  C   UNL     1       5.433   5.262  15.573  0.00  0.00    +0.000 A 
ATOM     25  F   UNL     1       6.019   5.023  14.395  0.00  0.00    +0.000 F 
ATOM     26  C   UNL     1       5.678   6.461  16.229  0.00  0.00    +0.000 A 
ATOM     27  C   UNL     1       5.069   6.703  17.461  0.00  0.00    +0.000 A 
ENDBRANCH  20  21
ENDBRANCH   4  20
TORSDOF 4
ENDMDL
MODEL 8
REMARK VINA RESULT:      -6.8      2.598      3.245
REMARK  Name = 
REMARK  4 active torsions:
REMARK  status: ('A' for Active; 'I' for Inactive)
REMARK    1  A    between atoms: C_2  and  C_3
REMARK    2  A    between atoms: C_6  and  S_7
REMARK    3  A    between atoms: S_7  and  C_8
REMARK    4  A    between atoms: N_21  and  C_22
REMARK                            x       y       z     vdW  Elec       q    Type
REMARK                         _______ _______ _______ _____ _____    ______ ____
ROOT
ATOM      1  C   UNL     1      -0.268  10.020  19.256  0.00  0.00    +0.000 A 
ATOM      2  C   UNL     1       0.009   9.372  20.459  0.00  0.00    +0.000 A 
ATOM      3  C   UNL     1       1.081   8.481  20.518  0.00  0.00    +0.000 A 
ATOM      4  C   UNL     1       1.838   8.271  19.367  0.00  0.00    +0.000 A 
ATOM      5  N   UNL     1       1.602   8.916  18.202  0.00  0.00    +0.000 NA
ATOM      6  C   UNL     1       0.581   9.796  18.184  0.00  0.00    +0.000 A 
ENDROOT
BRANCH   1   8
ATOM      7  O   UNL     1      -2.078  10.887  18.107  0.00  0.00    +0.000 OA
ATOM      8  C   UNL     1      -1.408  10.953  19.130  0.00  0.00    +0.000 C 
ATOM      9  N   UNL     1      -1.680  11.828  20.199  0.00  0.00    +0.000 N 
ATOM     10  C   UNL     1      -2.907  12.609  20.113  0.00  0.00    +0.000 C 
ATOM     11  C   UNL     1      -3.789  12.631  21.358  0.00  0.00    +0.000 C 
ATOM     12  C   UNL     1      -3.166  12.608  22.755  0.00  0.00    +0.000 C 
ATOM     13  N   UNL     1      -1.883  13.252  23.019  0.00  0.00    +0.000 NA
ATOM     14  C   UNL     1      -0.757  12.492  22.470  0.00  0.00    +0.000 C 
ATOM     15  C   UNL     1      -0.580  12.463  20.947  0.00  0.00    +0.000 C 
BRANCH  13  16
ATOM     16  C   UNL     1      -1.852  14.683  22.697  0.00  0.00    +0.000 C 
ATOM     17  C   UNL     1      -2.765  15.457  23.683  0.00  0.00    +0.000 C 
ATOM     18  C   UNL     1      -1.618  16.465  23.876  0.00  0.00    +0.000 C 
ATOM     19  C   UNL     1      -0.650  15.364  23.409  0.00  0.00    +0.000 C 
ENDBRANCH  13  16
ENDBRANCH   1   8
BRANCH   4  20
ATOM     20  S   UNL     1       3.207   7.138  19.372  0.00  0.00    +0.000 S 
BRANCH  20  21
ATOM     21  C   UNL     1       2.328   5.592  19.242  0.00  0.00    +0.000 A 
ATOM     22  C   UNL     1       2.163   5.021  17.974  0.00  0.00    +0.000 A 
ATOM     23  C   UNL     1       1.459   3.827  17.828  0.00  0.00    +0.000 A 
ATOM     24  C   UNL     1       0.926   3.202  18.953  0.00  0.00    +0.000 A 
ATOM     25  F   UNL     1       0.239   2.063  18.807  0.00  0.00    +0.000 F 
ATOM     26  C   UNL     1       1.091   3.746  20.219  0.00  0.00    +0.000 A 
ATOM     27  C   UNL     1       1.802   4.937  20.365  0.00  0.00    +0.000 A 
ENDBRANCH  20  21
ENDBRANCH   4  20
TORSDOF 4
ENDMDL
MODEL 9
REMARK VINA RESULT:      -6.8      2.829      4.098
REMARK  Name = 
REMARK  4 active torsions:
REMARK  status: ('A' for Active; 'I' for Inactive)
REMARK    1  A    between atoms: C_2  and  C_3
REMARK    2  A    between atoms: C_6  and  S_7
REMARK    3  A    between atoms: S_7  and  C_8
REMARK    4  A    between atoms: N_21  and  C_22
REMARK                            x       y       z     vdW  Elec       q    Type
REMARK                         _______ _______ _______ _____ _____    ______ ____
ROOT
ATOM      1  C   UNL     1       1.409   9.053  19.783  0.00  0.00    +0.000 A 
ATOM      2  C   UNL     1       1.741   9.386  18.471  0.00  0.00    +0.000 A 
ATOM      3  C   UNL     1       2.530   8.507  17.728  0.00  0.00    +0.000 A 
ATOM      4  C   UNL     1       2.959   7.325  18.328  0.00  0.00    +0.000 A 
ATOM      5  N   UNL     1       2.620   6.974  19.589  0.00  0.00    +0.000 NA
ATOM      6  C   UNL     1       1.828   7.825  20.272  0.00  0.00    +0.000 A 
ENDROOT
BRANCH   1   8
ATOM      7  O   UNL     1       0.985  10.159  21.770  0.00  0.00    +0.000 OA
ATOM      8  C   UNL     1       0.599   9.959  20.624  0.00  0.00    +0.000 C 
ATOM      9  N   UNL     1      -0.537  10.566  20.055  0.00  0.00    +0.000 N 
ATOM     10  C   UNL     1      -1.211  11.581  20.855  0.00  0.00    +0.000 C 
ATOM     11  C   UNL     1      -1.558  12.887  20.147  0.00  0.00    +0.000 C 
ATOM     12  C   UNL     1      -1.966  12.889  18.673  0.00  0.00    +0.000 C 
ATOM     13  N   UNL     1      -2.709  11.773  18.094  0.00  0.00    +0.000 NA
ATOM     14  C   UNL     1      -1.867  10.592  17.892  0.00  0.00    +0.000 C 
ATOM     15  C   UNL     1      -1.405   9.814  19.131  0.00  0.00    +0.000 C 
BRANCH  13  16
ATOM     16  C   UNL     1      -3.985  11.492  18.761  0.00  0.00    +0.000 C 
ATOM     17  C   UNL     1      -5.033  12.558  18.346  0.00  0.00    +0.000 C 
ATOM     18  C   UNL     1      -6.025  11.409  18.087  0.00  0.00    +0.000 C 
ATOM     19  C   UNL     1      -4.811  10.476  17.924  0.00  0.00    +0.000 C 
ENDBRANCH  13  16
ENDBRANCH   1   8
BRANCH   4  20
ATOM     20  S   UNL     1       3.979   6.172  17.442  0.00  0.00    +0.000 S 
BRANCH  20  21
ATOM     21  C   UNL     1       3.284   4.635  18.020  0.00  0.00    +0.000 A 
ATOM     22  C   UNL     1       1.937   4.366  17.748  0.00  0.00    +0.000 A 
ATOM     23  C   UNL     1       1.351   3.188  18.207  0.00  0.00    +0.000 A 
ATOM     24  C   UNL     1       2.114   2.277  18.931  0.00  0.00    +0.000 A 
ATOM     25  F   UNL     1       1.544   1.154  19.381  0.00  0.00    +0.000 F 
ATOM     26  C   UNL     1       3.455   2.520  19.199  0.00  0.00    +0.000 A 
ATOM     27  C   UNL     1       4.043   3.696  18.733  0.00  0.00    +0.000 A 
ENDBRANCH  20  21
ENDBRANCH   4  20
TORSDOF 4
ENDMDL
