MODEL 1
REMARK VINA RESULT:      -8.7      0.000      0.000
REMARK  Name = 
REMARK  9 active torsions:
REMARK  status: ('A' for Active; 'I' for Inactive)
REMARK    1  A    between atoms: C_1  and  C_2
REMARK    2  A    between atoms: C_2  and  C_3
REMARK    3  A    between atoms: C_3  and  N_4
REMARK    4  A    between atoms: C_3  and  C_27
REMARK    5  A    between atoms: C_5  and  C_7
REMARK    6  A    between atoms: N_15  and  C_16
REMARK    7  A    between atoms: C_16  and  C_17
REMARK    8  A    between atoms: C_22  and  S_23
REMARK    9  A    between atoms: S_23  and  C_24
REMARK                            x       y       z     vdW  Elec       q    Type
REMARK                         _______ _______ _______ _____ _____    ______ ____
ROOT
ATOM      1  C   UNL     1       3.166   6.760  18.714  0.00  0.00    +0.000 A 
ATOM      2  C   UNL     1       3.151   7.777  17.751  0.00  0.00    +0.000 A 
ATOM      3  C   UNL     1       2.362   8.921  17.909  0.00  0.00    +0.000 A 
ATOM      4  C   UNL     1       1.575   8.988  19.063  0.00  0.00    +0.000 A 
ATOM      5  C   UNL     1       1.608   8.014  20.058  0.00  0.00    +0.000 A 
ATOM      6  C   UNL     1       2.424   6.884  19.900  0.00  0.00    +0.000 A 
ATOM      7  N   UNL     1       0.770   8.335  21.093  0.00  0.00    +0.000 NA
ATOM      8  C   UNL     1       0.178   9.448  20.724  0.00  0.00    +0.000 A 
ATOM      9  N   UNL     1       0.627   9.884  19.504  0.00  0.00    +0.000 N 
ENDROOT
BRANCH   1  11
ATOM     10  N   UNL     1       5.223   5.779  17.884  0.00  0.00    +0.000 N 
ATOM     11  C   UNL     1       3.985   5.550  18.440  0.00  0.00    +0.000 C 
ATOM     12  O   UNL     1       3.562   4.441  18.745  0.00  0.00    +0.000 OA
ATOM     13  H   UNL     1       5.545   6.727  17.760  0.00  0.00    +0.000 HD
BRANCH  10  14
ATOM     14  C   UNL     1       6.155   4.709  17.564  0.00  0.00    +0.000 C 
BRANCH  14  15
ATOM     15  C   UNL     1       6.243   4.574  16.048  0.00  0.00    +0.000 A 
ATOM     16  C   UNL     1       5.203   3.967  15.330  0.00  0.00    +0.000 A 
ATOM     17  C   UNL     1       5.288   3.822  13.942  0.00  0.00    +0.000 A 
ATOM     18  C   UNL     1       6.407   4.291  13.255  0.00  0.00    +0.000 A 
ATOM     19  C   UNL     1       7.438   4.915  13.952  0.00  0.00    +0.000 A 
ATOM     20  C   UNL     1       7.358   5.055  15.337  0.00  0.00    +0.000 A 
ENDBRANCH  14  15
BRANCH  14  22
ATOM     21  C   UNL     1       7.820   6.365  18.636  0.00  0.00    +0.000 C 
ATOM     22  C   UNL     1       7.561   4.943  18.160  0.00  0.00    +0.000 C 
ENDBRANCH  14  22
ENDBRANCH  10  14
ENDBRANCH   1  11
BRANCH   9  23
ATOM     23  C   UNL     1       0.056  10.990  18.735  0.00  0.00    +0.000 C 
BRANCH  23  24
ATOM     24  C   UNL     1      -1.401  10.823  18.347  0.00  0.00    +0.000 A 
ATOM     25  C   UNL     1      -1.745   9.976  17.270  0.00  0.00    +0.000 A 
ATOM     26  C   UNL     1      -3.040   9.918  16.747  0.00  0.00    +0.000 A 
ATOM     27  C   UNL     1      -4.042  10.705  17.295  0.00  0.00    +0.000 A 
ATOM     28  C   UNL     1      -3.756  11.520  18.384  0.00  0.00    +0.000 A 
ATOM     29  C   UNL     1      -2.453  11.582  18.917  0.00  0.00    +0.000 A 
BRANCH  29  30
ATOM     30  S   UNL     1      -2.244  12.728  20.283  0.00  0.00    +0.000 S 
ATOM     31  C   UNL     1      -3.880  13.365  20.556  0.00  0.00    +0.000 C 
ATOM     32  O   UNL     1      -1.841  11.972  21.456  0.00  0.00    +0.000 OA
ATOM     33  O   UNL     1      -1.418  13.820  19.811  0.00  0.00    +0.000 OA
ENDBRANCH  29  30
ENDBRANCH  23  24
ENDBRANCH   9  23
TORSDOF 7
ENDMDL
MODEL 2
REMARK VINA RESULT:      -8.5      0.678      1.162
REMARK  Name = 
REMARK  9 active torsions:
REMARK  status: ('A' for Active; 'I' for Inactive)
REMARK    1  A    between atoms: C_1  and  C_2
REMARK    2  A    between atoms: C_2  and  C_3
REMARK    3  A    between atoms: C_3  and  N_4
REMARK    4  A    between atoms: C_3  and  C_27
REMARK    5  A    between atoms: C_5  and  C_7
REMARK    6  A    between atoms: N_15  and  C_16
REMARK    7  A    between atoms: C_16  and  C_17
REMARK    8  A    between atoms: C_22  and  S_23
REMARK    9  A    between atoms: S_23  and  C_24
REMARK                            x       y       z     vdW  Elec       q    Type
REMARK                         _______ _______ _______ _____ _____    ______ ____
ROOT
ATOM      1  C   UNL     1       3.128   6.719  18.568  0.00  0.00    +0.000 A 
ATOM      2  C   UNL     1       3.077   7.757  17.629  0.00  0.00    +0.000 A 
ATOM      3  C   UNL     1       2.320   8.911  17.857  0.00  0.00    +0.000 A 
ATOM      4  C   UNL     1       1.600   8.965  19.055  0.00  0.00    +0.000 A 
ATOM      5  C   UNL     1       1.671   7.968  20.025  0.00  0.00    +0.000 A 
ATOM      6  C   UNL     1       2.456   6.829  19.797  0.00  0.00    +0.000 A 
ATOM      7  N   UNL     1       0.898   8.280  21.113  0.00  0.00    +0.000 NA
ATOM      8  C   UNL     1       0.307   9.411  20.802  0.00  0.00    +0.000 A 
ATOM      9  N   UNL     1       0.695   9.867  19.569  0.00  0.00    +0.000 N 
ENDROOT
BRANCH   1  11
ATOM     10  N   UNL     1       5.231   5.707  17.909  0.00  0.00    +0.000 N 
ATOM     11  C   UNL     1       3.907   5.502  18.221  0.00  0.00    +0.000 C 
ATOM     12  O   UNL     1       3.375   4.399  18.266  0.00  0.00    +0.000 OA
ATOM     13  H   UNL     1       5.626   6.633  17.998  0.00  0.00    +0.000 HD
BRANCH  10  14
ATOM     14  C   UNL     1       6.139   4.626  17.559  0.00  0.00    +0.000 C 
BRANCH  14  15
ATOM     15  C   UNL     1       6.229   4.534  16.040  0.00  0.00    +0.000 A 
ATOM     16  C   UNL     1       7.334   5.069  15.363  0.00  0.00    +0.000 A 
ATOM     17  C   UNL     1       7.413   5.005  13.969  0.00  0.00    +0.000 A 
ATOM     18  C   UNL     1       6.394   4.397  13.236  0.00  0.00    +0.000 A 
ATOM     19  C   UNL     1       5.300   3.844  13.896  0.00  0.00    +0.000 A 
ATOM     20  C   UNL     1       5.217   3.912  15.286  0.00  0.00    +0.000 A 
ENDBRANCH  14  15
BRANCH  14  22
ATOM     21  C   UNL     1       7.790   6.162  18.814  0.00  0.00    +0.000 C 
ATOM     22  C   UNL     1       7.548   4.807  18.166  0.00  0.00    +0.000 C 
ENDBRANCH  14  22
ENDBRANCH  10  14
ENDBRANCH   1  11
BRANCH   9  23
ATOM     23  C   UNL     1       0.102  11.000  18.858  0.00  0.00    +0.000 C 
BRANCH  23  24
ATOM     24  C   UNL     1      -1.363  10.841  18.496  0.00  0.00    +0.000 A 
ATOM     25  C   UNL     1      -1.743   9.890  17.522  0.00  0.00    +0.000 A 
ATOM     26  C   UNL     1      -3.043   9.818  17.013  0.00  0.00    +0.000 A 
ATOM     27  C   UNL     1      -4.014  10.696  17.473  0.00  0.00    +0.000 A 
ATOM     28  C   UNL     1      -3.692  11.619  18.462  0.00  0.00    +0.000 A 
ATOM     29  C   UNL     1      -2.384  11.695  18.980  0.00  0.00    +0.000 A 
BRANCH  29  30
ATOM     30  S   UNL     1      -2.126  12.979  20.207  0.00  0.00    +0.000 S 
ATOM     31  C   UNL     1      -1.669  12.081  21.671  0.00  0.00    +0.000 C 
ATOM     32  O   UNL     1      -0.995  13.789  19.791  0.00  0.00    +0.000 OA
ATOM     33  O   UNL     1      -3.409  13.605  20.457  0.00  0.00    +0.000 OA
ENDBRANCH  29  30
ENDBRANCH  23  24
ENDBRANCH   9  23
TORSDOF 7
ENDMDL
MODEL 3
REMARK VINA RESULT:      -8.3      1.280      1.919
REMARK  Name = 
REMARK  9 active torsions:
REMARK  status: ('A' for Active; 'I' for Inactive)
REMARK    1  A    between atoms: C_1  and  C_2
REMARK    2  A    between atoms: C_2  and  C_3
REMARK    3  A    between atoms: C_3  and  N_4
REMARK    4  A    between atoms: C_3  and  C_27
REMARK    5  A    between atoms: C_5  and  C_7
REMARK    6  A    between atoms: N_15  and  C_16
REMARK    7  A    between atoms: C_16  and  C_17
REMARK    8  A    between atoms: C_22  and  S_23
REMARK    9  A    between atoms: S_23  and  C_24
REMARK                            x       y       z     vdW  Elec       q    Type
REMARK                         _______ _______ _______ _____ _____    ______ ____
ROOT
ATOM      1  C   UNL     1       2.444   7.076  19.213  0.00  0.00    +0.000 A 
ATOM      2  C   UNL     1       2.330   7.976  18.145  0.00  0.00    +0.000 A 
ATOM      3  C   UNL     1       1.655   9.193  18.286  0.00  0.00    +0.000 A 
ATOM      4  C   UNL     1       1.084   9.456  19.536  0.00  0.00    +0.000 A 
ATOM      5  C   UNL     1       1.224   8.600  20.626  0.00  0.00    +0.000 A 
ATOM      6  C   UNL     1       1.927   7.395  20.479  0.00  0.00    +0.000 A 
ATOM      7  N   UNL     1       0.599   9.106  21.735  0.00  0.00    +0.000 NA
ATOM      8  C   UNL     1       0.025  10.216  21.331  0.00  0.00    +0.000 A 
ATOM      9  N   UNL     1       0.286  10.472  20.010  0.00  0.00    +0.000 N 
ENDROOT
BRANCH   1  11
ATOM     10  N   UNL     1       2.941   5.239  17.710  0.00  0.00    +0.000 N 
ATOM     11  C   UNL     1       3.124   5.779  18.963  0.00  0.00    +0.000 C 
ATOM     12  O   UNL     1       3.829   5.277  19.831  0.00  0.00    +0.000 OA
ATOM     13  H   UNL     1       2.434   5.763  17.012  0.00  0.00    +0.000 HD
BRANCH  10  14
ATOM     14  C   UNL     1       3.545   3.983  17.294  0.00  0.00    +0.000 C 
BRANCH  14  15
ATOM     15  C   UNL     1       4.886   4.278  16.634  0.00  0.00    +0.000 A 
ATOM     16  C   UNL     1       4.968   4.451  15.245  0.00  0.00    +0.000 A 
ATOM     17  C   UNL     1       6.199   4.703  14.632  0.00  0.00    +0.000 A 
ATOM     18  C   UNL     1       7.359   4.796  15.400  0.00  0.00    +0.000 A 
ATOM     19  C   UNL     1       7.290   4.647  16.782  0.00  0.00    +0.000 A 
ATOM     20  C   UNL     1       6.064   4.390  17.395  0.00  0.00    +0.000 A 
ENDBRANCH  14  15
BRANCH  14  22
ATOM     21  C   UNL     1       2.807   1.788  18.435  0.00  0.00    +0.000 C 
ATOM     22  C   UNL     1       3.735   2.993  18.466  0.00  0.00    +0.000 C 
ENDBRANCH  14  22
ENDBRANCH  10  14
ENDBRANCH   1  11
BRANCH   9  23
ATOM     23  C   UNL     1      -0.336  11.530  19.212  0.00  0.00    +0.000 C 
BRANCH  23  24
ATOM     24  C   UNL     1      -1.732  11.219  18.704  0.00  0.00    +0.000 A 
ATOM     25  C   UNL     1      -1.898  10.339  17.610  0.00  0.00    +0.000 A 
ATOM     26  C   UNL     1      -3.132  10.153  16.980  0.00  0.00    +0.000 A 
ATOM     27  C   UNL     1      -4.249  10.839  17.432  0.00  0.00    +0.000 A 
ATOM     28  C   UNL     1      -4.138  11.682  18.532  0.00  0.00    +0.000 A 
ATOM     29  C   UNL     1      -2.897  11.873  19.173  0.00  0.00    +0.000 A 
BRANCH  29  30
ATOM     30  S   UNL     1      -2.919  13.037  20.539  0.00  0.00    +0.000 S 
ATOM     31  C   UNL     1      -4.581  13.666  20.534  0.00  0.00    +0.000 C 
ATOM     32  O   UNL     1      -2.708  12.299  21.772  0.00  0.00    +0.000 OA
ATOM     33  O   UNL     1      -2.033  14.130  20.193  0.00  0.00    +0.000 OA
ENDBRANCH  29  30
ENDBRANCH  23  24
ENDBRANCH   9  23
TORSDOF 7
ENDMDL
MODEL 4
REMARK VINA RESULT:      -8.3      2.850      9.310
REMARK  Name = 
REMARK  9 active torsions:
REMARK  status: ('A' for Active; 'I' for Inactive)
REMARK    1  A    between atoms: C_1  and  C_2
REMARK    2  A    between atoms: C_2  and  C_3
REMARK    3  A    between atoms: C_3  and  N_4
REMARK    4  A    between atoms: C_3  and  C_27
REMARK    5  A    between atoms: C_5  and  C_7
REMARK    6  A    between atoms: N_15  and  C_16
REMARK    7  A    between atoms: C_16  and  C_17
REMARK    8  A    between atoms: C_22  and  S_23
REMARK    9  A    between atoms: S_23  and  C_24
REMARK                            x       y       z     vdW  Elec       q    Type
REMARK                         _______ _______ _______ _____ _____    ______ ____
ROOT
ATOM      1  C   UNL     1       2.106   8.173  18.638  0.00  0.00    +0.000 A 
ATOM      2  C   UNL     1       2.982   7.735  17.636  0.00  0.00    +0.000 A 
ATOM      3  C   UNL     1       3.559   6.462  17.677  0.00  0.00    +0.000 A 
ATOM      4  C   UNL     1       3.236   5.658  18.775  0.00  0.00    +0.000 A 
ATOM      5  C   UNL     1       2.332   6.052  19.759  0.00  0.00    +0.000 A 
ATOM      6  C   UNL     1       1.738   7.321  19.692  0.00  0.00    +0.000 A 
ATOM      7  N   UNL     1       2.168   5.071  20.702  0.00  0.00    +0.000 NA
ATOM      8  C   UNL     1       3.000   4.116  20.353  0.00  0.00    +0.000 A 
ATOM      9  N   UNL     1       3.671   4.422  19.196  0.00  0.00    +0.000 N 
ENDROOT
BRANCH   1  11
ATOM     10  N   UNL     1       0.383   9.791  19.180  0.00  0.00    +0.000 N 
ATOM     11  C   UNL     1       1.585   9.562  18.552  0.00  0.00    +0.000 C 
ATOM     12  O   UNL     1       2.239  10.429  17.983  0.00  0.00    +0.000 OA
ATOM     13  H   UNL     1      -0.045   9.053  19.720  0.00  0.00    +0.000 HD
BRANCH  10  14
ATOM     14  C   UNL     1      -0.262  11.095  19.204  0.00  0.00    +0.000 C 
BRANCH  14  15
ATOM     15  C   UNL     1      -1.601  10.992  18.482  0.00  0.00    +0.000 A 
ATOM     16  C   UNL     1      -2.683  11.788  18.882  0.00  0.00    +0.000 A 
ATOM     17  C   UNL     1      -3.919  11.684  18.237  0.00  0.00    +0.000 A 
ATOM     18  C   UNL     1      -4.084  10.792  17.178  0.00  0.00    +0.000 A 
ATOM     19  C   UNL     1      -3.013  10.010  16.756  0.00  0.00    +0.000 A 
ATOM     20  C   UNL     1      -1.781  10.108  17.402  0.00  0.00    +0.000 A 
ENDBRANCH  14  15
BRANCH  14  22
ATOM     21  C   UNL     1      -0.193  10.624  21.741  0.00  0.00    +0.000 C 
ATOM     22  C   UNL     1      -0.470  11.634  20.637  0.00  0.00    +0.000 C 
ENDBRANCH  14  22
ENDBRANCH  10  14
ENDBRANCH   1  11
BRANCH   9  23
ATOM     23  C   UNL     1       4.783   3.656  18.632  0.00  0.00    +0.000 C 
BRANCH  23  24
ATOM     24  C   UNL     1       5.368   4.216  17.349  0.00  0.00    +0.000 A 
ATOM     25  C   UNL     1       4.801   3.854  16.106  0.00  0.00    +0.000 A 
ATOM     26  C   UNL     1       5.399   4.186  14.886  0.00  0.00    +0.000 A 
ATOM     27  C   UNL     1       6.585   4.903  14.871  0.00  0.00    +0.000 A 
ATOM     28  C   UNL     1       7.154   5.316  16.071  0.00  0.00    +0.000 A 
ATOM     29  C   UNL     1       6.556   4.986  17.303  0.00  0.00    +0.000 A 
BRANCH  29  30
ATOM     30  S   UNL     1       7.450   5.548  18.755  0.00  0.00    +0.000 S 
ATOM     31  C   UNL     1       8.032   7.163  18.297  0.00  0.00    +0.000 C 
ATOM     32  O   UNL     1       6.503   5.690  19.848  0.00  0.00    +0.000 OA
ATOM     33  O   UNL     1       8.607   4.690  18.912  0.00  0.00    +0.000 OA
ENDBRANCH  29  30
ENDBRANCH  23  24
ENDBRANCH   9  23
TORSDOF 7
ENDMDL
MODEL 5
REMARK VINA RESULT:      -8.2      3.125      9.294
REMARK  Name = 
REMARK  9 active torsions:
REMARK  status: ('A' for Active; 'I' for Inactive)
REMARK    1  A    between atoms: C_1  and  C_2
REMARK    2  A    between atoms: C_2  and  C_3
REMARK    3  A    between atoms: C_3  and  N_4
REMARK    4  A    between atoms: C_3  and  C_27
REMARK    5  A    between atoms: C_5  and  C_7
REMARK    6  A    between atoms: N_15  and  C_16
REMARK    7  A    between atoms: C_16  and  C_17
REMARK    8  A    between atoms: C_22  and  S_23
REMARK    9  A    between atoms: S_23  and  C_24
REMARK                            x       y       z     vdW  Elec       q    Type
REMARK                         _______ _______ _______ _____ _____    ______ ____
ROOT
ATOM      1  C   UNL     1       1.686   7.686  20.080  0.00  0.00    +0.000 A 
ATOM      2  C   UNL     1       2.419   7.733  18.886  0.00  0.00    +0.000 A 
ATOM      3  C   UNL     1       3.101   6.611  18.405  0.00  0.00    +0.000 A 
ATOM      4  C   UNL     1       3.033   5.450  19.183  0.00  0.00    +0.000 A 
ATOM      5  C   UNL     1       2.274   5.365  20.347  0.00  0.00    +0.000 A 
ATOM      6  C   UNL     1       1.571   6.489  20.805  0.00  0.00    +0.000 A 
ATOM      7  N   UNL     1       2.353   4.112  20.898  0.00  0.00    +0.000 NA
ATOM      8  C   UNL     1       3.194   3.453  20.135  0.00  0.00    +0.000 A 
ATOM      9  N   UNL     1       3.636   4.217  19.085  0.00  0.00    +0.000 N 
ENDROOT
BRANCH   1  11
ATOM     10  N   UNL     1       0.585   9.785  19.568  0.00  0.00    +0.000 N 
ATOM     11  C   UNL     1       1.041   8.939  20.552  0.00  0.00    +0.000 C 
ATOM     12  O   UNL     1       0.906   9.145  21.753  0.00  0.00    +0.000 OA
ATOM     13  H   UNL     1       0.635   9.498  18.601  0.00  0.00    +0.000 HD
BRANCH  10  14
ATOM     14  C   UNL     1      -0.081  11.046  19.855  0.00  0.00    +0.000 C 
BRANCH  14  15
ATOM     15  C   UNL     1       0.941  12.173  19.762  0.00  0.00    +0.000 A 
ATOM     16  C   UNL     1       1.097  13.076  20.823  0.00  0.00    +0.000 A 
ATOM     17  C   UNL     1       2.020  14.123  20.735  0.00  0.00    +0.000 A 
ATOM     18  C   UNL     1       2.803  14.273  19.592  0.00  0.00    +0.000 A 
ATOM     19  C   UNL     1       2.675  13.371  18.539  0.00  0.00    +0.000 A 
ATOM     20  C   UNL     1       1.751  12.330  18.623  0.00  0.00    +0.000 A 
ENDBRANCH  14  15
BRANCH  14  22
ATOM     21  C   UNL     1      -1.477  10.276  17.825  0.00  0.00    +0.000 C 
ATOM     22  C   UNL     1      -1.269  11.326  18.907  0.00  0.00    +0.000 C 
ENDBRANCH  14  22
ENDBRANCH  10  14
ENDBRANCH   1  11
BRANCH   9  23
ATOM     23  C   UNL     1       4.701   3.843  18.154  0.00  0.00    +0.000 C 
BRANCH  23  24
ATOM     24  C   UNL     1       5.923   4.742  18.176  0.00  0.00    +0.000 A 
ATOM     25  C   UNL     1       6.601   4.971  19.396  0.00  0.00    +0.000 A 
ATOM     26  C   UNL     1       7.615   5.924  19.521  0.00  0.00    +0.000 A 
ATOM     27  C   UNL     1       7.995   6.677  18.420  0.00  0.00    +0.000 A 
ATOM     28  C   UNL     1       7.384   6.453  17.192  0.00  0.00    +0.000 A 
ATOM     29  C   UNL     1       6.361   5.493  17.058  0.00  0.00    +0.000 A 
BRANCH  29  30
ATOM     30  S   UNL     1       5.641   5.372  15.418  0.00  0.00    +0.000 S 
ATOM     31  C   UNL     1       7.026   4.978  14.375  0.00  0.00    +0.000 C 
ATOM     32  O   UNL     1       4.720   4.250  15.406  0.00  0.00    +0.000 OA
ATOM     33  O   UNL     1       5.174   6.693  15.051  0.00  0.00    +0.000 OA
ENDBRANCH  29  30
ENDBRANCH  23  24
ENDBRANCH   9  23
TORSDOF 7
ENDMDL
MODEL 6
REMARK VINA RESULT:      -8.2      3.101      9.282
REMARK  Name = 
REMARK  9 active torsions:
REMARK  status: ('A' for Active; 'I' for Inactive)
REMARK    1  A    between atoms: C_1  and  C_2
REMARK    2  A    between atoms: C_2  and  C_3
REMARK    3  A    between atoms: C_3  and  N_4
REMARK    4  A    between atoms: C_3  and  C_27
REMARK    5  A    between atoms: C_5  and  C_7
REMARK    6  A    between atoms: N_15  and  C_16
REMARK    7  A    between atoms: C_16  and  C_17
REMARK    8  A    between atoms: C_22  and  S_23
REMARK    9  A    between atoms: S_23  and  C_24
REMARK                            x       y       z     vdW  Elec       q    Type
REMARK                         _______ _______ _______ _____ _____    ______ ____
ROOT
ATOM      1  C   UNL     1       1.487   8.249  19.896  0.00  0.00    +0.000 A 
ATOM      2  C   UNL     1       2.147   8.181  18.662  0.00  0.00    +0.000 A 
ATOM      3  C   UNL     1       2.780   7.007  18.238  0.00  0.00    +0.000 A 
ATOM      4  C   UNL     1       2.740   5.918  19.114  0.00  0.00    +0.000 A 
ATOM      5  C   UNL     1       2.050   5.946  20.324  0.00  0.00    +0.000 A 
ATOM      6  C   UNL     1       1.395   7.120  20.725  0.00  0.00    +0.000 A 
ATOM      7  N   UNL     1       2.141   4.743  20.974  0.00  0.00    +0.000 NA
ATOM      8  C   UNL     1       2.924   4.004  20.222  0.00  0.00    +0.000 A 
ATOM      9  N   UNL     1       3.315   4.667  19.087  0.00  0.00    +0.000 N 
ENDROOT
BRANCH   1  11
ATOM     10  N   UNL     1       0.511  10.379  19.266  0.00  0.00    +0.000 N 
ATOM     11  C   UNL     1       0.892   9.551  20.297  0.00  0.00    +0.000 C 
ATOM     12  O   UNL     1       0.731   9.813  21.483  0.00  0.00    +0.000 OA
ATOM     13  H   UNL     1       0.577  10.050  18.313  0.00  0.00    +0.000 HD
BRANCH  10  14
ATOM     14  C   UNL     1      -0.098  11.682  19.481  0.00  0.00    +0.000 C 
BRANCH  14  15
ATOM     15  C   UNL     1       0.881  12.761  19.031  0.00  0.00    +0.000 A 
ATOM     16  C   UNL     1       2.132  12.407  18.506  0.00  0.00    +0.000 A 
ATOM     17  C   UNL     1       3.040  13.393  18.110  0.00  0.00    +0.000 A 
ATOM     18  C   UNL     1       2.706  14.741  18.225  0.00  0.00    +0.000 A 
ATOM     19  C   UNL     1       1.460  15.107  18.725  0.00  0.00    +0.000 A 
ATOM     20  C   UNL     1       0.555  14.126  19.126  0.00  0.00    +0.000 A 
ENDBRANCH  14  15
BRANCH  14  22
ATOM     21  C   UNL     1      -1.741  10.755  17.719  0.00  0.00    +0.000 C 
ATOM     22  C   UNL     1      -1.445  11.843  18.741  0.00  0.00    +0.000 C 
ENDBRANCH  14  22
ENDBRANCH  10  14
ENDBRANCH   1  11
BRANCH   9  23
ATOM     23  C   UNL     1       4.315   4.194  18.130  0.00  0.00    +0.000 C 
BRANCH  23  24
ATOM     24  C   UNL     1       5.656   4.902  18.194  0.00  0.00    +0.000 A 
ATOM     25  C   UNL     1       6.295   5.078  19.443  0.00  0.00    +0.000 A 
ATOM     26  C   UNL     1       7.433   5.875  19.596  0.00  0.00    +0.000 A 
ATOM     27  C   UNL     1       7.979   6.518  18.495  0.00  0.00    +0.000 A 
ATOM     28  C   UNL     1       7.407   6.337  17.241  0.00  0.00    +0.000 A 
ATOM     29  C   UNL     1       6.260   5.534  17.080  0.00  0.00    +0.000 A 
BRANCH  29  30
ATOM     30  S   UNL     1       5.617   5.453  15.405  0.00  0.00    +0.000 S 
ATOM     31  C   UNL     1       7.057   5.135  14.413  0.00  0.00    +0.000 C 
ATOM     32  O   UNL     1       4.729   4.308  15.311  0.00  0.00    +0.000 OA
ATOM     33  O   UNL     1       5.129   6.774  15.064  0.00  0.00    +0.000 OA
ENDBRANCH  29  30
ENDBRANCH  23  24
ENDBRANCH   9  23
TORSDOF 7
ENDMDL
MODEL 7
REMARK VINA RESULT:      -8.2      1.101      1.277
REMARK  Name = 
REMARK  9 active torsions:
REMARK  status: ('A' for Active; 'I' for Inactive)
REMARK    1  A    between atoms: C_1  and  C_2
REMARK    2  A    between atoms: C_2  and  C_3
REMARK    3  A    between atoms: C_3  and  N_4
REMARK    4  A    between atoms: C_3  and  C_27
REMARK    5  A    between atoms: C_5  and  C_7
REMARK    6  A    between atoms: N_15  and  C_16
REMARK    7  A    between atoms: C_16  and  C_17
REMARK    8  A    between atoms: C_22  and  S_23
REMARK    9  A    between atoms: S_23  and  C_24
REMARK                            x       y       z     vdW  Elec       q    Type
REMARK                         _______ _______ _______ _____ _____    ______ ____
ROOT
ATOM      1  C   UNL     1       2.288   7.377  19.203  0.00  0.00    +0.000 A 
ATOM      2  C   UNL     1       2.145   8.289  18.148  0.00  0.00    +0.000 A 
ATOM      3  C   UNL     1       1.436   9.484  18.308  0.00  0.00    +0.000 A 
ATOM      4  C   UNL     1       0.860   9.712  19.562  0.00  0.00    +0.000 A 
ATOM      5  C   UNL     1       1.028   8.845  20.640  0.00  0.00    +0.000 A 
ATOM      6  C   UNL     1       1.765   7.663  20.474  0.00  0.00    +0.000 A 
ATOM      7  N   UNL     1       0.391   9.316  21.758  0.00  0.00    +0.000 NA
ATOM      8  C   UNL     1      -0.215  10.415  21.371  0.00  0.00    +0.000 A 
ATOM      9  N   UNL     1       0.034  10.698  20.053  0.00  0.00    +0.000 N 
ENDROOT
BRANCH   1  11
ATOM     10  N   UNL     1       4.368   6.203  18.783  0.00  0.00    +0.000 N 
ATOM     11  C   UNL     1       3.004   6.104  18.931  0.00  0.00    +0.000 C 
ATOM     12  O   UNL     1       2.384   5.047  18.893  0.00  0.00    +0.000 OA
ATOM     13  H   UNL     1       4.822   7.093  18.934  0.00  0.00    +0.000 HD
BRANCH  10  14
ATOM     14  C   UNL     1       5.222   5.054  18.526  0.00  0.00    +0.000 C 
BRANCH  14  15
ATOM     15  C   UNL     1       5.446   4.936  17.023  0.00  0.00    +0.000 A 
ATOM     16  C   UNL     1       5.950   3.749  16.473  0.00  0.00    +0.000 A 
ATOM     17  C   UNL     1       6.175   3.642  15.098  0.00  0.00    +0.000 A 
ATOM     18  C   UNL     1       5.890   4.716  14.255  0.00  0.00    +0.000 A 
ATOM     19  C   UNL     1       5.370   5.893  14.783  0.00  0.00    +0.000 A 
ATOM     20  C   UNL     1       5.150   6.004  16.156  0.00  0.00    +0.000 A 
ENDBRANCH  14  15
BRANCH  14  22
ATOM     21  C   UNL     1       7.540   6.178  18.698  0.00  0.00    +0.000 C 
ATOM     22  C   UNL     1       6.579   5.141  19.261  0.00  0.00    +0.000 C 
ENDBRANCH  14  22
ENDBRANCH  10  14
ENDBRANCH   1  11
BRANCH   9  23
ATOM     23  C   UNL     1      -0.620  11.748  19.272  0.00  0.00    +0.000 C 
BRANCH  23  24
ATOM     24  C   UNL     1      -2.015  11.413  18.779  0.00  0.00    +0.000 A 
ATOM     25  C   UNL     1      -2.177  10.553  17.669  0.00  0.00    +0.000 A 
ATOM     26  C   UNL     1      -3.416  10.349  17.054  0.00  0.00    +0.000 A 
ATOM     27  C   UNL     1      -4.543  10.996  17.541  0.00  0.00    +0.000 A 
ATOM     28  C   UNL     1      -4.435  11.816  18.657  0.00  0.00    +0.000 A 
ATOM     29  C   UNL     1      -3.189  12.025  19.282  0.00  0.00    +0.000 A 
BRANCH  29  30
ATOM     30  S   UNL     1      -3.218  13.157  20.675  0.00  0.00    +0.000 S 
ATOM     31  C   UNL     1      -4.887  13.770  20.689  0.00  0.00    +0.000 C 
ATOM     32  O   UNL     1      -2.997  12.393  21.890  0.00  0.00    +0.000 OA
ATOM     33  O   UNL     1      -2.344  14.266  20.352  0.00  0.00    +0.000 OA
ENDBRANCH  29  30
ENDBRANCH  23  24
ENDBRANCH   9  23
TORSDOF 7
ENDMDL
MODEL 8
REMARK VINA RESULT:      -8.1      2.755      9.534
REMARK  Name = 
REMARK  9 active torsions:
REMARK  status: ('A' for Active; 'I' for Inactive)
REMARK    1  A    between atoms: C_1  and  C_2
REMARK    2  A    between atoms: C_2  and  C_3
REMARK    3  A    between atoms: C_3  and  N_4
REMARK    4  A    between atoms: C_3  and  C_27
REMARK    5  A    between atoms: C_5  and  C_7
REMARK    6  A    between atoms: N_15  and  C_16
REMARK    7  A    between atoms: C_16  and  C_17
REMARK    8  A    between atoms: C_22  and  S_23
REMARK    9  A    between atoms: S_23  and  C_24
REMARK                            x       y       z     vdW  Elec       q    Type
REMARK                         _______ _______ _______ _____ _____    ______ ____
ROOT
ATOM      1  C   UNL     1       1.663   8.704  18.892  0.00  0.00    +0.000 A 
ATOM      2  C   UNL     1       2.425   8.336  17.776  0.00  0.00    +0.000 A 
ATOM      3  C   UNL     1       3.047   7.085  17.698  0.00  0.00    +0.000 A 
ATOM      4  C   UNL     1       2.888   6.233  18.795  0.00  0.00    +0.000 A 
ATOM      5  C   UNL     1       2.097   6.557  19.895  0.00  0.00    +0.000 A 
ATOM      6  C   UNL     1       1.456   7.803  19.949  0.00  0.00    +0.000 A 
ATOM      7  N   UNL     1       2.085   5.539  20.812  0.00  0.00    +0.000 NA
ATOM      8  C   UNL     1       2.901   4.630  20.330  0.00  0.00    +0.000 A 
ATOM      9  N   UNL     1       3.415   5.001  19.114  0.00  0.00    +0.000 N 
ENDROOT
BRANCH   1  11
ATOM     10  N   UNL     1      -0.251  10.154  19.236  0.00  0.00    +0.000 N 
ATOM     11  C   UNL     1       1.086  10.074  18.923  0.00  0.00    +0.000 C 
ATOM     12  O   UNL     1       1.803  11.046  18.717  0.00  0.00    +0.000 OA
ATOM     13  H   UNL     1      -0.752   9.318  19.499  0.00  0.00    +0.000 HD
BRANCH  10  14
ATOM     14  C   UNL     1      -0.969  11.416  19.322  0.00  0.00    +0.000 C 
BRANCH  14  15
ATOM     15  C   UNL     1      -2.203  11.339  18.430  0.00  0.00    +0.000 A 
ATOM     16  C   UNL     1      -2.119  10.767  17.153  0.00  0.00    +0.000 A 
ATOM     17  C   UNL     1      -3.243  10.712  16.324  0.00  0.00    +0.000 A 
ATOM     18  C   UNL     1      -4.465  11.217  16.765  0.00  0.00    +0.000 A 
ATOM     19  C   UNL     1      -4.569  11.769  18.038  0.00  0.00    +0.000 A 
ATOM     20  C   UNL     1      -3.448  11.830  18.865  0.00  0.00    +0.000 A 
ENDBRANCH  14  15
BRANCH  14  22
ATOM     21  C   UNL     1      -0.216  12.101  21.694  0.00  0.00    +0.000 C 
ATOM     22  C   UNL     1      -1.379  11.775  20.768  0.00  0.00    +0.000 C 
ENDBRANCH  14  22
ENDBRANCH  10  14
ENDBRANCH   1  11
BRANCH   9  23
ATOM     23  C   UNL     1       4.476   4.299  18.391  0.00  0.00    +0.000 C 
BRANCH  23  24
ATOM     24  C   UNL     1       5.807   5.025  18.334  0.00  0.00    +0.000 A 
ATOM     25  C   UNL     1       6.513   5.288  19.530  0.00  0.00    +0.000 A 
ATOM     26  C   UNL     1       7.646   6.105  19.567  0.00  0.00    +0.000 A 
ATOM     27  C   UNL     1       8.119   6.682  18.398  0.00  0.00    +0.000 A 
ATOM     28  C   UNL     1       7.480   6.415  17.193  0.00  0.00    +0.000 A 
ATOM     29  C   UNL     1       6.338   5.591  17.149  0.00  0.00    +0.000 A 
BRANCH  29  30
ATOM     30  S   UNL     1       5.604   5.397  15.522  0.00  0.00    +0.000 S 
ATOM     31  C   UNL     1       6.970   4.907  14.496  0.00  0.00    +0.000 C 
ATOM     32  O   UNL     1       4.652   4.301  15.578  0.00  0.00    +0.000 OA
ATOM     33  O   UNL     1       5.169   6.707  15.083  0.00  0.00    +0.000 OA
ENDBRANCH  29  30
ENDBRANCH  23  24
ENDBRANCH   9  23
TORSDOF 7
ENDMDL
MODEL 9
REMARK VINA RESULT:      -8.1      2.658      3.827
REMARK  Name = 
REMARK  9 active torsions:
REMARK  status: ('A' for Active; 'I' for Inactive)
REMARK    1  A    between atoms: C_1  and  C_2
REMARK    2  A    between atoms: C_2  and  C_3
REMARK    3  A    between atoms: C_3  and  N_4
REMARK    4  A    between atoms: C_3  and  C_27
REMARK    5  A    between atoms: C_5  and  C_7
REMARK    6  A    between atoms: N_15  and  C_16
REMARK    7  A    between atoms: C_16  and  C_17
REMARK    8  A    between atoms: C_22  and  S_23
REMARK    9  A    between atoms: S_23  and  C_24
REMARK                            x       y       z     vdW  Elec       q    Type
REMARK                         _______ _______ _______ _____ _____    ______ ____
ROOT
ATOM      1  C   UNL     1       1.558   8.527  19.800  0.00  0.00    +0.000 A 
ATOM      2  C   UNL     1       1.317   9.622  18.960  0.00  0.00    +0.000 A 
ATOM      3  C   UNL     1       0.573  10.725  19.395  0.00  0.00    +0.000 A 
ATOM      4  C   UNL     1       0.067  10.669  20.697  0.00  0.00    +0.000 A 
ATOM      5  C   UNL     1       0.333   9.614  21.567  0.00  0.00    +0.000 A 
ATOM      6  C   UNL     1       1.103   8.527  21.128  0.00  0.00    +0.000 A 
ATOM      7  N   UNL     1      -0.252   9.820  22.789  0.00  0.00    +0.000 NA
ATOM      8  C   UNL     1      -0.923  10.942  22.664  0.00  0.00    +0.000 A 
ATOM      9  N   UNL     1      -0.765  11.495  21.419  0.00  0.00    +0.000 N 
ENDROOT
BRANCH   1  11
ATOM     10  N   UNL     1       2.926   6.557  20.159  0.00  0.00    +0.000 N 
ATOM     11  C   UNL     1       2.305   7.370  19.240  0.00  0.00    +0.000 C 
ATOM     12  O   UNL     1       2.306   7.167  18.031  0.00  0.00    +0.000 OA
ATOM     13  H   UNL     1       2.792   6.727  21.145  0.00  0.00    +0.000 HD
BRANCH  10  14
ATOM     14  C   UNL     1       3.687   5.376  19.784  0.00  0.00    +0.000 C 
BRANCH  14  15
ATOM     15  C   UNL     1       2.714   4.264  19.408  0.00  0.00    +0.000 A 
ATOM     16  C   UNL     1       1.584   4.016  20.200  0.00  0.00    +0.000 A 
ATOM     17  C   UNL     1       0.699   2.985  19.871  0.00  0.00    +0.000 A 
ATOM     18  C   UNL     1       0.926   2.198  18.743  0.00  0.00    +0.000 A 
ATOM     19  C   UNL     1       2.032   2.446  17.936  0.00  0.00    +0.000 A 
ATOM     20  C   UNL     1       2.920   3.470  18.265  0.00  0.00    +0.000 A 
ENDBRANCH  14  15
BRANCH  14  22
ATOM     21  C   UNL     1       6.126   5.351  18.939  0.00  0.00    +0.000 C 
ATOM     22  C   UNL     1       4.667   5.640  18.619  0.00  0.00    +0.000 C 
ENDBRANCH  14  22
ENDBRANCH  10  14
ENDBRANCH   1  11
BRANCH   9  23
ATOM     23  C   UNL     1      -1.505  12.646  20.902  0.00  0.00    +0.000 C 
BRANCH  23  24
ATOM     24  C   UNL     1      -2.813  12.314  20.208  0.00  0.00    +0.000 A 
ATOM     25  C   UNL     1      -2.796  11.821  18.883  0.00  0.00    +0.000 A 
ATOM     26  C   UNL     1      -3.962  11.669  18.126  0.00  0.00    +0.000 A 
ATOM     27  C   UNL     1      -5.191  11.999  18.677  0.00  0.00    +0.000 A 
ATOM     28  C   UNL     1      -5.256  12.447  19.992  0.00  0.00    +0.000 A 
ATOM     29  C   UNL     1      -4.085  12.601  20.761  0.00  0.00    +0.000 A 
BRANCH  29  30
ATOM     30  S   UNL     1      -4.342  13.243  22.417  0.00  0.00    +0.000 S 
ATOM     31  C   UNL     1      -6.096  13.523  22.496  0.00  0.00    +0.000 C 
ATOM     32  O   UNL     1      -3.997  12.203  23.369  0.00  0.00    +0.000 OA
ATOM     33  O   UNL     1      -3.687  14.533  22.490  0.00  0.00    +0.000 OA
ENDBRANCH  29  30
ENDBRANCH  23  24
ENDBRANCH   9  23
TORSDOF 7
ENDMDL
