MODEL 1
REMARK VINA RESULT:      -8.3      0.000      0.000
REMARK  Name = 
REMARK  8 active torsions:
REMARK  status: ('A' for Active; 'I' for Inactive)
REMARK    1  A    between atoms: C_1  and  O_2
REMARK    2  A    between atoms: O_2  and  C_3
REMARK    3  A    between atoms: C_11  and  C_13
REMARK    4  A    between atoms: N_23  and  C_24
REMARK    5  A    between atoms: N_23  and  C_25
REMARK    6  A    between atoms: C_29  and  O_30
REMARK    7  A    between atoms: O_30  and  C_31
REMARK    8  A    between atoms: C_31  and  C_32
REMARK                            x       y       z     vdW  Elec       q    Type
REMARK                         _______ _______ _______ _____ _____    ______ ____
ROOT
ATOM      1  C   UNL     1       0.630   9.981  21.121  0.00  0.00    +0.000 A 
ATOM      2  C   UNL     1      -0.378  10.921  20.917  0.00  0.00    +0.000 A 
ATOM      3  C   UNL     1      -1.107  11.031  19.706  0.00  0.00    +0.000 A 
ATOM      4  C   UNL     1      -2.166  11.915  19.430  0.00  0.00    +0.000 A 
ATOM      5  N   UNL     1      -2.568  12.863  20.352  0.00  0.00    +0.000 N 
ATOM      6  C   UNL     1      -3.984  13.221  20.502  0.00  0.00    +0.000 C 
ATOM      7  C   UNL     1      -4.329  13.304  22.021  0.00  0.00    +0.000 C 
ATOM      8  N   UNL     1      -3.335  14.086  22.789  0.00  0.00    +0.000 N 
ATOM      9  C   UNL     1      -3.756  14.936  23.806  0.00  0.00    +0.000 C 
ATOM     10  O   UNL     1      -4.937  15.026  24.139  0.00  0.00    +0.000 OA
ATOM     11  C   UNL     1      -1.955  13.644  22.557  0.00  0.00    +0.000 C 
ATOM     12  C   UNL     1      -1.637  13.751  21.052  0.00  0.00    +0.000 C 
ATOM     13  N   UNL     1      -2.867  11.818  18.281  0.00  0.00    +0.000 NA
ATOM     14  C   UNL     1      -2.497  10.905  17.359  0.00  0.00    +0.000 A 
ATOM     15  N   UNL     1      -3.188  10.771  16.179  0.00  0.00    +0.000 N 
ATOM     16  C   UNL     1      -4.373  11.558  15.913  0.00  0.00    +0.000 C 
ATOM     17  C   UNL     1      -2.705   9.881  15.138  0.00  0.00    +0.000 C 
ATOM     18  N   UNL     1      -1.465  10.083  17.548  0.00  0.00    +0.000 NA
ATOM     19  C   UNL     1      -0.809  10.137  18.697  0.00  0.00    +0.000 A 
ATOM     20  C   UNL     1       0.219   9.230  18.875  0.00  0.00    +0.000 A 
ATOM     21  C   UNL     1       0.997   9.179  20.040  0.00  0.00    +0.000 A 
ENDROOT
BRANCH   9  22
ATOM     22  C   UNL     1      -2.760  15.777  24.536  0.00  0.00    +0.000 A 
ATOM     23  C   UNL     1      -2.423  17.072  24.123  0.00  0.00    +0.000 A 
ATOM     24  C   UNL     1      -1.409  17.781  24.769  0.00  0.00    +0.000 A 
ATOM     25  C   UNL     1      -0.797  17.240  25.898  0.00  0.00    +0.000 A 
ATOM     26  C   UNL     1      -1.201  15.996  26.380  0.00  0.00    +0.000 A 
ATOM     27  C   UNL     1      -2.174  15.261  25.698  0.00  0.00    +0.000 A 
ENDBRANCH   9  22
BRANCH   1  29
ATOM     28  C   UNL     1       0.419   9.432  23.420  0.00  0.00    +0.000 C 
ATOM     29  O   UNL     1       1.260   9.835  22.328  0.00  0.00    +0.000 OA
ENDBRANCH   1  29
BRANCH  21  30
ATOM     30  O   UNL     1       2.114   8.379  20.155  0.00  0.00    +0.000 OA
BRANCH  30  31
ATOM     31  C   UNL     1       2.289   7.517  19.021  0.00  0.00    +0.000 C 
BRANCH  31  32
ATOM     32  C   UNL     1       1.994   6.058  19.236  0.00  0.00    +0.000 A 
ATOM     33  C   UNL     1       1.685   5.505  20.476  0.00  0.00    +0.000 A 
ATOM     34  C   UNL     1       1.432   4.133  20.582  0.00  0.00    +0.000 A 
ATOM     35  C   UNL     1       1.476   3.318  19.449  0.00  0.00    +0.000 A 
ATOM     36  C   UNL     1       1.757   3.862  18.203  0.00  0.00    +0.000 A 
ATOM     37  C   UNL     1       2.008   5.230  18.097  0.00  0.00    +0.000 A 
ENDBRANCH  31  32
ENDBRANCH  30  31
ENDBRANCH  21  30
TORSDOF 5
ENDMDL
MODEL 2
REMARK VINA RESULT:      -8.1      0.913      1.334
REMARK  Name = 
REMARK  8 active torsions:
REMARK  status: ('A' for Active; 'I' for Inactive)
REMARK    1  A    between atoms: C_1  and  O_2
REMARK    2  A    between atoms: O_2  and  C_3
REMARK    3  A    between atoms: C_11  and  C_13
REMARK    4  A    between atoms: N_23  and  C_24
REMARK    5  A    between atoms: N_23  and  C_25
REMARK    6  A    between atoms: C_29  and  O_30
REMARK    7  A    between atoms: O_30  and  C_31
REMARK    8  A    between atoms: C_31  and  C_32
REMARK                            x       y       z     vdW  Elec       q    Type
REMARK                         _______ _______ _______ _____ _____    ______ ____
ROOT
ATOM      1  C   UNL     1       0.701  10.095  20.598  0.00  0.00    +0.000 A 
ATOM      2  C   UNL     1      -0.358  10.998  20.512  0.00  0.00    +0.000 A 
ATOM      3  C   UNL     1      -1.188  11.119  19.370  0.00  0.00    +0.000 A 
ATOM      4  C   UNL     1      -2.301  11.966  19.216  0.00  0.00    +0.000 A 
ATOM      5  N   UNL     1      -2.663  12.863  20.204  0.00  0.00    +0.000 N 
ATOM      6  C   UNL     1      -4.075  13.155  20.481  0.00  0.00    +0.000 C 
ATOM      7  C   UNL     1      -4.295  13.170  22.026  0.00  0.00    +0.000 C 
ATOM      8  N   UNL     1      -3.272  13.966  22.740  0.00  0.00    +0.000 N 
ATOM      9  C   UNL     1      -3.641  14.762  23.819  0.00  0.00    +0.000 C 
ATOM     10  O   UNL     1      -4.792  14.789  24.251  0.00  0.00    +0.000 OA
ATOM     11  C   UNL     1      -1.900  13.592  22.379  0.00  0.00    +0.000 C 
ATOM     12  C   UNL     1      -1.712  13.765  20.859  0.00  0.00    +0.000 C 
ATOM     13  N   UNL     1      -3.091  11.879  18.125  0.00  0.00    +0.000 NA
ATOM     14  C   UNL     1      -2.763  11.016  17.142  0.00  0.00    +0.000 A 
ATOM     15  N   UNL     1      -3.544  10.893  16.018  0.00  0.00    +0.000 N 
ATOM     16  C   UNL     1      -4.777  11.638  15.880  0.00  0.00    +0.000 C 
ATOM     17  C   UNL     1      -3.114  10.061  14.908  0.00  0.00    +0.000 C 
ATOM     18  N   UNL     1      -1.687  10.232  17.214  0.00  0.00    +0.000 NA
ATOM     19  C   UNL     1      -0.941  10.274  18.307  0.00  0.00    +0.000 A 
ATOM     20  C   UNL     1       0.134   9.406  18.365  0.00  0.00    +0.000 A 
ATOM     21  C   UNL     1       1.008   9.348  19.460  0.00  0.00    +0.000 A 
ENDROOT
BRANCH   9  22
ATOM     22  C   UNL     1      -2.622  15.619  24.498  0.00  0.00    +0.000 A 
ATOM     23  C   UNL     1      -2.211  16.853  23.978  0.00  0.00    +0.000 A 
ATOM     24  C   UNL     1      -1.179  17.570  24.585  0.00  0.00    +0.000 A 
ATOM     25  C   UNL     1      -0.620  17.106  25.774  0.00  0.00    +0.000 A 
ATOM     26  C   UNL     1      -1.096  15.932  26.356  0.00  0.00    +0.000 A 
ATOM     27  C   UNL     1      -2.089  15.184  25.717  0.00  0.00    +0.000 A 
ENDBRANCH   9  22
BRANCH   1  29
ATOM     28  C   UNL     1       0.713   9.414  22.870  0.00  0.00    +0.000 C 
ATOM     29  O   UNL     1       1.433   9.935  21.743  0.00  0.00    +0.000 OA
ENDBRANCH   1  29
BRANCH  21  30
ATOM     30  O   UNL     1       2.161   8.593  19.453  0.00  0.00    +0.000 OA
BRANCH  30  31
ATOM     31  C   UNL     1       2.645   8.346  18.125  0.00  0.00    +0.000 C 
BRANCH  31  32
ATOM     32  C   UNL     1       3.104   6.945  17.827  0.00  0.00    +0.000 A 
ATOM     33  C   UNL     1       4.340   6.638  17.265  0.00  0.00    +0.000 A 
ATOM     34  C   UNL     1       4.678   5.304  17.016  0.00  0.00    +0.000 A 
ATOM     35  C   UNL     1       3.788   4.278  17.339  0.00  0.00    +0.000 A 
ATOM     36  C   UNL     1       2.562   4.569  17.924  0.00  0.00    +0.000 A 
ATOM     37  C   UNL     1       2.226   5.900  18.173  0.00  0.00    +0.000 A 
ENDBRANCH  31  32
ENDBRANCH  30  31
ENDBRANCH  21  30
TORSDOF 5
ENDMDL
MODEL 3
REMARK VINA RESULT:      -8.1      0.915      1.471
REMARK  Name = 
REMARK  8 active torsions:
REMARK  status: ('A' for Active; 'I' for Inactive)
REMARK    1  A    between atoms: C_1  and  O_2
REMARK    2  A    between atoms: O_2  and  C_3
REMARK    3  A    between atoms: C_11  and  C_13
REMARK    4  A    between atoms: N_23  and  C_24
REMARK    5  A    between atoms: N_23  and  C_25
REMARK    6  A    between atoms: C_29  and  O_30
REMARK    7  A    between atoms: O_30  and  C_31
REMARK    8  A    between atoms: C_31  and  C_32
REMARK                            x       y       z     vdW  Elec       q    Type
REMARK                         _______ _______ _______ _____ _____    ______ ____
ROOT
ATOM      1  C   UNL     1       0.707  10.098  20.625  0.00  0.00    +0.000 A 
ATOM      2  C   UNL     1      -0.349  11.005  20.548  0.00  0.00    +0.000 A 
ATOM      3  C   UNL     1      -1.186  11.132  19.411  0.00  0.00    +0.000 A 
ATOM      4  C   UNL     1      -2.296  11.983  19.266  0.00  0.00    +0.000 A 
ATOM      5  N   UNL     1      -2.649  12.879  20.259  0.00  0.00    +0.000 N 
ATOM      6  C   UNL     1      -4.058  13.175  20.546  0.00  0.00    +0.000 C 
ATOM      7  C   UNL     1      -4.269  13.186  22.092  0.00  0.00    +0.000 C 
ATOM      8  N   UNL     1      -3.239  13.977  22.802  0.00  0.00    +0.000 N 
ATOM      9  C   UNL     1      -3.599  14.771  23.885  0.00  0.00    +0.000 C 
ATOM     10  O   UNL     1      -4.747  14.801  24.324  0.00  0.00    +0.000 OA
ATOM     11  C   UNL     1      -1.870  13.599  22.431  0.00  0.00    +0.000 C 
ATOM     12  C   UNL     1      -1.691  13.776  20.910  0.00  0.00    +0.000 C 
ATOM     13  N   UNL     1      -3.093  11.902  18.180  0.00  0.00    +0.000 NA
ATOM     14  C   UNL     1      -2.774  11.040  17.192  0.00  0.00    +0.000 A 
ATOM     15  N   UNL     1      -3.562  10.924  16.073  0.00  0.00    +0.000 N 
ATOM     16  C   UNL     1      -4.793  11.673  15.944  0.00  0.00    +0.000 C 
ATOM     17  C   UNL     1      -3.142  10.094  14.958  0.00  0.00    +0.000 C 
ATOM     18  N   UNL     1      -1.700  10.253  17.256  0.00  0.00    +0.000 NA
ATOM     19  C   UNL     1      -0.947  10.289  18.345  0.00  0.00    +0.000 A 
ATOM     20  C   UNL     1       0.125   9.417  18.394  0.00  0.00    +0.000 A 
ATOM     21  C   UNL     1       1.005   9.353  19.483  0.00  0.00    +0.000 A 
ENDROOT
BRANCH   9  22
ATOM     22  C   UNL     1      -2.572  15.622  24.560  0.00  0.00    +0.000 A 
ATOM     23  C   UNL     1      -1.935  15.234  25.745  0.00  0.00    +0.000 A 
ATOM     24  C   UNL     1      -1.064  16.106  26.401  0.00  0.00    +0.000 A 
ATOM     25  C   UNL     1      -0.746  17.332  25.821  0.00  0.00    +0.000 A 
ATOM     26  C   UNL     1      -1.294  17.682  24.588  0.00  0.00    +0.000 A 
ATOM     27  C   UNL     1      -2.211  16.835  23.961  0.00  0.00    +0.000 A 
ENDBRANCH   9  22
BRANCH   1  29
ATOM     28  C   UNL     1       0.740   9.376  22.884  0.00  0.00    +0.000 C 
ATOM     29  O   UNL     1       1.446   9.932  21.765  0.00  0.00    +0.000 OA
ENDBRANCH   1  29
BRANCH  21  30
ATOM     30  O   UNL     1       2.156   8.594  19.467  0.00  0.00    +0.000 OA
BRANCH  30  31
ATOM     31  C   UNL     1       2.597   8.299  18.134  0.00  0.00    +0.000 C 
BRANCH  31  32
ATOM     32  C   UNL     1       3.009   6.878  17.863  0.00  0.00    +0.000 A 
ATOM     33  C   UNL     1       2.193   5.776  18.102  0.00  0.00    +0.000 A 
ATOM     34  C   UNL     1       2.664   4.489  17.826  0.00  0.00    +0.000 A 
ATOM     35  C   UNL     1       3.944   4.303  17.300  0.00  0.00    +0.000 A 
ATOM     36  C   UNL     1       4.759   5.396  17.033  0.00  0.00    +0.000 A 
ATOM     37  C   UNL     1       4.288   6.680  17.308  0.00  0.00    +0.000 A 
ENDBRANCH  31  32
ENDBRANCH  30  31
ENDBRANCH  21  30
TORSDOF 5
ENDMDL
MODEL 4
REMARK VINA RESULT:      -7.3      3.362      4.856
REMARK  Name = 
REMARK  8 active torsions:
REMARK  status: ('A' for Active; 'I' for Inactive)
REMARK    1  A    between atoms: C_1  and  O_2
REMARK    2  A    between atoms: O_2  and  C_3
REMARK    3  A    between atoms: C_11  and  C_13
REMARK    4  A    between atoms: N_23  and  C_24
REMARK    5  A    between atoms: N_23  and  C_25
REMARK    6  A    between atoms: C_29  and  O_30
REMARK    7  A    between atoms: O_30  and  C_31
REMARK    8  A    between atoms: C_31  and  C_32
REMARK                            x       y       z     vdW  Elec       q    Type
REMARK                         _______ _______ _______ _____ _____    ______ ____
ROOT
ATOM      1  C   UNL     1       0.381  10.655  18.517  0.00  0.00    +0.000 A 
ATOM      2  C   UNL     1       0.202  11.840  19.229  0.00  0.00    +0.000 A 
ATOM      3  C   UNL     1       1.188  12.855  19.312  0.00  0.00    +0.000 A 
ATOM      4  C   UNL     1       1.075  14.095  19.966  0.00  0.00    +0.000 A 
ATOM      5  N   UNL     1      -0.055  14.425  20.691  0.00  0.00    +0.000 N 
ATOM      6  C   UNL     1      -0.569  15.800  20.708  0.00  0.00    +0.000 C 
ATOM      7  C   UNL     1      -2.119  15.765  20.539  0.00  0.00    +0.000 C 
ATOM      8  N   UNL     1      -2.767  14.775  21.428  0.00  0.00    +0.000 N 
ATOM      9  C   UNL     1      -3.976  15.081  22.044  0.00  0.00    +0.000 C 
ATOM     10  O   UNL     1      -4.571  16.136  21.832  0.00  0.00    +0.000 OA
ATOM     11  C   UNL     1      -2.167  13.439  21.332  0.00  0.00    +0.000 C 
ATOM     12  C   UNL     1      -0.668  13.532  21.677  0.00  0.00    +0.000 C 
ATOM     13  N   UNL     1       2.042  15.030  19.849  0.00  0.00    +0.000 NA
ATOM     14  C   UNL     1       3.159  14.738  19.151  0.00  0.00    +0.000 A 
ATOM     15  N   UNL     1       4.163  15.663  19.003  0.00  0.00    +0.000 N 
ATOM     16  C   UNL     1       4.030  17.003  19.534  0.00  0.00    +0.000 C 
ATOM     17  C   UNL     1       5.416  15.297  18.366  0.00  0.00    +0.000 C 
ATOM     18  N   UNL     1       3.339  13.556  18.561  0.00  0.00    +0.000 NA
ATOM     19  C   UNL     1       2.369  12.657  18.627  0.00  0.00    +0.000 A 
ATOM     20  C   UNL     1       2.573  11.465  17.955  0.00  0.00    +0.000 A 
ATOM     21  C   UNL     1       1.632  10.426  17.944  0.00  0.00    +0.000 A 
ENDROOT
BRANCH   9  22
ATOM     22  C   UNL     1      -4.597  14.110  22.995  0.00  0.00    +0.000 A 
ATOM     23  C   UNL     1      -3.887  13.546  24.064  0.00  0.00    +0.000 A 
ATOM     24  C   UNL     1      -4.472  12.562  24.862  0.00  0.00    +0.000 A 
ATOM     25  C   UNL     1      -5.804  12.208  24.660  0.00  0.00    +0.000 A 
ATOM     26  C   UNL     1      -6.550  12.840  23.667  0.00  0.00    +0.000 A 
ATOM     27  C   UNL     1      -5.948  13.783  22.829  0.00  0.00    +0.000 A 
ENDBRANCH   9  22
BRANCH   1  29
ATOM     28  C   UNL     1      -1.790  10.182  17.684  0.00  0.00    +0.000 C 
ATOM     29  O   UNL     1      -0.617   9.729  18.378  0.00  0.00    +0.000 OA
ENDBRANCH   1  29
BRANCH  21  30
ATOM     30  O   UNL     1       1.899   9.186  17.403  0.00  0.00    +0.000 OA
BRANCH  30  31
ATOM     31  C   UNL     1       2.301   8.231  18.395  0.00  0.00    +0.000 C 
BRANCH  31  32
ATOM     32  C   UNL     1       3.023   7.009  17.896  0.00  0.00    +0.000 A 
ATOM     33  C   UNL     1       4.251   7.049  17.242  0.00  0.00    +0.000 A 
ATOM     34  C   UNL     1       4.845   5.860  16.806  0.00  0.00    +0.000 A 
ATOM     35  C   UNL     1       4.218   4.633  17.033  0.00  0.00    +0.000 A 
ATOM     36  C   UNL     1       3.005   4.579  17.707  0.00  0.00    +0.000 A 
ATOM     37  C   UNL     1       2.413   5.764  18.143  0.00  0.00    +0.000 A 
ENDBRANCH  31  32
ENDBRANCH  30  31
ENDBRANCH  21  30
TORSDOF 5
ENDMDL
MODEL 5
REMARK VINA RESULT:      -7.3      3.008      4.919
REMARK  Name = 
REMARK  8 active torsions:
REMARK  status: ('A' for Active; 'I' for Inactive)
REMARK    1  A    between atoms: C_1  and  O_2
REMARK    2  A    between atoms: O_2  and  C_3
REMARK    3  A    between atoms: C_11  and  C_13
REMARK    4  A    between atoms: N_23  and  C_24
REMARK    5  A    between atoms: N_23  and  C_25
REMARK    6  A    between atoms: C_29  and  O_30
REMARK    7  A    between atoms: O_30  and  C_31
REMARK    8  A    between atoms: C_31  and  C_32
REMARK                            x       y       z     vdW  Elec       q    Type
REMARK                         _______ _______ _______ _____ _____    ______ ____
ROOT
ATOM      1  C   UNL     1      -0.504  10.544  18.502  0.00  0.00    +0.000 A 
ATOM      2  C   UNL     1      -0.791  11.665  19.281  0.00  0.00    +0.000 A 
ATOM      3  C   UNL     1       0.192  12.599  19.693  0.00  0.00    +0.000 A 
ATOM      4  C   UNL     1      -0.015  13.776  20.436  0.00  0.00    +0.000 A 
ATOM      5  N   UNL     1      -1.267  14.108  20.920  0.00  0.00    +0.000 N 
ATOM      6  C   UNL     1      -1.712  15.507  20.971  0.00  0.00    +0.000 C 
ATOM      7  C   UNL     1      -3.182  15.591  20.456  0.00  0.00    +0.000 C 
ATOM      8  N   UNL     1      -4.058  14.564  21.064  0.00  0.00    +0.000 N 
ATOM      9  C   UNL     1      -5.362  14.889  21.422  0.00  0.00    +0.000 C 
ATOM     10  O   UNL     1      -5.848  15.997  21.198  0.00  0.00    +0.000 OA
ATOM     11  C   UNL     1      -3.510  13.207  20.959  0.00  0.00    +0.000 C 
ATOM     12  C   UNL     1      -2.128  13.167  21.640  0.00  0.00    +0.000 C 
ATOM     13  N   UNL     1       0.992  14.651  20.640  0.00  0.00    +0.000 NA
ATOM     14  C   UNL     1       2.225  14.355  20.183  0.00  0.00    +0.000 A 
ATOM     15  N   UNL     1       3.275  15.221  20.366  0.00  0.00    +0.000 N 
ATOM     16  C   UNL     1       3.081  16.509  20.996  0.00  0.00    +0.000 C 
ATOM     17  C   UNL     1       4.624  14.836  19.990  0.00  0.00    +0.000 C 
ATOM     18  N   UNL     1       2.486  13.226  19.524  0.00  0.00    +0.000 NA
ATOM     19  C   UNL     1       1.490  12.390  19.272  0.00  0.00    +0.000 A 
ATOM     20  C   UNL     1       1.791  11.258  18.537  0.00  0.00    +0.000 A 
ATOM     21  C   UNL     1       0.835  10.290  18.203  0.00  0.00    +0.000 A 
ENDROOT
BRANCH   9  22
ATOM     22  C   UNL     1      -6.226  13.874  22.098  0.00  0.00    +0.000 A 
ATOM     23  C   UNL     1      -6.905  12.875  21.391  0.00  0.00    +0.000 A 
ATOM     24  C   UNL     1      -7.787  12.016  22.049  0.00  0.00    +0.000 A 
ATOM     25  C   UNL     1      -7.917  12.084  23.434  0.00  0.00    +0.000 A 
ATOM     26  C   UNL     1      -7.163  13.006  24.159  0.00  0.00    +0.000 A 
ATOM     27  C   UNL     1      -6.325  13.906  23.494  0.00  0.00    +0.000 A 
ENDBRANCH   9  22
BRANCH   1  29
ATOM     28  C   UNL     1      -2.186  10.155  16.875  0.00  0.00    +0.000 C 
ATOM     29  O   UNL     1      -1.482   9.704  18.043  0.00  0.00    +0.000 OA
ENDBRANCH   1  29
BRANCH  21  30
ATOM     30  O   UNL     1       1.165   9.093  17.604  0.00  0.00    +0.000 OA
BRANCH  30  31
ATOM     31  C   UNL     1       2.483   8.649  17.958  0.00  0.00    +0.000 C 
BRANCH  31  32
ATOM     32  C   UNL     1       2.585   7.285  18.584  0.00  0.00    +0.000 A 
ATOM     33  C   UNL     1       2.045   6.960  19.825  0.00  0.00    +0.000 A 
ATOM     34  C   UNL     1       2.197   5.665  20.332  0.00  0.00    +0.000 A 
ATOM     35  C   UNL     1       2.877   4.694  19.595  0.00  0.00    +0.000 A 
ATOM     36  C   UNL     1       3.398   4.999  18.343  0.00  0.00    +0.000 A 
ATOM     37  C   UNL     1       3.245   6.290  17.838  0.00  0.00    +0.000 A 
ENDBRANCH  31  32
ENDBRANCH  30  31
ENDBRANCH  21  30
TORSDOF 5
ENDMDL
MODEL 6
REMARK VINA RESULT:      -7.3      3.053      5.162
REMARK  Name = 
REMARK  8 active torsions:
REMARK  status: ('A' for Active; 'I' for Inactive)
REMARK    1  A    between atoms: C_1  and  O_2
REMARK    2  A    between atoms: O_2  and  C_3
REMARK    3  A    between atoms: C_11  and  C_13
REMARK    4  A    between atoms: N_23  and  C_24
REMARK    5  A    between atoms: N_23  and  C_25
REMARK    6  A    between atoms: C_29  and  O_30
REMARK    7  A    between atoms: O_30  and  C_31
REMARK    8  A    between atoms: C_31  and  C_32
REMARK                            x       y       z     vdW  Elec       q    Type
REMARK                         _______ _______ _______ _____ _____    ______ ____
ROOT
ATOM      1  C   UNL     1      -0.356  10.702  18.621  0.00  0.00    +0.000 A 
ATOM      2  C   UNL     1      -0.674  11.802  19.416  0.00  0.00    +0.000 A 
ATOM      3  C   UNL     1       0.291  12.729  19.884  0.00  0.00    +0.000 A 
ATOM      4  C   UNL     1       0.054  13.887  20.648  0.00  0.00    +0.000 A 
ATOM      5  N   UNL     1      -1.215  14.203  21.097  0.00  0.00    +0.000 N 
ATOM      6  C   UNL     1      -1.667  15.599  21.168  0.00  0.00    +0.000 C 
ATOM      7  C   UNL     1      -3.119  15.691  20.604  0.00  0.00    +0.000 C 
ATOM      8  N   UNL     1      -4.011  14.647  21.157  0.00  0.00    +0.000 N 
ATOM      9  C   UNL     1      -5.328  14.959  21.477  0.00  0.00    +0.000 C 
ATOM     10  O   UNL     1      -5.810  16.071  21.264  0.00  0.00    +0.000 OA
ATOM     11  C   UNL     1      -3.455  13.295  21.038  0.00  0.00    +0.000 C 
ATOM     12  C   UNL     1      -2.096  13.242  21.764  0.00  0.00    +0.000 C 
ATOM     13  N   UNL     1       1.049  14.760  20.909  0.00  0.00    +0.000 NA
ATOM     14  C   UNL     1       2.299  14.478  20.487  0.00  0.00    +0.000 A 
ATOM     15  N   UNL     1       3.339  15.343  20.727  0.00  0.00    +0.000 N 
ATOM     16  C   UNL     1       3.118  16.615  21.381  0.00  0.00    +0.000 C 
ATOM     17  C   UNL     1       4.701  14.971  20.388  0.00  0.00    +0.000 C 
ATOM     18  N   UNL     1       2.586  13.366  19.809  0.00  0.00    +0.000 NA
ATOM     19  C   UNL     1       1.603  12.534  19.504  0.00  0.00    +0.000 A 
ATOM     20  C   UNL     1       1.934  11.422  18.752  0.00  0.00    +0.000 A 
ATOM     21  C   UNL     1       0.993  10.459  18.362  0.00  0.00    +0.000 A 
ENDROOT
BRANCH   9  22
ATOM     22  C   UNL     1      -6.211  13.926  22.099  0.00  0.00    +0.000 A 
ATOM     23  C   UNL     1      -6.196  13.652  23.472  0.00  0.00    +0.000 A 
ATOM     24  C   UNL     1      -6.956  12.605  23.995  0.00  0.00    +0.000 A 
ATOM     25  C   UNL     1      -7.814  11.889  23.162  0.00  0.00    +0.000 A 
ATOM     26  C   UNL     1      -7.914  12.224  21.812  0.00  0.00    +0.000 A 
ATOM     27  C   UNL     1      -7.109  13.234  21.278  0.00  0.00    +0.000 A 
ENDBRANCH   9  22
BRANCH   1  29
ATOM     28  C   UNL     1      -2.008  10.365  16.952  0.00  0.00    +0.000 C 
ATOM     29  O   UNL     1      -1.315   9.870  18.107  0.00  0.00    +0.000 OA
ENDBRANCH   1  29
BRANCH  21  30
ATOM     30  O   UNL     1       1.348   9.278  17.745  0.00  0.00    +0.000 OA
BRANCH  30  31
ATOM     31  C   UNL     1       1.851   8.306  18.672  0.00  0.00    +0.000 C 
BRANCH  31  32
ATOM     32  C   UNL     1       2.731   7.227  18.103  0.00  0.00    +0.000 A 
ATOM     33  C   UNL     1       3.911   7.478  17.406  0.00  0.00    +0.000 A 
ATOM     34  C   UNL     1       4.663   6.411  16.905  0.00  0.00    +0.000 A 
ATOM     35  C   UNL     1       4.243   5.095  17.110  0.00  0.00    +0.000 A 
ATOM     36  C   UNL     1       3.082   4.831  17.825  0.00  0.00    +0.000 A 
ATOM     37  C   UNL     1       2.333   5.896  18.326  0.00  0.00    +0.000 A 
ENDBRANCH  31  32
ENDBRANCH  30  31
ENDBRANCH  21  30
TORSDOF 5
ENDMDL
MODEL 7
REMARK VINA RESULT:      -7.2      2.967      5.038
REMARK  Name = 
REMARK  8 active torsions:
REMARK  status: ('A' for Active; 'I' for Inactive)
REMARK    1  A    between atoms: C_1  and  O_2
REMARK    2  A    between atoms: O_2  and  C_3
REMARK    3  A    between atoms: C_11  and  C_13
REMARK    4  A    between atoms: N_23  and  C_24
REMARK    5  A    between atoms: N_23  and  C_25
REMARK    6  A    between atoms: C_29  and  O_30
REMARK    7  A    between atoms: O_30  and  C_31
REMARK    8  A    between atoms: C_31  and  C_32
REMARK                            x       y       z     vdW  Elec       q    Type
REMARK                         _______ _______ _______ _____ _____    ______ ____
ROOT
ATOM      1  C   UNL     1      -0.547  10.764  18.651  0.00  0.00    +0.000 A 
ATOM      2  C   UNL     1      -0.798  11.853  19.484  0.00  0.00    +0.000 A 
ATOM      3  C   UNL     1       0.220  12.703  19.984  0.00  0.00    +0.000 A 
ATOM      4  C   UNL     1       0.053  13.845  20.787  0.00  0.00    +0.000 A 
ATOM      5  N   UNL     1      -1.195  14.223  21.248  0.00  0.00    +0.000 N 
ATOM      6  C   UNL     1      -1.562  15.640  21.367  0.00  0.00    +0.000 C 
ATOM      7  C   UNL     1      -3.005  15.839  20.808  0.00  0.00    +0.000 C 
ATOM      8  N   UNL     1      -3.959  14.833  21.325  0.00  0.00    +0.000 N 
ATOM      9  C   UNL     1      -5.255  15.213  21.657  0.00  0.00    +0.000 C 
ATOM     10  O   UNL     1      -5.668  16.359  21.483  0.00  0.00    +0.000 OA
ATOM     11  C   UNL     1      -3.485  13.454  21.159  0.00  0.00    +0.000 C 
ATOM     12  C   UNL     1      -2.134  13.294  21.882  0.00  0.00    +0.000 C 
ATOM     13  N   UNL     1       1.099  14.647  21.077  0.00  0.00    +0.000 NA
ATOM     14  C   UNL     1       2.330  14.305  20.645  0.00  0.00    +0.000 A 
ATOM     15  N   UNL     1       3.420  15.096  20.914  0.00  0.00    +0.000 N 
ATOM     16  C   UNL     1       3.276  16.356  21.612  0.00  0.00    +0.000 C 
ATOM     17  C   UNL     1       4.758  14.655  20.562  0.00  0.00    +0.000 C 
ATOM     18  N   UNL     1       2.550  13.202  19.929  0.00  0.00    +0.000 NA
ATOM     19  C   UNL     1       1.519  12.442  19.596  0.00  0.00    +0.000 A 
ATOM     20  C   UNL     1       1.783  11.338  18.806  0.00  0.00    +0.000 A 
ATOM     21  C   UNL     1       0.786  10.448  18.383  0.00  0.00    +0.000 A 
ENDROOT
BRANCH   9  22
ATOM     22  C   UNL     1      -6.199  14.214  22.243  0.00  0.00    +0.000 A 
ATOM     23  C   UNL     1      -6.287  13.981  23.621  0.00  0.00    +0.000 A 
ATOM     24  C   UNL     1      -7.102  12.963  24.118  0.00  0.00    +0.000 A 
ATOM     25  C   UNL     1      -7.914  12.239  23.247  0.00  0.00    +0.000 A 
ATOM     26  C   UNL     1      -7.913  12.536  21.885  0.00  0.00    +0.000 A 
ATOM     27  C   UNL     1      -7.052  13.515  21.381  0.00  0.00    +0.000 A 
ENDBRANCH   9  22
BRANCH   1  29
ATOM     28  C   UNL     1      -2.710  10.742  17.678  0.00  0.00    +0.000 C 
ATOM     29  O   UNL     1      -1.553  10.010  18.110  0.00  0.00    +0.000 OA
ENDBRANCH   1  29
BRANCH  21  30
ATOM     30  O   UNL     1       1.070   9.270  17.726  0.00  0.00    +0.000 OA
BRANCH  30  31
ATOM     31  C   UNL     1       2.348   8.732  18.093  0.00  0.00    +0.000 C 
BRANCH  31  32
ATOM     32  C   UNL     1       2.363   7.308  18.577  0.00  0.00    +0.000 A 
ATOM     33  C   UNL     1       2.658   6.217  17.764  0.00  0.00    +0.000 A 
ATOM     34  C   UNL     1       2.641   4.926  18.300  0.00  0.00    +0.000 A 
ATOM     35  C   UNL     1       2.341   4.725  19.648  0.00  0.00    +0.000 A 
ATOM     36  C   UNL     1       2.070   5.807  20.476  0.00  0.00    +0.000 A 
ATOM     37  C   UNL     1       2.088   7.096  19.942  0.00  0.00    +0.000 A 
ENDBRANCH  31  32
ENDBRANCH  30  31
ENDBRANCH  21  30
TORSDOF 5
ENDMDL
MODEL 8
REMARK VINA RESULT:      -7.1      3.150      4.691
REMARK  Name = 
REMARK  8 active torsions:
REMARK  status: ('A' for Active; 'I' for Inactive)
REMARK    1  A    between atoms: C_1  and  O_2
REMARK    2  A    between atoms: O_2  and  C_3
REMARK    3  A    between atoms: C_11  and  C_13
REMARK    4  A    between atoms: N_23  and  C_24
REMARK    5  A    between atoms: N_23  and  C_25
REMARK    6  A    between atoms: C_29  and  O_30
REMARK    7  A    between atoms: O_30  and  C_31
REMARK    8  A    between atoms: C_31  and  C_32
REMARK                            x       y       z     vdW  Elec       q    Type
REMARK                         _______ _______ _______ _____ _____    ______ ____
ROOT
ATOM      1  C   UNL     1       0.131  10.588  18.411  0.00  0.00    +0.000 A 
ATOM      2  C   UNL     1      -0.070  11.743  19.165  0.00  0.00    +0.000 A 
ATOM      3  C   UNL     1       0.932  12.726  19.366  0.00  0.00    +0.000 A 
ATOM      4  C   UNL     1       0.803  13.937  20.069  0.00  0.00    +0.000 A 
ATOM      5  N   UNL     1      -0.368  14.264  20.728  0.00  0.00    +0.000 N 
ATOM      6  C   UNL     1      -0.848  15.651  20.775  0.00  0.00    +0.000 C 
ATOM      7  C   UNL     1      -2.383  15.666  20.496  0.00  0.00    +0.000 C 
ATOM      8  N   UNL     1      -3.116  14.653  21.289  0.00  0.00    +0.000 N 
ATOM      9  C   UNL     1      -4.359  14.964  21.831  0.00  0.00    +0.000 C 
ATOM     10  O   UNL     1      -4.912  16.044  21.629  0.00  0.00    +0.000 OA
ATOM     11  C   UNL     1      -2.544  13.307  21.170  0.00  0.00    +0.000 C 
ATOM     12  C   UNL     1      -1.071  13.343  21.624  0.00  0.00    +0.000 C 
ATOM     13  N   UNL     1       1.798  14.850  20.065  0.00  0.00    +0.000 NA
ATOM     14  C   UNL     1       2.954  14.560  19.434  0.00  0.00    +0.000 A 
ATOM     15  N   UNL     1       3.989  15.463  19.401  0.00  0.00    +0.000 N 
ATOM     16  C   UNL     1       3.850  16.779  19.986  0.00  0.00    +0.000 C 
ATOM     17  C   UNL     1       5.275  15.092  18.837  0.00  0.00    +0.000 C 
ATOM     18  N   UNL     1       3.147  13.402  18.802  0.00  0.00    +0.000 NA
ATOM     19  C   UNL     1       2.154  12.527  18.756  0.00  0.00    +0.000 A 
ATOM     20  C   UNL     1       2.377  11.363  18.044  0.00  0.00    +0.000 A 
ATOM     21  C   UNL     1       1.415  10.352  17.917  0.00  0.00    +0.000 A 
ENDROOT
BRANCH   9  22
ATOM     22  C   UNL     1      -5.069  13.967  22.689  0.00  0.00    +0.000 A 
ATOM     23  C   UNL     1      -6.359  13.508  22.396  0.00  0.00    +0.000 A 
ATOM     24  C   UNL     1      -7.028  12.661  23.281  0.00  0.00    +0.000 A 
ATOM     25  C   UNL     1      -6.372  12.186  24.415  0.00  0.00    +0.000 A 
ATOM     26  C   UNL     1      -5.050  12.554  24.659  0.00  0.00    +0.000 A 
ATOM     27  C   UNL     1      -4.400  13.449  23.804  0.00  0.00    +0.000 A 
ENDBRANCH   9  22
BRANCH   1  29
ATOM     28  C   UNL     1      -2.189  10.266  18.033  0.00  0.00    +0.000 C 
ATOM     29  O   UNL     1      -0.877   9.697  18.158  0.00  0.00    +0.000 OA
ENDBRANCH   1  29
BRANCH  21  30
ATOM     30  O   UNL     1       1.689   9.131  17.337  0.00  0.00    +0.000 OA
BRANCH  30  31
ATOM     31  C   UNL     1       2.769   8.447  17.987  0.00  0.00    +0.000 C 
BRANCH  31  32
ATOM     32  C   UNL     1       2.423   7.166  18.695  0.00  0.00    +0.000 A 
ATOM     33  C   UNL     1       2.072   7.096  20.041  0.00  0.00    +0.000 A 
ATOM     34  C   UNL     1       1.772   5.857  20.617  0.00  0.00    +0.000 A 
ATOM     35  C   UNL     1       1.812   4.692  19.848  0.00  0.00    +0.000 A 
ATOM     36  C   UNL     1       2.136   4.753  18.499  0.00  0.00    +0.000 A 
ATOM     37  C   UNL     1       2.433   5.988  17.924  0.00  0.00    +0.000 A 
ENDBRANCH  31  32
ENDBRANCH  30  31
ENDBRANCH  21  30
TORSDOF 5
ENDMDL
MODEL 9
REMARK VINA RESULT:      -7.1      3.179      4.977
REMARK  Name = 
REMARK  8 active torsions:
REMARK  status: ('A' for Active; 'I' for Inactive)
REMARK    1  A    between atoms: C_1  and  O_2
REMARK    2  A    between atoms: O_2  and  C_3
REMARK    3  A    between atoms: C_11  and  C_13
REMARK    4  A    between atoms: N_23  and  C_24
REMARK    5  A    between atoms: N_23  and  C_25
REMARK    6  A    between atoms: C_29  and  O_30
REMARK    7  A    between atoms: O_30  and  C_31
REMARK    8  A    between atoms: C_31  and  C_32
REMARK                            x       y       z     vdW  Elec       q    Type
REMARK                         _______ _______ _______ _____ _____    ______ ____
ROOT
ATOM      1  C   UNL     1      -0.043  10.757  18.519  0.00  0.00    +0.000 A 
ATOM      2  C   UNL     1      -0.323  11.910  19.251  0.00  0.00    +0.000 A 
ATOM      3  C   UNL     1       0.650  12.895  19.555  0.00  0.00    +0.000 A 
ATOM      4  C   UNL     1       0.445  14.104  20.244  0.00  0.00    +0.000 A 
ATOM      5  N   UNL     1      -0.788  14.425  20.782  0.00  0.00    +0.000 N 
ATOM      6  C   UNL     1      -1.276  15.810  20.784  0.00  0.00    +0.000 C 
ATOM      7  C   UNL     1      -2.775  15.820  20.351  0.00  0.00    +0.000 C 
ATOM      8  N   UNL     1      -3.580  14.803  21.063  0.00  0.00    +0.000 N 
ATOM      9  C   UNL     1      -4.872  15.108  21.478  0.00  0.00    +0.000 C 
ATOM     10  O   UNL     1      -5.406  16.186  21.223  0.00  0.00    +0.000 OA
ATOM     11  C   UNL     1      -2.993  13.459  21.000  0.00  0.00    +0.000 C 
ATOM     12  C   UNL     1      -1.574  13.500  21.600  0.00  0.00    +0.000 C 
ATOM     13  N   UNL     1       1.432  15.020  20.343  0.00  0.00    +0.000 NA
ATOM     14  C   UNL     1       2.647  14.736  19.832  0.00  0.00    +0.000 A 
ATOM     15  N   UNL     1       3.676  15.643  19.906  0.00  0.00    +0.000 N 
ATOM     16  C   UNL     1       3.474  16.958  20.477  0.00  0.00    +0.000 C 
ATOM     17  C   UNL     1       5.014  15.279  19.474  0.00  0.00    +0.000 C 
ATOM     18  N   UNL     1       2.908  13.581  19.220  0.00  0.00    +0.000 NA
ATOM     19  C   UNL     1       1.928  12.703  19.072  0.00  0.00    +0.000 A 
ATOM     20  C   UNL     1       2.226  11.541  18.383  0.00  0.00    +0.000 A 
ATOM     21  C   UNL     1       1.285  10.527  18.157  0.00  0.00    +0.000 A 
ENDROOT
BRANCH   9  22
ATOM     22  C   UNL     1      -5.662  14.106  22.257  0.00  0.00    +0.000 A 
ATOM     23  C   UNL     1      -6.818  13.500  21.748  0.00  0.00    +0.000 A 
ATOM     24  C   UNL     1      -7.585  12.654  22.549  0.00  0.00    +0.000 A 
ATOM     25  C   UNL     1      -7.147  12.326  23.830  0.00  0.00    +0.000 A 
ATOM     26  C   UNL     1      -5.941  12.841  24.306  0.00  0.00    +0.000 A 
ATOM     27  C   UNL     1      -5.203  13.735  23.526  0.00  0.00    +0.000 A 
ENDBRANCH   9  22
BRANCH   1  29
ATOM     28  C   UNL     1      -1.922  10.310  17.142  0.00  0.00    +0.000 C 
ATOM     29  O   UNL     1      -1.016   9.863  18.163  0.00  0.00    +0.000 OA
ENDBRANCH   1  29
BRANCH  21  30
ATOM     30  O   UNL     1       1.621   9.309  17.604  0.00  0.00    +0.000 OA
BRANCH  30  31
ATOM     31  C   UNL     1       2.071   8.368  18.588  0.00  0.00    +0.000 C 
BRANCH  31  32
ATOM     32  C   UNL     1       2.777   7.143  18.073  0.00  0.00    +0.000 A 
ATOM     33  C   UNL     1       2.298   5.846  18.240  0.00  0.00    +0.000 A 
ATOM     34  C   UNL     1       3.027   4.766  17.732  0.00  0.00    +0.000 A 
ATOM     35  C   UNL     1       4.225   4.981  17.049  0.00  0.00    +0.000 A 
ATOM     36  C   UNL     1       4.700   6.272  16.853  0.00  0.00    +0.000 A 
ATOM     37  C   UNL     1       3.972   7.350  17.359  0.00  0.00    +0.000 A 
ENDBRANCH  31  32
ENDBRANCH  30  31
ENDBRANCH  21  30
TORSDOF 5
ENDMDL
