MODEL 1
REMARK VINA RESULT:      -8.6      0.000      0.000
REMARK  Name = 
REMARK  5 active torsions:
REMARK  status: ('A' for Active; 'I' for Inactive)
REMARK    1  A    between atoms: C_1  and  C_2
REMARK    2  A    between atoms: C_4  and  C_5
REMARK    3  A    between atoms: N_9  and  C_10
REMARK    4  A    between atoms: C_10  and  C_11
REMARK    5  A    between atoms: C_15  and  C_16
REMARK                            x       y       z     vdW  Elec       q    Type
REMARK                         _______ _______ _______ _____ _____    ______ ____
ROOT
ATOM      1  C   UNL     1       2.812   6.734  19.399  0.00  0.00    +0.000 A 
ATOM      2  C   UNL     1       2.930   7.293  18.113  0.00  0.00    +0.000 A 
ATOM      3  C   UNL     1       2.231   8.444  17.755  0.00  0.00    +0.000 A 
ATOM      4  C   UNL     1       1.419   9.075  18.692  0.00  0.00    +0.000 A 
ATOM      5  C   UNL     1       1.271   8.558  19.988  0.00  0.00    +0.000 A 
ATOM      6  C   UNL     1       1.955   7.366  20.328  0.00  0.00    +0.000 A 
ENDROOT
BRANCH   5   7
ATOM      7  C   UNL     1       0.428   9.384  20.934  0.00  0.00    +0.000 C 
ATOM      8  O   UNL     1      -0.417   8.814  21.618  0.00  0.00    +0.000 OA
ATOM      9  N   UNL     1       0.654  10.744  20.925  0.00  0.00    +0.000 N 
ATOM     10  C   UNL     1      -0.058  11.634  21.676  0.00  0.00    +0.000 A 
ATOM     11  N   UNL     1      -1.029  11.463  22.537  0.00  0.00    +0.000 NA
ATOM     12  C   UNL     1      -1.438  12.696  23.017  0.00  0.00    +0.000 A 
ATOM     13  C   UNL     1      -0.773  13.785  22.509  0.00  0.00    +0.000 A 
ATOM     14  S   UNL     1       0.413  13.257  21.388  0.00  0.00    +0.000 S 
ATOM     15  H   UNL     1       1.334  11.153  20.310  0.00  0.00    +0.000 HD
ENDBRANCH   5   7
BRANCH   1  16
ATOM     16  C   UNL     1       3.804   5.626  19.755  0.00  0.00    +0.000 C 
BRANCH  16  21
ATOM     17  C   UNL     1       4.714   3.959  18.137  0.00  0.00    +0.000 C 
ATOM     18  C   UNL     1       4.037   3.833  16.770  0.00  0.00    +0.000 C 
ATOM     19  C   UNL     1       2.619   3.458  17.105  0.00  0.00    +0.000 C 
ATOM     20  C   UNL     1       2.355   4.186  18.416  0.00  0.00    +0.000 C 
ATOM     21  N   UNL     1       3.645   4.305  19.131  0.00  0.00    +0.000 NA
BRANCH  17  25
ATOM     22  C   UNL     1       7.789   7.954  17.570  0.00  0.00    +0.000 C 
ATOM     23  C   UNL     1       7.195   6.616  17.742  0.00  0.00    +0.000 A 
ATOM     24  C   UNL     1       6.113   5.967  17.197  0.00  0.00    +0.000 A 
ATOM     25  C   UNL     1       5.948   4.820  18.017  0.00  0.00    +0.000 A 
ATOM     26  N   UNL     1       6.966   4.711  18.887  0.00  0.00    +0.000 NA
ATOM     27  O   UNL     1       7.740   5.839  18.712  0.00  0.00    +0.000 OA
ENDBRANCH  17  25
ENDBRANCH  16  21
ENDBRANCH   1  16
TORSDOF 4
ENDMDL
MODEL 2
REMARK VINA RESULT:      -8.4      1.764      2.112
REMARK  Name = 
REMARK  5 active torsions:
REMARK  status: ('A' for Active; 'I' for Inactive)
REMARK    1  A    between atoms: C_1  and  C_2
REMARK    2  A    between atoms: C_4  and  C_5
REMARK    3  A    between atoms: N_9  and  C_10
REMARK    4  A    between atoms: C_10  and  C_11
REMARK    5  A    between atoms: C_15  and  C_16
REMARK                            x       y       z     vdW  Elec       q    Type
REMARK                         _______ _______ _______ _____ _____    ______ ____
ROOT
ATOM      1  C   UNL     1       2.281   7.341  19.369  0.00  0.00    +0.000 A 
ATOM      2  C   UNL     1       2.148   7.868  18.071  0.00  0.00    +0.000 A 
ATOM      3  C   UNL     1       1.458   9.055  17.837  0.00  0.00    +0.000 A 
ATOM      4  C   UNL     1       0.910   9.755  18.907  0.00  0.00    +0.000 A 
ATOM      5  C   UNL     1       1.019   9.273  20.220  0.00  0.00    +0.000 A 
ATOM      6  C   UNL     1       1.688   8.045  20.441  0.00  0.00    +0.000 A 
ENDROOT
BRANCH   5   7
ATOM      7  C   UNL     1       0.454  10.170  21.299  0.00  0.00    +0.000 C 
ATOM      8  O   UNL     1       0.862  10.032  22.449  0.00  0.00    +0.000 OA
ATOM      9  N   UNL     1      -0.519  11.061  20.905  0.00  0.00    +0.000 N 
ATOM     10  C   UNL     1      -1.169  11.900  21.764  0.00  0.00    +0.000 A 
ATOM     11  N   UNL     1      -1.045  12.090  23.054  0.00  0.00    +0.000 NA
ATOM     12  C   UNL     1      -1.960  13.044  23.466  0.00  0.00    +0.000 A 
ATOM     13  C   UNL     1      -2.769  13.561  22.483  0.00  0.00    +0.000 A 
ATOM     14  S   UNL     1      -2.376  12.833  20.980  0.00  0.00    +0.000 S 
ATOM     15  H   UNL     1      -0.839  11.095  19.954  0.00  0.00    +0.000 HD
ENDBRANCH   5   7
BRANCH   1  16
ATOM     16  C   UNL     1       3.259   6.178  19.536  0.00  0.00    +0.000 C 
BRANCH  16  21
ATOM     17  C   UNL     1       3.314   3.689  19.710  0.00  0.00    +0.000 C 
ATOM     18  C   UNL     1       2.083   2.904  19.249  0.00  0.00    +0.000 C 
ATOM     19  C   UNL     1       0.977   3.425  20.126  0.00  0.00    +0.000 C 
ATOM     20  C   UNL     1       1.349   4.886  20.343  0.00  0.00    +0.000 C 
ATOM     21  N   UNL     1       2.825   4.987  20.281  0.00  0.00    +0.000 NA
BRANCH  17  25
ATOM     22  C   UNL     1       5.709   4.440  15.301  0.00  0.00    +0.000 C 
ATOM     23  C   UNL     1       5.303   4.046  16.662  0.00  0.00    +0.000 A 
ATOM     24  C   UNL     1       4.134   3.589  17.222  0.00  0.00    +0.000 A 
ATOM     25  C   UNL     1       4.359   3.684  18.620  0.00  0.00    +0.000 A 
ATOM     26  N   UNL     1       5.635   4.018  18.871  0.00  0.00    +0.000 NA
ATOM     27  O   UNL     1       6.219   4.246  17.642  0.00  0.00    +0.000 OA
ENDBRANCH  17  25
ENDBRANCH  16  21
ENDBRANCH   1  16
TORSDOF 4
ENDMDL
MODEL 3
REMARK VINA RESULT:      -8.4      1.314      1.667
REMARK  Name = 
REMARK  5 active torsions:
REMARK  status: ('A' for Active; 'I' for Inactive)
REMARK    1  A    between atoms: C_1  and  C_2
REMARK    2  A    between atoms: C_4  and  C_5
REMARK    3  A    between atoms: N_9  and  C_10
REMARK    4  A    between atoms: C_10  and  C_11
REMARK    5  A    between atoms: C_15  and  C_16
REMARK                            x       y       z     vdW  Elec       q    Type
REMARK                         _______ _______ _______ _____ _____    ______ ____
ROOT
ATOM      1  C   UNL     1       2.386   6.328  19.992  0.00  0.00    +0.000 A 
ATOM      2  C   UNL     1       2.523   6.734  18.652  0.00  0.00    +0.000 A 
ATOM      3  C   UNL     1       2.088   7.987  18.226  0.00  0.00    +0.000 A 
ATOM      4  C   UNL     1       1.531   8.871  19.144  0.00  0.00    +0.000 A 
ATOM      5  C   UNL     1       1.376   8.514  20.492  0.00  0.00    +0.000 A 
ATOM      6  C   UNL     1       1.786   7.223  20.906  0.00  0.00    +0.000 A 
ENDROOT
BRANCH   5   7
ATOM      7  C   UNL     1       0.837   9.595  21.402  0.00  0.00    +0.000 C 
ATOM      8  O   UNL     1       1.208   9.616  22.572  0.00  0.00    +0.000 OA
ATOM      9  N   UNL     1      -0.075  10.464  20.843  0.00  0.00    +0.000 N 
ATOM     10  C   UNL     1      -0.698  11.458  21.541  0.00  0.00    +0.000 A 
ATOM     11  N   UNL     1      -0.595  11.839  22.790  0.00  0.00    +0.000 NA
ATOM     12  C   UNL     1      -1.465  12.891  23.021  0.00  0.00    +0.000 A 
ATOM     13  C   UNL     1      -2.219  13.291  21.944  0.00  0.00    +0.000 A 
ATOM     14  S   UNL     1      -1.830  12.320  20.584  0.00  0.00    +0.000 S 
ATOM     15  H   UNL     1      -0.369  10.366  19.888  0.00  0.00    +0.000 HD
ENDBRANCH   5   7
BRANCH   1  16
ATOM     16  C   UNL     1       3.115   5.044  20.393  0.00  0.00    +0.000 C 
BRANCH  16  21
ATOM     17  C   UNL     1       3.129   2.999  18.964  0.00  0.00    +0.000 C 
ATOM     18  C   UNL     1       2.090   2.892  17.844  0.00  0.00    +0.000 C 
ATOM     19  C   UNL     1       0.774   2.966  18.568  0.00  0.00    +0.000 C 
ATOM     20  C   UNL     1       1.059   3.900  19.737  0.00  0.00    +0.000 C 
ATOM     21  N   UNL     1       2.488   3.749  20.094  0.00  0.00    +0.000 NA
BRANCH  17  25
ATOM     22  C   UNL     1       6.637   5.646  16.429  0.00  0.00    +0.000 C 
ATOM     23  C   UNL     1       5.888   4.672  17.242  0.00  0.00    +0.000 A 
ATOM     24  C   UNL     1       4.665   4.056  17.121  0.00  0.00    +0.000 A 
ATOM     25  C   UNL     1       4.446   3.466  18.393  0.00  0.00    +0.000 A 
ATOM     26  N   UNL     1       5.541   3.583  19.162  0.00  0.00    +0.000 NA
ATOM     27  O   UNL     1       6.438   4.341  18.438  0.00  0.00    +0.000 OA
ENDBRANCH  17  25
ENDBRANCH  16  21
ENDBRANCH   1  16
TORSDOF 4
ENDMDL
MODEL 4
REMARK VINA RESULT:      -8.3      1.608      1.887
REMARK  Name = 
REMARK  5 active torsions:
REMARK  status: ('A' for Active; 'I' for Inactive)
REMARK    1  A    between atoms: C_1  and  C_2
REMARK    2  A    between atoms: C_4  and  C_5
REMARK    3  A    between atoms: N_9  and  C_10
REMARK    4  A    between atoms: C_10  and  C_11
REMARK    5  A    between atoms: C_15  and  C_16
REMARK                            x       y       z     vdW  Elec       q    Type
REMARK                         _______ _______ _______ _____ _____    ______ ____
ROOT
ATOM      1  C   UNL     1       2.739   6.530  19.327  0.00  0.00    +0.000 A 
ATOM      2  C   UNL     1       3.346   6.744  18.075  0.00  0.00    +0.000 A 
ATOM      3  C   UNL     1       3.076   7.885  17.324  0.00  0.00    +0.000 A 
ATOM      4  C   UNL     1       2.211   8.852  17.827  0.00  0.00    +0.000 A 
ATOM      5  C   UNL     1       1.585   8.687  19.072  0.00  0.00    +0.000 A 
ATOM      6  C   UNL     1       1.836   7.504  19.809  0.00  0.00    +0.000 A 
ENDROOT
BRANCH   5   7
ATOM      7  C   UNL     1       0.736   9.847  19.541  0.00  0.00    +0.000 C 
ATOM      8  O   UNL     1       0.557  10.791  18.775  0.00  0.00    +0.000 OA
ATOM      9  N   UNL     1       0.254   9.770  20.829  0.00  0.00    +0.000 N 
ATOM     10  C   UNL     1      -0.479  10.757  21.423  0.00  0.00    +0.000 A 
ATOM     11  N   UNL     1      -0.903  11.913  20.976  0.00  0.00    +0.000 NA
ATOM     12  C   UNL     1      -1.592  12.567  21.984  0.00  0.00    +0.000 A 
ATOM     13  C   UNL     1      -1.676  11.901  23.182  0.00  0.00    +0.000 A 
ATOM     14  S   UNL     1      -0.867  10.393  23.053  0.00  0.00    +0.000 S 
ATOM     15  H   UNL     1       0.473   8.988  21.420  0.00  0.00    +0.000 HD
ENDBRANCH   5   7
BRANCH   1  16
ATOM     16  C   UNL     1       3.293   5.377  20.165  0.00  0.00    +0.000 C 
BRANCH  16  21
ATOM     17  C   UNL     1       3.333   3.140  19.060  0.00  0.00    +0.000 C 
ATOM     18  C   UNL     1       2.320   2.866  17.945  0.00  0.00    +0.000 C 
ATOM     19  C   UNL     1       0.987   3.049  18.617  0.00  0.00    +0.000 C 
ATOM     20  C   UNL     1       1.248   4.148  19.639  0.00  0.00    +0.000 C 
ATOM     21  N   UNL     1       2.668   4.052  20.049  0.00  0.00    +0.000 NA
BRANCH  17  25
ATOM     22  C   UNL     1       6.903   5.321  16.191  0.00  0.00    +0.000 C 
ATOM     23  C   UNL     1       6.135   4.505  17.149  0.00  0.00    +0.000 A 
ATOM     24  C   UNL     1       4.926   3.854  17.105  0.00  0.00    +0.000 A 
ATOM     25  C   UNL     1       4.665   3.514  18.458  0.00  0.00    +0.000 A 
ATOM     26  N   UNL     1       5.728   3.799  19.229  0.00  0.00    +0.000 NA
ATOM     27  O   UNL     1       6.642   4.422  18.405  0.00  0.00    +0.000 OA
ENDBRANCH  17  25
ENDBRANCH  16  21
ENDBRANCH   1  16
TORSDOF 4
ENDMDL
MODEL 5
REMARK VINA RESULT:      -8.1      2.180      3.537
REMARK  Name = 
REMARK  5 active torsions:
REMARK  status: ('A' for Active; 'I' for Inactive)
REMARK    1  A    between atoms: C_1  and  C_2
REMARK    2  A    between atoms: C_4  and  C_5
REMARK    3  A    between atoms: N_9  and  C_10
REMARK    4  A    between atoms: C_10  and  C_11
REMARK    5  A    between atoms: C_15  and  C_16
REMARK                            x       y       z     vdW  Elec       q    Type
REMARK                         _______ _______ _______ _____ _____    ______ ____
ROOT
ATOM      1  C   UNL     1       2.377   7.560  18.833  0.00  0.00    +0.000 A 
ATOM      2  C   UNL     1       2.510   8.450  17.751  0.00  0.00    +0.000 A 
ATOM      3  C   UNL     1       1.894   9.700  17.761  0.00  0.00    +0.000 A 
ATOM      4  C   UNL     1       1.155  10.094  18.870  0.00  0.00    +0.000 A 
ATOM      5  C   UNL     1       0.996   9.244  19.975  0.00  0.00    +0.000 A 
ATOM      6  C   UNL     1       1.593   7.960  19.938  0.00  0.00    +0.000 A 
ENDROOT
BRANCH   5   7
ATOM      7  C   UNL     1       0.241   9.825  21.150  0.00  0.00    +0.000 C 
ATOM      8  O   UNL     1       0.397   9.318  22.257  0.00  0.00    +0.000 OA
ATOM      9  N   UNL     1      -0.609  10.874  20.871  0.00  0.00    +0.000 N 
ATOM     10  C   UNL     1      -1.403  11.472  21.807  0.00  0.00    +0.000 A 
ATOM     11  N   UNL     1      -1.545  11.259  23.091  0.00  0.00    +0.000 NA
ATOM     12  C   UNL     1      -2.503  12.122  23.595  0.00  0.00    +0.000 A 
ATOM     13  C   UNL     1      -3.078  12.975  22.684  0.00  0.00    +0.000 A 
ATOM     14  S   UNL     1      -2.398  12.696  21.134  0.00  0.00    +0.000 S 
ATOM     15  H   UNL     1      -0.723  11.215  19.934  0.00  0.00    +0.000 HD
ENDBRANCH   5   7
BRANCH   1  16
ATOM     16  C   UNL     1       3.288   6.332  18.821  0.00  0.00    +0.000 C 
BRANCH  16  21
ATOM     17  C   UNL     1       3.497   4.339  17.334  0.00  0.00    +0.000 C 
ATOM     18  C   UNL     1       4.862   3.653  17.231  0.00  0.00    +0.000 C 
ATOM     19  C   UNL     1       5.770   4.736  16.717  0.00  0.00    +0.000 C 
ATOM     20  C   UNL     1       5.205   6.005  17.342  0.00  0.00    +0.000 C 
ATOM     21  N   UNL     1       3.750   5.804  17.529  0.00  0.00    +0.000 NA
BRANCH  17  25
ATOM     22  C   UNL     1       1.367   2.628  21.609  0.00  0.00    +0.000 C 
ATOM     23  C   UNL     1       1.775   2.892  20.218  0.00  0.00    +0.000 A 
ATOM     24  C   UNL     1       2.978   3.114  19.594  0.00  0.00    +0.000 A 
ATOM     25  C   UNL     1       2.619   3.584  18.303  0.00  0.00    +0.000 A 
ATOM     26  N   UNL     1       1.292   3.488  18.119  0.00  0.00    +0.000 NA
ATOM     27  O   UNL     1       0.769   3.059  19.321  0.00  0.00    +0.000 OA
ENDBRANCH  17  25
ENDBRANCH  16  21
ENDBRANCH   1  16
TORSDOF 4
ENDMDL
MODEL 6
REMARK VINA RESULT:      -8.1      1.299      1.359
REMARK  Name = 
REMARK  5 active torsions:
REMARK  status: ('A' for Active; 'I' for Inactive)
REMARK    1  A    between atoms: C_1  and  C_2
REMARK    2  A    between atoms: C_4  and  C_5
REMARK    3  A    between atoms: N_9  and  C_10
REMARK    4  A    between atoms: C_10  and  C_11
REMARK    5  A    between atoms: C_15  and  C_16
REMARK                            x       y       z     vdW  Elec       q    Type
REMARK                         _______ _______ _______ _____ _____    ______ ____
ROOT
ATOM      1  C   UNL     1       2.813   6.813  19.113  0.00  0.00    +0.000 A 
ATOM      2  C   UNL     1       3.415   7.156  17.888  0.00  0.00    +0.000 A 
ATOM      3  C   UNL     1       3.047   8.309  17.197  0.00  0.00    +0.000 A 
ATOM      4  C   UNL     1       2.087   9.158  17.737  0.00  0.00    +0.000 A 
ATOM      5  C   UNL     1       1.461   8.862  18.957  0.00  0.00    +0.000 A 
ATOM      6  C   UNL     1       1.814   7.667  19.631  0.00  0.00    +0.000 A 
ENDROOT
BRANCH   5   7
ATOM      7  C   UNL     1       0.499   9.907  19.475  0.00  0.00    +0.000 C 
ATOM      8  O   UNL     1       0.110  10.781  18.704  0.00  0.00    +0.000 OA
ATOM      9  N   UNL     1       0.157   9.817  20.807  0.00  0.00    +0.000 N 
ATOM     10  C   UNL     1      -0.655  10.713  21.441  0.00  0.00    +0.000 A 
ATOM     11  N   UNL     1      -1.285  11.774  21.006  0.00  0.00    +0.000 NA
ATOM     12  C   UNL     1      -1.965  12.366  22.057  0.00  0.00    +0.000 A 
ATOM     13  C   UNL     1      -1.837  11.747  23.277  0.00  0.00    +0.000 A 
ATOM     14  S   UNL     1      -0.829  10.368  23.112  0.00  0.00    +0.000 S 
ATOM     15  H   UNL     1       0.543   9.101  21.395  0.00  0.00    +0.000 HD
ENDBRANCH   5   7
BRANCH   1  16
ATOM     16  C   UNL     1       3.463   5.670  19.895  0.00  0.00    +0.000 C 
BRANCH  16  21
ATOM     17  C   UNL     1       4.536   3.837  18.587  0.00  0.00    +0.000 C 
ATOM     18  C   UNL     1       4.063   3.600  17.150  0.00  0.00    +0.000 C 
ATOM     19  C   UNL     1       2.598   3.291  17.302  0.00  0.00    +0.000 C 
ATOM     20  C   UNL     1       2.172   4.146  18.488  0.00  0.00    +0.000 C 
ATOM     21  N   UNL     1       3.347   4.300  19.375  0.00  0.00    +0.000 NA
BRANCH  17  25
ATOM     22  C   UNL     1       7.891   7.554  17.772  0.00  0.00    +0.000 C 
ATOM     23  C   UNL     1       7.190   6.315  18.153  0.00  0.00    +0.000 A 
ATOM     24  C   UNL     1       6.265   5.505  17.538  0.00  0.00    +0.000 A 
ATOM     25  C   UNL     1       5.806   4.653  18.576  0.00  0.00    +0.000 A 
ATOM     26  N   UNL     1       6.532   4.835  19.692  0.00  0.00    +0.000 NA
ATOM     27  O   UNL     1       7.393   5.878  19.422  0.00  0.00    +0.000 OA
ENDBRANCH  17  25
ENDBRANCH  16  21
ENDBRANCH   1  16
TORSDOF 4
ENDMDL
MODEL 7
REMARK VINA RESULT:      -8.0      1.186      1.262
REMARK  Name = 
REMARK  5 active torsions:
REMARK  status: ('A' for Active; 'I' for Inactive)
REMARK    1  A    between atoms: C_1  and  C_2
REMARK    2  A    between atoms: C_4  and  C_5
REMARK    3  A    between atoms: N_9  and  C_10
REMARK    4  A    between atoms: C_10  and  C_11
REMARK    5  A    between atoms: C_15  and  C_16
REMARK                            x       y       z     vdW  Elec       q    Type
REMARK                         _______ _______ _______ _____ _____    ______ ____
ROOT
ATOM      1  C   UNL     1       2.210   7.534  19.349  0.00  0.00    +0.000 A 
ATOM      2  C   UNL     1       2.069   8.074  18.057  0.00  0.00    +0.000 A 
ATOM      3  C   UNL     1       1.305   9.216  17.828  0.00  0.00    +0.000 A 
ATOM      4  C   UNL     1       0.688   9.858  18.897  0.00  0.00    +0.000 A 
ATOM      5  C   UNL     1       0.802   9.360  20.204  0.00  0.00    +0.000 A 
ATOM      6  C   UNL     1       1.548   8.176  20.420  0.00  0.00    +0.000 A 
ENDROOT
BRANCH   5   7
ATOM      7  C   UNL     1       0.156  10.197  21.286  0.00  0.00    +0.000 C 
ATOM      8  O   UNL     1       0.487  10.006  22.453  0.00  0.00    +0.000 OA
ATOM      9  N   UNL     1      -0.800  11.099  20.871  0.00  0.00    +0.000 N 
ATOM     10  C   UNL     1      -1.516  11.888  21.724  0.00  0.00    +0.000 A 
ATOM     11  N   UNL     1      -1.481  12.014  23.027  0.00  0.00    +0.000 NA
ATOM     12  C   UNL     1      -2.433  12.939  23.423  0.00  0.00    +0.000 A 
ATOM     13  C   UNL     1      -3.180  13.497  22.414  0.00  0.00    +0.000 A 
ATOM     14  S   UNL     1      -2.678  12.849  20.908  0.00  0.00    +0.000 S 
ATOM     15  H   UNL     1      -1.055  11.177  19.903  0.00  0.00    +0.000 HD
ENDBRANCH   5   7
BRANCH   1  16
ATOM     16  C   UNL     1       3.261   6.436  19.518  0.00  0.00    +0.000 C 
BRANCH  16  21
ATOM     17  C   UNL     1       3.906   4.204  18.608  0.00  0.00    +0.000 C 
ATOM     18  C   UNL     1       3.321   3.776  17.259  0.00  0.00    +0.000 C 
ATOM     19  C   UNL     1       1.835   3.791  17.492  0.00  0.00    +0.000 C 
ATOM     20  C   UNL     1       1.638   4.934  18.479  0.00  0.00    +0.000 C 
ATOM     21  N   UNL     1       2.867   5.037  19.298  0.00  0.00    +0.000 NA
BRANCH  17  25
ATOM     22  C   UNL     1       7.808   7.318  17.707  0.00  0.00    +0.000 C 
ATOM     23  C   UNL     1       6.924   6.172  17.986  0.00  0.00    +0.000 A 
ATOM     24  C   UNL     1       5.706   5.757  17.504  0.00  0.00    +0.000 A 
ATOM     25  C   UNL     1       5.303   4.742  18.409  0.00  0.00    +0.000 A 
ATOM     26  N   UNL     1       6.291   4.460  19.274  0.00  0.00    +0.000 NA
ATOM     27  O   UNL     1       7.301   5.360  19.006  0.00  0.00    +0.000 OA
ENDBRANCH  17  25
ENDBRANCH  16  21
ENDBRANCH   1  16
TORSDOF 4
ENDMDL
MODEL 8
REMARK VINA RESULT:      -7.8      1.827      2.640
REMARK  Name = 
REMARK  5 active torsions:
REMARK  status: ('A' for Active; 'I' for Inactive)
REMARK    1  A    between atoms: C_1  and  C_2
REMARK    2  A    between atoms: C_4  and  C_5
REMARK    3  A    between atoms: N_9  and  C_10
REMARK    4  A    between atoms: C_10  and  C_11
REMARK    5  A    between atoms: C_15  and  C_16
REMARK                            x       y       z     vdW  Elec       q    Type
REMARK                         _______ _______ _______ _____ _____    ______ ____
ROOT
ATOM      1  C   UNL     1       3.827   6.589  17.883  0.00  0.00    +0.000 A 
ATOM      2  C   UNL     1       3.683   5.480  18.737  0.00  0.00    +0.000 A 
ATOM      3  C   UNL     1       2.821   5.515  19.831  0.00  0.00    +0.000 A 
ATOM      4  C   UNL     1       2.063   6.655  20.074  0.00  0.00    +0.000 A 
ATOM      5  C   UNL     1       2.168   7.785  19.249  0.00  0.00    +0.000 A 
ATOM      6  C   UNL     1       3.077   7.753  18.163  0.00  0.00    +0.000 A 
ENDROOT
BRANCH   5   7
ATOM      7  C   UNL     1       1.229   8.926  19.571  0.00  0.00    +0.000 C 
ATOM      8  O   UNL     1       0.960   9.733  18.685  0.00  0.00    +0.000 OA
ATOM      9  N   UNL     1       0.771   8.992  20.869  0.00  0.00    +0.000 N 
ATOM     10  C   UNL     1      -0.037   9.988  21.336  0.00  0.00    +0.000 A 
ATOM     11  N   UNL     1      -0.565  11.029  20.743  0.00  0.00    +0.000 NA
ATOM     12  C   UNL     1      -1.295  11.760  21.664  0.00  0.00    +0.000 A 
ATOM     13  C   UNL     1      -1.307  11.265  22.946  0.00  0.00    +0.000 A 
ATOM     14  S   UNL     1      -0.372   9.828  23.010  0.00  0.00    +0.000 S 
ATOM     15  H   UNL     1       1.063   8.322  21.558  0.00  0.00    +0.000 HD
ENDBRANCH   5   7
BRANCH   1  16
ATOM     16  C   UNL     1       4.604   6.354  16.587  0.00  0.00    +0.000 C 
BRANCH  16  21
ATOM     17  C   UNL     1       6.564   4.812  16.508  0.00  0.00    +0.000 C 
ATOM     18  C   UNL     1       7.190   4.507  15.144  0.00  0.00    +0.000 C 
ATOM     19  C   UNL     1       6.062   3.895  14.360  0.00  0.00    +0.000 C 
ATOM     20  C   UNL     1       4.827   4.618  14.882  0.00  0.00    +0.000 C 
ATOM     21  N   UNL     1       5.092   5.000  16.288  0.00  0.00    +0.000 NA
BRANCH  17  25
ATOM     22  C   UNL     1       8.231   9.301  18.182  0.00  0.00    +0.000 C 
ATOM     23  C   UNL     1       8.024   7.876  17.867  0.00  0.00    +0.000 A 
ATOM     24  C   UNL     1       7.655   7.184  16.739  0.00  0.00    +0.000 A 
ATOM     25  C   UNL     1       7.370   5.877  17.211  0.00  0.00    +0.000 A 
ATOM     26  N   UNL     1       7.707   5.759  18.506  0.00  0.00    +0.000 NA
ATOM     27  O   UNL     1       8.113   7.013  18.911  0.00  0.00    +0.000 OA
ENDBRANCH  17  25
ENDBRANCH  16  21
ENDBRANCH   1  16
TORSDOF 4
ENDMDL
MODEL 9
REMARK VINA RESULT:      -7.8      1.860      2.289
REMARK  Name = 
REMARK  5 active torsions:
REMARK  status: ('A' for Active; 'I' for Inactive)
REMARK    1  A    between atoms: C_1  and  C_2
REMARK    2  A    between atoms: C_4  and  C_5
REMARK    3  A    between atoms: N_9  and  C_10
REMARK    4  A    between atoms: C_10  and  C_11
REMARK    5  A    between atoms: C_15  and  C_16
REMARK                            x       y       z     vdW  Elec       q    Type
REMARK                         _______ _______ _______ _____ _____    ______ ____
ROOT
ATOM      1  C   UNL     1       2.319   7.308  19.168  0.00  0.00    +0.000 A 
ATOM      2  C   UNL     1       1.922   6.895  20.454  0.00  0.00    +0.000 A 
ATOM      3  C   UNL     1       1.162   7.722  21.279  0.00  0.00    +0.000 A 
ATOM      4  C   UNL     1       0.760   8.971  20.819  0.00  0.00    +0.000 A 
ATOM      5  C   UNL     1       1.128   9.427  19.544  0.00  0.00    +0.000 A 
ATOM      6  C   UNL     1       1.933   8.594  18.729  0.00  0.00    +0.000 A 
ENDROOT
BRANCH   5   7
ATOM      7  C   UNL     1       0.556  10.765  19.133  0.00  0.00    +0.000 C 
ATOM      8  O   UNL     1      -0.264  10.798  18.220  0.00  0.00    +0.000 OA
ATOM      9  N   UNL     1       1.039  11.868  19.804  0.00  0.00    +0.000 N 
ATOM     10  C   UNL     1       0.669  13.150  19.517  0.00  0.00    +0.000 A 
ATOM     11  N   UNL     1      -0.173  13.635  18.639  0.00  0.00    +0.000 NA
ATOM     12  C   UNL     1      -0.176  15.018  18.724  0.00  0.00    +0.000 A 
ATOM     13  C   UNL     1       0.668  15.561  19.663  0.00  0.00    +0.000 A 
ATOM     14  S   UNL     1       1.501  14.302  20.477  0.00  0.00    +0.000 S 
ATOM     15  H   UNL     1       1.743  11.776  20.514  0.00  0.00    +0.000 HD
ENDBRANCH   5   7
BRANCH   1  16
ATOM     16  C   UNL     1       2.931   6.235  18.267  0.00  0.00    +0.000 C 
BRANCH  16  21
ATOM     17  C   UNL     1       4.058   4.044  18.660  0.00  0.00    +0.000 C 
ATOM     18  C   UNL     1       3.955   2.972  17.572  0.00  0.00    +0.000 C 
ATOM     19  C   UNL     1       2.475   2.737  17.439  0.00  0.00    +0.000 C 
ATOM     20  C   UNL     1       1.868   4.106  17.714  0.00  0.00    +0.000 C 
ATOM     21  N   UNL     1       2.775   4.822  18.640  0.00  0.00    +0.000 NA
BRANCH  17  25
ATOM     22  C   UNL     1       7.637   7.440  17.480  0.00  0.00    +0.000 C 
ATOM     23  C   UNL     1       6.865   6.283  17.965  0.00  0.00    +0.000 A 
ATOM     24  C   UNL     1       5.856   5.511  17.441  0.00  0.00    +0.000 A 
ATOM     25  C   UNL     1       5.383   4.759  18.547  0.00  0.00    +0.000 A 
ATOM     26  N   UNL     1       6.169   4.951  19.620  0.00  0.00    +0.000 NA
ATOM     27  O   UNL     1       7.092   5.908  19.250  0.00  0.00    +0.000 OA
ENDBRANCH  17  25
ENDBRANCH  16  21
ENDBRANCH   1  16
TORSDOF 4
ENDMDL
