MODEL 1
REMARK VINA RESULT:      -7.0      0.000      0.000
REMARK  Name = 
REMARK  5 active torsions:
REMARK  status: ('A' for Active; 'I' for Inactive)
REMARK    1  A    between atoms: C_1  and  O_2
REMARK    2  A    between atoms: O_2  and  C_3
REMARK    3  A    between atoms: C_3  and  C_5
REMARK    4  A    between atoms: C_10  and  C_11
REMARK    5  A    between atoms: C_15  and  O_16
REMARK                            x       y       z     vdW  Elec       q    Type
REMARK                         _______ _______ _______ _____ _____    ______ ____
ROOT
ATOM      1  C   UNL     1       3.525   3.773  19.924  0.00  0.00    +0.000 A 
ATOM      2  C   UNL     1       2.160   3.860  20.272  0.00  0.00    +0.000 A 
ATOM      3  C   UNL     1       1.483   5.079  20.251  0.00  0.00    +0.000 A 
ATOM      4  C   UNL     1       2.156   6.230  19.866  0.00  0.00    +0.000 A 
ATOM      5  C   UNL     1       3.507   6.160  19.527  0.00  0.00    +0.000 A 
ATOM      6  C   UNL     1       4.219   4.941  19.574  0.00  0.00    +0.000 A 
ENDROOT
BRANCH   6   7
ATOM      7  C   UNL     1       5.624   4.955  19.072  0.00  0.00    +0.000 C 
ATOM      8  O   UNL     1       6.542   5.196  19.851  0.00  0.00    +0.000 OA
ATOM      9  N   UNL     1       5.830   4.535  17.776  0.00  0.00    +0.000 N 
ATOM     10  C   UNL     1       7.109   4.241  17.154  0.00  0.00    +0.000 C 
ATOM     11  C   UNL     1       6.934   4.641  15.711  0.00  0.00    +0.000 C 
ATOM     12  C   UNL     1       5.434   4.532  15.514  0.00  0.00    +0.000 C 
ATOM     13  O   UNL     1       4.837   4.786  16.798  0.00  0.00    +0.000 OA
BRANCH  11  14
ATOM     14  O   UNL     1       7.369   5.988  15.505  0.00  0.00    +0.000 OA
ATOM     15  H   UNL     1       6.567   6.550  15.478  0.00  0.00    +0.000 HD
ENDBRANCH  11  14
ENDBRANCH   6   7
BRANCH   1  16
ATOM     16  C   UNL     1       4.073   2.398  19.908  0.00  0.00    +0.000 C 
ATOM     17  O   UNL     1       5.139   2.124  20.442  0.00  0.00    +0.000 OA
BRANCH  16  19
ATOM     18  C   UNL     1       3.473   1.799  17.723  0.00  0.00    +0.000 C 
ATOM     19  O   UNL     1       3.333   1.574  19.130  0.00  0.00    +0.000 OA
ENDBRANCH  16  19
ENDBRANCH   1  16
TORSDOF 4
ENDMDL
MODEL 2
REMARK VINA RESULT:      -6.9      1.911      3.372
REMARK  Name = 
REMARK  5 active torsions:
REMARK  status: ('A' for Active; 'I' for Inactive)
REMARK    1  A    between atoms: C_1  and  O_2
REMARK    2  A    between atoms: O_2  and  C_3
REMARK    3  A    between atoms: C_3  and  C_5
REMARK    4  A    between atoms: C_10  and  C_11
REMARK    5  A    between atoms: C_15  and  O_16
REMARK                            x       y       z     vdW  Elec       q    Type
REMARK                         _______ _______ _______ _____ _____    ______ ____
ROOT
ATOM      1  C   UNL     1       2.180   3.952  19.322  0.00  0.00    +0.000 A 
ATOM      2  C   UNL     1       1.399   3.914  20.496  0.00  0.00    +0.000 A 
ATOM      3  C   UNL     1       1.777   3.139  21.592  0.00  0.00    +0.000 A 
ATOM      4  C   UNL     1       2.950   2.401  21.537  0.00  0.00    +0.000 A 
ATOM      5  C   UNL     1       3.728   2.422  20.379  0.00  0.00    +0.000 A 
ATOM      6  C   UNL     1       3.345   3.175  19.246  0.00  0.00    +0.000 A 
ENDROOT
BRANCH   6   7
ATOM      7  C   UNL     1       4.310   3.227  18.109  0.00  0.00    +0.000 C 
ATOM      8  O   UNL     1       4.148   2.485  17.145  0.00  0.00    +0.000 OA
ATOM      9  N   UNL     1       5.252   4.232  18.134  0.00  0.00    +0.000 N 
ATOM     10  C   UNL     1       6.128   4.625  17.044  0.00  0.00    +0.000 C 
ATOM     11  C   UNL     1       7.400   5.073  17.718  0.00  0.00    +0.000 C 
ATOM     12  C   UNL     1       6.920   5.481  19.097  0.00  0.00    +0.000 C 
ATOM     13  O   UNL     1       5.760   4.678  19.378  0.00  0.00    +0.000 OA
BRANCH  11  14
ATOM     14  O   UNL     1       8.330   3.991  17.811  0.00  0.00    +0.000 OA
ATOM     15  H   UNL     1       8.239   3.460  16.992  0.00  0.00    +0.000 HD
ENDBRANCH  11  14
ENDBRANCH   6   7
BRANCH   1  16
ATOM     16  C   UNL     1       1.694   4.892  18.285  0.00  0.00    +0.000 C 
ATOM     17  O   UNL     1       1.223   4.495  17.228  0.00  0.00    +0.000 OA
BRANCH  16  19
ATOM     18  C   UNL     1       3.115   6.723  17.940  0.00  0.00    +0.000 C 
ATOM     19  O   UNL     1       1.971   6.177  18.606  0.00  0.00    +0.000 OA
ENDBRANCH  16  19
ENDBRANCH   1  16
TORSDOF 4
ENDMDL
MODEL 3
REMARK VINA RESULT:      -6.9      1.623      2.637
REMARK  Name = 
REMARK  5 active torsions:
REMARK  status: ('A' for Active; 'I' for Inactive)
REMARK    1  A    between atoms: C_1  and  O_2
REMARK    2  A    between atoms: O_2  and  C_3
REMARK    3  A    between atoms: C_3  and  C_5
REMARK    4  A    between atoms: C_10  and  C_11
REMARK    5  A    between atoms: C_15  and  O_16
REMARK                            x       y       z     vdW  Elec       q    Type
REMARK                         _______ _______ _______ _____ _____    ______ ____
ROOT
ATOM      1  C   UNL     1       3.542   2.635  20.367  0.00  0.00    +0.000 A 
ATOM      2  C   UNL     1       2.598   2.512  21.409  0.00  0.00    +0.000 A 
ATOM      3  C   UNL     1       1.488   3.354  21.484  0.00  0.00    +0.000 A 
ATOM      4  C   UNL     1       1.296   4.322  20.509  0.00  0.00    +0.000 A 
ATOM      5  C   UNL     1       2.225   4.459  19.477  0.00  0.00    +0.000 A 
ATOM      6  C   UNL     1       3.373   3.639  19.403  0.00  0.00    +0.000 A 
ENDROOT
BRANCH   6   7
ATOM      7  C   UNL     1       4.234   3.785  18.193  0.00  0.00    +0.000 C 
ATOM      8  O   UNL     1       3.887   3.262  17.138  0.00  0.00    +0.000 OA
ATOM      9  N   UNL     1       5.306   4.645  18.288  0.00  0.00    +0.000 N 
ATOM     10  C   UNL     1       6.132   5.125  17.193  0.00  0.00    +0.000 C 
ATOM     11  C   UNL     1       7.507   5.281  17.790  0.00  0.00    +0.000 C 
ATOM     12  C   UNL     1       7.210   5.479  19.264  0.00  0.00    +0.000 C 
ATOM     13  O   UNL     1       5.977   4.784  19.527  0.00  0.00    +0.000 OA
BRANCH  11  14
ATOM     14  O   UNL     1       8.281   4.095  17.590  0.00  0.00    +0.000 OA
ATOM     15  H   UNL     1       8.195   3.849  16.646  0.00  0.00    +0.000 HD
ENDBRANCH  11  14
ENDBRANCH   6   7
BRANCH   1  16
ATOM     16  C   UNL     1       4.611   1.609  20.376  0.00  0.00    +0.000 C 
ATOM     17  O   UNL     1       4.739   0.807  19.462  0.00  0.00    +0.000 OA
BRANCH  16  19
ATOM     18  C   UNL     1       5.881   0.344  21.886  0.00  0.00    +0.000 C 
ATOM     19  O   UNL     1       5.287   1.603  21.549  0.00  0.00    +0.000 OA
ENDBRANCH  16  19
ENDBRANCH   1  16
TORSDOF 4
ENDMDL
MODEL 4
REMARK VINA RESULT:      -6.9      1.775      3.087
REMARK  Name = 
REMARK  5 active torsions:
REMARK  status: ('A' for Active; 'I' for Inactive)
REMARK    1  A    between atoms: C_1  and  O_2
REMARK    2  A    between atoms: O_2  and  C_3
REMARK    3  A    between atoms: C_3  and  C_5
REMARK    4  A    between atoms: C_10  and  C_11
REMARK    5  A    between atoms: C_15  and  O_16
REMARK                            x       y       z     vdW  Elec       q    Type
REMARK                         _______ _______ _______ _____ _____    ______ ____
ROOT
ATOM      1  C   UNL     1       2.651   4.565  18.753  0.00  0.00    +0.000 A 
ATOM      2  C   UNL     1       1.339   4.049  18.801  0.00  0.00    +0.000 A 
ATOM      3  C   UNL     1       1.087   2.692  18.599  0.00  0.00    +0.000 A 
ATOM      4  C   UNL     1       2.145   1.826  18.361  0.00  0.00    +0.000 A 
ATOM      5  C   UNL     1       3.446   2.324  18.304  0.00  0.00    +0.000 A 
ATOM      6  C   UNL     1       3.719   3.700  18.472  0.00  0.00    +0.000 A 
ENDROOT
BRANCH   6   7
ATOM      7  C   UNL     1       5.154   4.107  18.517  0.00  0.00    +0.000 C 
ATOM      8  O   UNL     1       5.741   4.134  19.594  0.00  0.00    +0.000 OA
ATOM      9  N   UNL     1       5.794   4.278  17.308  0.00  0.00    +0.000 N 
ATOM     10  C   UNL     1       7.223   4.437  17.100  0.00  0.00    +0.000 C 
ATOM     11  C   UNL     1       7.337   5.358  15.912  0.00  0.00    +0.000 C 
ATOM     12  C   UNL     1       6.022   5.135  15.190  0.00  0.00    +0.000 C 
ATOM     13  O   UNL     1       5.063   4.765  16.198  0.00  0.00    +0.000 OA
BRANCH  11  14
ATOM     14  O   UNL     1       7.449   6.719  16.338  0.00  0.00    +0.000 OA
ATOM     15  H   UNL     1       7.480   6.714  17.317  0.00  0.00    +0.000 HD
ENDBRANCH  11  14
ENDBRANCH   6   7
BRANCH   1  16
ATOM     16  C   UNL     1       2.762   6.006  19.078  0.00  0.00    +0.000 C 
ATOM     17  O   UNL     1       2.458   6.441  20.180  0.00  0.00    +0.000 OA
BRANCH  16  19
ATOM     18  C   UNL     1       2.618   8.092  18.020  0.00  0.00    +0.000 C 
ATOM     19  O   UNL     1       3.089   6.740  17.990  0.00  0.00    +0.000 OA
ENDBRANCH  16  19
ENDBRANCH   1  16
TORSDOF 4
ENDMDL
MODEL 5
REMARK VINA RESULT:      -6.8      2.757      5.692
REMARK  Name = 
REMARK  5 active torsions:
REMARK  status: ('A' for Active; 'I' for Inactive)
REMARK    1  A    between atoms: C_1  and  O_2
REMARK    2  A    between atoms: O_2  and  C_3
REMARK    3  A    between atoms: C_3  and  C_5
REMARK    4  A    between atoms: C_10  and  C_11
REMARK    5  A    between atoms: C_15  and  O_16
REMARK                            x       y       z     vdW  Elec       q    Type
REMARK                         _______ _______ _______ _____ _____    ______ ____
ROOT
ATOM      1  C   UNL     1       3.634   6.270  17.667  0.00  0.00    +0.000 A 
ATOM      2  C   UNL     1       4.729   6.938  17.080  0.00  0.00    +0.000 A 
ATOM      3  C   UNL     1       5.635   6.262  16.262  0.00  0.00    +0.000 A 
ATOM      4  C   UNL     1       5.451   4.911  16.006  0.00  0.00    +0.000 A 
ATOM      5  C   UNL     1       4.377   4.237  16.587  0.00  0.00    +0.000 A 
ATOM      6  C   UNL     1       3.468   4.895  17.445  0.00  0.00    +0.000 A 
ENDROOT
BRANCH   6   7
ATOM      7  C   UNL     1       2.286   4.112  17.910  0.00  0.00    +0.000 C 
ATOM      8  O   UNL     1       1.238   4.165  17.274  0.00  0.00    +0.000 OA
ATOM      9  N   UNL     1       2.488   3.236  18.955  0.00  0.00    +0.000 N 
ATOM     10  C   UNL     1       1.566   2.213  19.417  0.00  0.00    +0.000 C 
ATOM     11  C   UNL     1       1.792   2.138  20.905  0.00  0.00    +0.000 C 
ATOM     12  C   UNL     1       3.212   2.649  21.053  0.00  0.00    +0.000 C 
ATOM     13  O   UNL     1       3.432   3.558  19.959  0.00  0.00    +0.000 OA
BRANCH  11  14
ATOM     14  O   UNL     1       0.878   2.992  21.598  0.00  0.00    +0.000 OA
ATOM     15  H   UNL     1      -0.020   2.788  21.262  0.00  0.00    +0.000 HD
ENDBRANCH  11  14
ENDBRANCH   6   7
BRANCH   1  16
ATOM     16  C   UNL     1       2.714   7.143  18.432  0.00  0.00    +0.000 C 
ATOM     17  O   UNL     1       2.560   7.015  19.639  0.00  0.00    +0.000 OA
BRANCH  16  19
ATOM     18  C   UNL     1       1.777   9.271  18.135  0.00  0.00    +0.000 C 
ATOM     19  O   UNL     1       2.002   7.956  17.616  0.00  0.00    +0.000 OA
ENDBRANCH  16  19
ENDBRANCH   1  16
TORSDOF 4
ENDMDL
MODEL 6
REMARK VINA RESULT:      -6.6      1.604      3.117
REMARK  Name = 
REMARK  5 active torsions:
REMARK  status: ('A' for Active; 'I' for Inactive)
REMARK    1  A    between atoms: C_1  and  O_2
REMARK    2  A    between atoms: O_2  and  C_3
REMARK    3  A    between atoms: C_3  and  C_5
REMARK    4  A    between atoms: C_10  and  C_11
REMARK    5  A    between atoms: C_15  and  O_16
REMARK                            x       y       z     vdW  Elec       q    Type
REMARK                         _______ _______ _______ _____ _____    ______ ____
ROOT
ATOM      1  C   UNL     1       2.729   5.128  19.385  0.00  0.00    +0.000 A 
ATOM      2  C   UNL     1       1.515   4.624  19.897  0.00  0.00    +0.000 A 
ATOM      3  C   UNL     1       1.432   3.338  20.431  0.00  0.00    +0.000 A 
ATOM      4  C   UNL     1       2.567   2.541  20.476  0.00  0.00    +0.000 A 
ATOM      5  C   UNL     1       3.772   3.024  19.967  0.00  0.00    +0.000 A 
ATOM      6  C   UNL     1       3.869   4.310  19.391  0.00  0.00    +0.000 A 
ENDROOT
BRANCH   6   7
ATOM      7  C   UNL     1       5.230   4.775  18.992  0.00  0.00    +0.000 C 
ATOM      8  O   UNL     1       5.911   5.407  19.794  0.00  0.00    +0.000 OA
ATOM      9  N   UNL     1       5.715   4.325  17.783  0.00  0.00    +0.000 N 
ATOM     10  C   UNL     1       7.079   4.445  17.299  0.00  0.00    +0.000 C 
ATOM     11  C   UNL     1       6.943   4.606  15.806  0.00  0.00    +0.000 C 
ATOM     12  C   UNL     1       5.607   3.947  15.521  0.00  0.00    +0.000 C 
ATOM     13  O   UNL     1       4.815   4.101  16.713  0.00  0.00    +0.000 OA
BRANCH  11  14
ATOM     14  O   UNL     1       6.905   5.990  15.449  0.00  0.00    +0.000 OA
ATOM     15  H   UNL     1       6.833   6.502  16.282  0.00  0.00    +0.000 HD
ENDBRANCH  11  14
ENDBRANCH   6   7
BRANCH   1  16
ATOM     16  C   UNL     1       2.675   6.539  18.939  0.00  0.00    +0.000 C 
ATOM     17  O   UNL     1       3.085   6.881  17.838  0.00  0.00    +0.000 OA
BRANCH  16  19
ATOM     18  C   UNL     1       1.646   8.573  19.483  0.00  0.00    +0.000 C 
ATOM     19  O   UNL     1       2.263   7.362  19.932  0.00  0.00    +0.000 OA
ENDBRANCH  16  19
ENDBRANCH   1  16
TORSDOF 4
ENDMDL
MODEL 7
REMARK VINA RESULT:      -6.6      1.584      2.865
REMARK  Name = 
REMARK  5 active torsions:
REMARK  status: ('A' for Active; 'I' for Inactive)
REMARK    1  A    between atoms: C_1  and  O_2
REMARK    2  A    between atoms: O_2  and  C_3
REMARK    3  A    between atoms: C_3  and  C_5
REMARK    4  A    between atoms: C_10  and  C_11
REMARK    5  A    between atoms: C_15  and  O_16
REMARK                            x       y       z     vdW  Elec       q    Type
REMARK                         _______ _______ _______ _____ _____    ______ ____
ROOT
ATOM      1  C   UNL     1       2.812   4.898  19.573  0.00  0.00    +0.000 A 
ATOM      2  C   UNL     1       1.658   4.303  20.125  0.00  0.00    +0.000 A 
ATOM      3  C   UNL     1       1.681   2.999  20.620  0.00  0.00    +0.000 A 
ATOM      4  C   UNL     1       2.863   2.274  20.583  0.00  0.00    +0.000 A 
ATOM      5  C   UNL     1       4.010   2.846  20.033  0.00  0.00    +0.000 A 
ATOM      6  C   UNL     1       3.998   4.153  19.496  0.00  0.00    +0.000 A 
ENDROOT
BRANCH   6   7
ATOM      7  C   UNL     1       5.307   4.714  19.048  0.00  0.00    +0.000 C 
ATOM      8  O   UNL     1       5.967   5.401  19.822  0.00  0.00    +0.000 OA
ATOM      9  N   UNL     1       5.782   4.291  17.825  0.00  0.00    +0.000 N 
ATOM     10  C   UNL     1       7.116   4.509  17.293  0.00  0.00    +0.000 C 
ATOM     11  C   UNL     1       6.917   4.647  15.805  0.00  0.00    +0.000 C 
ATOM     12  C   UNL     1       5.624   3.889  15.570  0.00  0.00    +0.000 C 
ATOM     13  O   UNL     1       4.865   3.994  16.788  0.00  0.00    +0.000 OA
BRANCH  11  14
ATOM     14  O   UNL     1       6.764   6.021  15.442  0.00  0.00    +0.000 OA
ATOM     15  H   UNL     1       6.550   6.046  14.486  0.00  0.00    +0.000 HD
ENDBRANCH  11  14
ENDBRANCH   6   7
BRANCH   1  16
ATOM     16  C   UNL     1       2.649   6.316  19.177  0.00  0.00    +0.000 C 
ATOM     17  O   UNL     1       2.326   7.175  19.985  0.00  0.00    +0.000 OA
BRANCH  16  19
ATOM     18  C   UNL     1       3.706   7.475  17.435  0.00  0.00    +0.000 C 
ATOM     19  O   UNL     1       2.761   6.477  17.838  0.00  0.00    +0.000 OA
ENDBRANCH  16  19
ENDBRANCH   1  16
TORSDOF 4
ENDMDL
MODEL 8
REMARK VINA RESULT:      -6.6      2.134      5.136
REMARK  Name = 
REMARK  5 active torsions:
REMARK  status: ('A' for Active; 'I' for Inactive)
REMARK    1  A    between atoms: C_1  and  O_2
REMARK    2  A    between atoms: O_2  and  C_3
REMARK    3  A    between atoms: C_3  and  C_5
REMARK    4  A    between atoms: C_10  and  C_11
REMARK    5  A    between atoms: C_15  and  O_16
REMARK                            x       y       z     vdW  Elec       q    Type
REMARK                         _______ _______ _______ _____ _____    ______ ____
ROOT
ATOM      1  C   UNL     1       5.843   5.689  16.996  0.00  0.00    +0.000 A 
ATOM      2  C   UNL     1       7.245   5.667  17.159  0.00  0.00    +0.000 A 
ATOM      3  C   UNL     1       7.825   5.555  18.423  0.00  0.00    +0.000 A 
ATOM      4  C   UNL     1       7.014   5.449  19.542  0.00  0.00    +0.000 A 
ATOM      5  C   UNL     1       5.627   5.476  19.397  0.00  0.00    +0.000 A 
ATOM      6  C   UNL     1       5.020   5.622  18.130  0.00  0.00    +0.000 A 
ENDROOT
BRANCH   6   7
ATOM      7  C   UNL     1       3.532   5.514  18.073  0.00  0.00    +0.000 C 
ATOM      8  O   UNL     1       2.856   6.534  17.975  0.00  0.00    +0.000 OA
ATOM      9  N   UNL     1       3.001   4.247  17.974  0.00  0.00    +0.000 N 
ATOM     10  C   UNL     1       1.621   3.909  17.671  0.00  0.00    +0.000 C 
ATOM     11  C   UNL     1       1.357   2.643  18.447  0.00  0.00    +0.000 C 
ATOM     12  C   UNL     1       2.746   2.054  18.604  0.00  0.00    +0.000 C 
ATOM     13  O   UNL     1       3.661   3.165  18.603  0.00  0.00    +0.000 OA
BRANCH  11  14
ATOM     14  O   UNL     1       0.794   2.945  19.726  0.00  0.00    +0.000 OA
ATOM     15  H   UNL     1      -0.101   2.546  19.749  0.00  0.00    +0.000 HD
ENDBRANCH  11  14
ENDBRANCH   6   7
BRANCH   1  16
ATOM     16  C   UNL     1       5.384   5.718  15.588  0.00  0.00    +0.000 C 
ATOM     17  O   UNL     1       5.119   6.769  15.021  0.00  0.00    +0.000 OA
BRANCH  16  19
ATOM     18  C   UNL     1       6.042   4.094  14.032  0.00  0.00    +0.000 C 
ATOM     19  O   UNL     1       5.173   4.472  15.106  0.00  0.00    +0.000 OA
ENDBRANCH  16  19
ENDBRANCH   1  16
TORSDOF 4
ENDMDL
MODEL 9
REMARK VINA RESULT:      -6.6      1.886      4.413
REMARK  Name = 
REMARK  5 active torsions:
REMARK  status: ('A' for Active; 'I' for Inactive)
REMARK    1  A    between atoms: C_1  and  O_2
REMARK    2  A    between atoms: O_2  and  C_3
REMARK    3  A    between atoms: C_3  and  C_5
REMARK    4  A    between atoms: C_10  and  C_11
REMARK    5  A    between atoms: C_15  and  O_16
REMARK                            x       y       z     vdW  Elec       q    Type
REMARK                         _______ _______ _______ _____ _____    ______ ____
ROOT
ATOM      1  C   UNL     1       3.971   6.802  17.580  0.00  0.00    +0.000 A 
ATOM      2  C   UNL     1       3.349   8.025  17.250  0.00  0.00    +0.000 A 
ATOM      3  C   UNL     1       2.363   8.579  18.067  0.00  0.00    +0.000 A 
ATOM      4  C   UNL     1       1.995   7.927  19.235  0.00  0.00    +0.000 A 
ATOM      5  C   UNL     1       2.597   6.714  19.569  0.00  0.00    +0.000 A 
ATOM      6  C   UNL     1       3.573   6.120  18.739  0.00  0.00    +0.000 A 
ENDROOT
BRANCH   6   7
ATOM      7  C   UNL     1       4.241   4.888  19.251  0.00  0.00    +0.000 C 
ATOM      8  O   UNL     1       5.348   4.975  19.775  0.00  0.00    +0.000 OA
ATOM      9  N   UNL     1       3.499   3.727  19.251  0.00  0.00    +0.000 N 
ATOM     10  C   UNL     1       3.845   2.478  19.908  0.00  0.00    +0.000 C 
ATOM     11  C   UNL     1       3.279   1.405  19.013  0.00  0.00    +0.000 C 
ATOM     12  C   UNL     1       2.157   2.129  18.293  0.00  0.00    +0.000 C 
ATOM     13  O   UNL     1       2.543   3.514  18.229  0.00  0.00    +0.000 OA
BRANCH  11  14
ATOM     14  O   UNL     1       4.265   0.956  18.080  0.00  0.00    +0.000 OA
ATOM     15  H   UNL     1       3.866   1.016  17.186  0.00  0.00    +0.000 HD
ENDBRANCH  11  14
ENDBRANCH   6   7
BRANCH   1  16
ATOM     16  C   UNL     1       5.060   6.395  16.662  0.00  0.00    +0.000 C 
ATOM     17  O   UNL     1       4.994   5.367  16.003  0.00  0.00    +0.000 OA
BRANCH  16  19
ATOM     18  C   UNL     1       7.285   6.598  17.373  0.00  0.00    +0.000 C 
ATOM     19  O   UNL     1       6.137   7.208  16.772  0.00  0.00    +0.000 OA
ENDBRANCH  16  19
ENDBRANCH   1  16
TORSDOF 4
ENDMDL
