MODEL 1
REMARK VINA RESULT:      -6.6      0.000      0.000
REMARK  Name = 
REMARK  10 active torsions:
REMARK  status: ('A' for Active; 'I' for Inactive)
REMARK    1  A    between atoms: C_1  and  O_2
REMARK    2  A    between atoms: O_2  and  C_3
REMARK    3  A    between atoms: C_5  and  C_6
REMARK    4  A    between atoms: C_8  and  C_9
REMARK    5  A    between atoms: C_10  and  C_11
REMARK    6  A    between atoms: C_11  and  N_12
REMARK    7  A    between atoms: N_15  and  C_16
REMARK    8  A    between atoms: N_15  and  C_17
REMARK    9  A    between atoms: C_17  and  C_18
REMARK   10  A    between atoms: N_21  and  C_22
REMARK                            x       y       z     vdW  Elec       q    Type
REMARK                         _______ _______ _______ _____ _____    ______ ____
ROOT
ATOM      1  N   UNL     1       1.253   9.374  19.371  0.00  0.00    +0.000 N 
ATOM      2  C   UNL     1       1.964   8.648  18.457  0.00  0.00    +0.000 C 
ATOM      3  O   UNL     1       2.288   9.124  17.374  0.00  0.00    +0.000 OA
ATOM      4  N   UNL     1       2.304   7.359  18.856  0.00  0.00    +0.000 N 
ATOM      5  C   UNL     1       2.121   6.815  20.195  0.00  0.00    +0.000 C 
ATOM      6  H   UNL     1       0.636   8.860  19.978  0.00  0.00    +0.000 HD
ENDROOT
BRANCH   1   7
ATOM      7  C   UNL     1       0.806  10.730  19.122  0.00  0.00    +0.000 C 
BRANCH   7  15
ATOM      8  C   UNL     1      -0.069  11.085  21.468  0.00  0.00    +0.000 A 
ATOM      9  N   UNL     1      -0.923  11.550  22.407  0.00  0.00    +0.000 NA
ATOM     10  C   UNL     1      -2.060  12.131  21.975  0.00  0.00    +0.000 A 
ATOM     11  C   UNL     1      -3.030  12.600  23.016  0.00  0.00    +0.000 C 
ATOM     12  C   UNL     1      -2.364  12.261  20.625  0.00  0.00    +0.000 A 
ATOM     13  C   UNL     1      -1.464  11.788  19.660  0.00  0.00    +0.000 A 
ATOM     14  C   UNL     1      -1.823  11.930  18.207  0.00  0.00    +0.000 C 
ATOM     15  C   UNL     1      -0.261  11.194  20.085  0.00  0.00    +0.000 A 
BRANCH   8  17
ATOM     16  C   UNL     1       0.774   9.364  22.795  0.00  0.00    +0.000 C 
ATOM     17  O   UNL     1       1.074  10.437  21.906  0.00  0.00    +0.000 OA
ENDBRANCH   8  17
ENDBRANCH   7  15
ENDBRANCH   1   7
BRANCH   4  18
ATOM     18  C   UNL     1       3.116   6.561  17.939  0.00  0.00    +0.000 C 
BRANCH  18  19
ATOM     19  C   UNL     1       2.804   5.104  18.033  0.00  0.00    +0.000 A 
ATOM     20  C   UNL     1       1.592   4.458  17.683  0.00  0.00    +0.000 A 
ATOM     21  N   UNL     1       1.654   3.131  17.813  0.00  0.00    +0.000 NA
ATOM     22  N   UNL     1       2.914   2.913  18.230  0.00  0.00    +0.000 N 
ATOM     23  C   UNL     1       3.396   1.567  18.418  0.00  0.00    +0.000 C 
ATOM     24  C   UNL     1       3.633   4.061  18.395  0.00  0.00    +0.000 A 
ENDBRANCH  18  19
ENDBRANCH   4  18
TORSDOF 5
ENDMDL
MODEL 2
REMARK VINA RESULT:      -6.5      2.887      8.643
REMARK  Name = 
REMARK  10 active torsions:
REMARK  status: ('A' for Active; 'I' for Inactive)
REMARK    1  A    between atoms: C_1  and  O_2
REMARK    2  A    between atoms: O_2  and  C_3
REMARK    3  A    between atoms: C_5  and  C_6
REMARK    4  A    between atoms: C_8  and  C_9
REMARK    5  A    between atoms: C_10  and  C_11
REMARK    6  A    between atoms: C_11  and  N_12
REMARK    7  A    between atoms: N_15  and  C_16
REMARK    8  A    between atoms: N_15  and  C_17
REMARK    9  A    between atoms: C_17  and  C_18
REMARK   10  A    between atoms: N_21  and  C_22
REMARK                            x       y       z     vdW  Elec       q    Type
REMARK                         _______ _______ _______ _____ _____    ______ ____
ROOT
ATOM      1  N   UNL     1       3.083   7.305  18.430  0.00  0.00    +0.000 N 
ATOM      2  C   UNL     1       2.149   7.805  19.294  0.00  0.00    +0.000 C 
ATOM      3  O   UNL     1       1.846   7.210  20.323  0.00  0.00    +0.000 OA
ATOM      4  N   UNL     1       1.600   9.030  18.931  0.00  0.00    +0.000 N 
ATOM      5  C   UNL     1       2.062   9.871  17.834  0.00  0.00    +0.000 C 
ATOM      6  H   UNL     1       2.968   7.532  17.456  0.00  0.00    +0.000 HD
ENDROOT
BRANCH   1   7
ATOM      7  C   UNL     1       3.752   6.036  18.644  0.00  0.00    +0.000 C 
BRANCH   7  15
ATOM      8  C   UNL     1       5.539   6.217  16.864  0.00  0.00    +0.000 A 
ATOM      9  N   UNL     1       6.287   5.791  15.821  0.00  0.00    +0.000 NA
ATOM     10  C   UNL     1       5.940   4.622  15.247  0.00  0.00    +0.000 A 
ATOM     11  C   UNL     1       6.736   4.175  14.059  0.00  0.00    +0.000 C 
ATOM     12  C   UNL     1       4.861   3.866  15.693  0.00  0.00    +0.000 A 
ATOM     13  C   UNL     1       4.102   4.310  16.784  0.00  0.00    +0.000 A 
ATOM     14  C   UNL     1       2.934   3.478  17.237  0.00  0.00    +0.000 C 
ATOM     15  C   UNL     1       4.457   5.518  17.412  0.00  0.00    +0.000 A 
BRANCH   8  17
ATOM     16  C   UNL     1       7.265   7.666  17.460  0.00  0.00    +0.000 C 
ATOM     17  O   UNL     1       5.857   7.443  17.421  0.00  0.00    +0.000 OA
ENDBRANCH   8  17
ENDBRANCH   7  15
ENDBRANCH   1   7
BRANCH   4  18
ATOM     18  C   UNL     1       0.640   9.638  19.851  0.00  0.00    +0.000 C 
BRANCH  18  19
ATOM     19  C   UNL     1      -0.386  10.454  19.136  0.00  0.00    +0.000 A 
ATOM     20  C   UNL     1      -0.480  11.868  19.087  0.00  0.00    +0.000 A 
ATOM     21  N   UNL     1      -1.469  12.295  18.298  0.00  0.00    +0.000 NA
ATOM     22  N   UNL     1      -2.005  11.159  17.820  0.00  0.00    +0.000 N 
ATOM     23  C   UNL     1      -3.078  11.208  16.857  0.00  0.00    +0.000 C 
ATOM     24  C   UNL     1      -1.406  10.034  18.306  0.00  0.00    +0.000 A 
ENDBRANCH  18  19
ENDBRANCH   4  18
TORSDOF 5
ENDMDL
MODEL 3
REMARK VINA RESULT:      -6.5      2.376      7.993
REMARK  Name = 
REMARK  10 active torsions:
REMARK  status: ('A' for Active; 'I' for Inactive)
REMARK    1  A    between atoms: C_1  and  O_2
REMARK    2  A    between atoms: O_2  and  C_3
REMARK    3  A    between atoms: C_5  and  C_6
REMARK    4  A    between atoms: C_8  and  C_9
REMARK    5  A    between atoms: C_10  and  C_11
REMARK    6  A    between atoms: C_11  and  N_12
REMARK    7  A    between atoms: N_15  and  C_16
REMARK    8  A    between atoms: N_15  and  C_17
REMARK    9  A    between atoms: C_17  and  C_18
REMARK   10  A    between atoms: N_21  and  C_22
REMARK                            x       y       z     vdW  Elec       q    Type
REMARK                         _______ _______ _______ _____ _____    ______ ____
ROOT
ATOM      1  N   UNL     1       2.510   7.526  18.621  0.00  0.00    +0.000 N 
ATOM      2  C   UNL     1       2.114   8.793  18.296  0.00  0.00    +0.000 C 
ATOM      3  O   UNL     1       2.383   9.288  17.206  0.00  0.00    +0.000 OA
ATOM      4  N   UNL     1       1.376   9.453  19.273  0.00  0.00    +0.000 N 
ATOM      5  C   UNL     1       0.859   8.848  20.494  0.00  0.00    +0.000 C 
ATOM      6  H   UNL     1       2.691   7.342  19.593  0.00  0.00    +0.000 HD
ENDROOT
BRANCH   1   7
ATOM      7  C   UNL     1       3.294   6.694  17.728  0.00  0.00    +0.000 C 
BRANCH   7  15
ATOM      8  C   UNL     1       4.875   5.101  18.893  0.00  0.00    +0.000 A 
ATOM      9  N   UNL     1       5.232   3.955  19.515  0.00  0.00    +0.000 NA
ATOM     10  C   UNL     1       4.325   2.958  19.544  0.00  0.00    +0.000 A 
ATOM     11  C   UNL     1       4.740   1.670  20.188  0.00  0.00    +0.000 C 
ATOM     12  C   UNL     1       3.067   3.079  18.966  0.00  0.00    +0.000 A 
ATOM     13  C   UNL     1       2.702   4.277  18.336  0.00  0.00    +0.000 A 
ATOM     14  C   UNL     1       1.339   4.377  17.709  0.00  0.00    +0.000 C 
ATOM     15  C   UNL     1       3.624   5.340  18.310  0.00  0.00    +0.000 A 
BRANCH   8  17
ATOM     16  C   UNL     1       7.142   5.620  19.037  0.00  0.00    +0.000 C 
ATOM     17  O   UNL     1       5.821   6.107  18.812  0.00  0.00    +0.000 OA
ENDBRANCH   8  17
ENDBRANCH   7  15
ENDBRANCH   1   7
BRANCH   4  18
ATOM     18  C   UNL     1       0.877  10.790  18.954  0.00  0.00    +0.000 C 
BRANCH  18  19
ATOM     19  C   UNL     1      -0.548  10.768  18.510  0.00  0.00    +0.000 A 
ATOM     20  C   UNL     1      -1.155   9.858  17.608  0.00  0.00    +0.000 A 
ATOM     21  N   UNL     1      -2.469  10.059  17.474  0.00  0.00    +0.000 NA
ATOM     22  N   UNL     1      -2.718  11.087  18.304  0.00  0.00    +0.000 N 
ATOM     23  C   UNL     1      -4.067  11.559  18.494  0.00  0.00    +0.000 C 
ATOM     24  C   UNL     1      -1.600  11.557  18.930  0.00  0.00    +0.000 A 
ENDBRANCH  18  19
ENDBRANCH   4  18
TORSDOF 5
ENDMDL
MODEL 4
REMARK VINA RESULT:      -6.4      2.448      8.366
REMARK  Name = 
REMARK  10 active torsions:
REMARK  status: ('A' for Active; 'I' for Inactive)
REMARK    1  A    between atoms: C_1  and  O_2
REMARK    2  A    between atoms: O_2  and  C_3
REMARK    3  A    between atoms: C_5  and  C_6
REMARK    4  A    between atoms: C_8  and  C_9
REMARK    5  A    between atoms: C_10  and  C_11
REMARK    6  A    between atoms: C_11  and  N_12
REMARK    7  A    between atoms: N_15  and  C_16
REMARK    8  A    between atoms: N_15  and  C_17
REMARK    9  A    between atoms: C_17  and  C_18
REMARK   10  A    between atoms: N_21  and  C_22
REMARK                            x       y       z     vdW  Elec       q    Type
REMARK                         _______ _______ _______ _____ _____    ______ ____
ROOT
ATOM      1  N   UNL     1       2.710   7.442  18.770  0.00  0.00    +0.000 N 
ATOM      2  C   UNL     1       2.042   8.571  18.386  0.00  0.00    +0.000 C 
ATOM      3  O   UNL     1       2.072   8.969  17.226  0.00  0.00    +0.000 OA
ATOM      4  N   UNL     1       1.321   9.206  19.392  0.00  0.00    +0.000 N 
ATOM      5  C   UNL     1       1.088   8.674  20.729  0.00  0.00    +0.000 C 
ATOM      6  H   UNL     1       3.044   7.413  19.719  0.00  0.00    +0.000 HD
ENDROOT
BRANCH   1   7
ATOM      7  C   UNL     1       3.519   6.659  17.857  0.00  0.00    +0.000 C 
BRANCH   7  15
ATOM      8  C   UNL     1       5.012   4.921  18.927  0.00  0.00    +0.000 A 
ATOM      9  N   UNL     1       5.311   3.720  19.473  0.00  0.00    +0.000 NA
ATOM     10  C   UNL     1       4.362   2.765  19.422  0.00  0.00    +0.000 A 
ATOM     11  C   UNL     1       4.711   1.419  19.980  0.00  0.00    +0.000 C 
ATOM     12  C   UNL     1       3.119   2.980  18.839  0.00  0.00    +0.000 A 
ATOM     13  C   UNL     1       2.815   4.233  18.289  0.00  0.00    +0.000 A 
ATOM     14  C   UNL     1       1.467   4.436  17.654  0.00  0.00    +0.000 C 
ATOM     15  C   UNL     1       3.782   5.254  18.347  0.00  0.00    +0.000 A 
BRANCH   8  17
ATOM     16  C   UNL     1       7.154   5.477  18.193  0.00  0.00    +0.000 C 
ATOM     17  O   UNL     1       6.002   5.888  18.928  0.00  0.00    +0.000 OA
ENDBRANCH   8  17
ENDBRANCH   7  15
ENDBRANCH   1   7
BRANCH   4  18
ATOM     18  C   UNL     1       0.540  10.385  19.021  0.00  0.00    +0.000 C 
BRANCH  18  19
ATOM     19  C   UNL     1       1.144  11.647  19.542  0.00  0.00    +0.000 A 
ATOM     20  C   UNL     1       0.937  12.241  20.812  0.00  0.00    +0.000 A 
ATOM     21  N   UNL     1       1.683  13.332  21.003  0.00  0.00    +0.000 NA
ATOM     22  N   UNL     1       2.390  13.435  19.864  0.00  0.00    +0.000 N 
ATOM     23  C   UNL     1       3.382  14.471  19.714  0.00  0.00    +0.000 C 
ATOM     24  C   UNL     1       2.089  12.464  18.954  0.00  0.00    +0.000 A 
ENDBRANCH  18  19
ENDBRANCH   4  18
TORSDOF 5
ENDMDL
MODEL 5
REMARK VINA RESULT:      -6.4      2.599      4.027
REMARK  Name = 
REMARK  10 active torsions:
REMARK  status: ('A' for Active; 'I' for Inactive)
REMARK    1  A    between atoms: C_1  and  O_2
REMARK    2  A    between atoms: O_2  and  C_3
REMARK    3  A    between atoms: C_5  and  C_6
REMARK    4  A    between atoms: C_8  and  C_9
REMARK    5  A    between atoms: C_10  and  C_11
REMARK    6  A    between atoms: C_11  and  N_12
REMARK    7  A    between atoms: N_15  and  C_16
REMARK    8  A    between atoms: N_15  and  C_17
REMARK    9  A    between atoms: C_17  and  C_18
REMARK   10  A    between atoms: N_21  and  C_22
REMARK                            x       y       z     vdW  Elec       q    Type
REMARK                         _______ _______ _______ _____ _____    ______ ____
ROOT
ATOM      1  N   UNL     1       2.181   6.215  19.453  0.00  0.00    +0.000 N 
ATOM      2  C   UNL     1       3.287   5.428  19.294  0.00  0.00    +0.000 C 
ATOM      3  O   UNL     1       4.296   5.597  19.972  0.00  0.00    +0.000 OA
ATOM      4  N   UNL     1       3.170   4.427  18.336  0.00  0.00    +0.000 N 
ATOM      5  C   UNL     1       1.940   4.055  17.648  0.00  0.00    +0.000 C 
ATOM      6  H   UNL     1       1.610   6.367  18.639  0.00  0.00    +0.000 HD
ENDROOT
BRANCH   1   7
ATOM      7  C   UNL     1       2.126   7.312  20.399  0.00  0.00    +0.000 C 
BRANCH   7  15
ATOM      8  C   UNL     1       0.361   9.099  20.697  0.00  0.00    +0.000 A 
ATOM      9  N   UNL     1      -0.332  10.212  20.370  0.00  0.00    +0.000 NA
ATOM     10  C   UNL     1      -0.085  10.763  19.164  0.00  0.00    +0.000 A 
ATOM     11  C   UNL     1      -0.890  11.967  18.781  0.00  0.00    +0.000 C 
ATOM     12  C   UNL     1       0.841  10.227  18.277  0.00  0.00    +0.000 A 
ATOM     13  C   UNL     1       1.564   9.080  18.632  0.00  0.00    +0.000 A 
ATOM     14  C   UNL     1       2.551   8.515  17.649  0.00  0.00    +0.000 C 
ATOM     15  C   UNL     1       1.338   8.498  19.894  0.00  0.00    +0.000 A 
BRANCH   8  17
ATOM     16  C   UNL     1      -0.247   9.454  22.919  0.00  0.00    +0.000 C 
ATOM     17  O   UNL     1       0.072   8.498  21.910  0.00  0.00    +0.000 OA
ENDBRANCH   8  17
ENDBRANCH   7  15
ENDBRANCH   1   7
BRANCH   4  18
ATOM     18  C   UNL     1       4.304   3.519  18.167  0.00  0.00    +0.000 C 
BRANCH  18  19
ATOM     19  C   UNL     1       5.321   4.060  17.217  0.00  0.00    +0.000 A 
ATOM     20  C   UNL     1       6.616   4.546  17.527  0.00  0.00    +0.000 A 
ATOM     21  N   UNL     1       7.315   4.891  16.443  0.00  0.00    +0.000 NA
ATOM     22  N   UNL     1       6.480   4.610  15.427  0.00  0.00    +0.000 N 
ATOM     23  C   UNL     1       6.910   4.784  14.061  0.00  0.00    +0.000 C 
ATOM     24  C   UNL     1       5.271   4.130  15.840  0.00  0.00    +0.000 A 
ENDBRANCH  18  19
ENDBRANCH   4  18
TORSDOF 5
ENDMDL
MODEL 6
REMARK VINA RESULT:      -6.4      2.153      7.786
REMARK  Name = 
REMARK  10 active torsions:
REMARK  status: ('A' for Active; 'I' for Inactive)
REMARK    1  A    between atoms: C_1  and  O_2
REMARK    2  A    between atoms: O_2  and  C_3
REMARK    3  A    between atoms: C_5  and  C_6
REMARK    4  A    between atoms: C_8  and  C_9
REMARK    5  A    between atoms: C_10  and  C_11
REMARK    6  A    between atoms: C_11  and  N_12
REMARK    7  A    between atoms: N_15  and  C_16
REMARK    8  A    between atoms: N_15  and  C_17
REMARK    9  A    between atoms: C_17  and  C_18
REMARK   10  A    between atoms: N_21  and  C_22
REMARK                            x       y       z     vdW  Elec       q    Type
REMARK                         _______ _______ _______ _____ _____    ______ ____
ROOT
ATOM      1  N   UNL     1       2.545   7.915  18.598  0.00  0.00    +0.000 N 
ATOM      2  C   UNL     1       2.017   9.161  18.409  0.00  0.00    +0.000 C 
ATOM      3  O   UNL     1       2.289   9.828  17.416  0.00  0.00    +0.000 OA
ATOM      4  N   UNL     1       1.147   9.594  19.404  0.00  0.00    +0.000 N 
ATOM      5  C   UNL     1       0.636   8.773  20.495  0.00  0.00    +0.000 C 
ATOM      6  H   UNL     1       2.689   7.621  19.549  0.00  0.00    +0.000 HD
ENDROOT
BRANCH   1   7
ATOM      7  C   UNL     1       3.477   7.307  17.668  0.00  0.00    +0.000 C 
BRANCH   7  15
ATOM      8  C   UNL     1       2.848   5.139  18.807  0.00  0.00    +0.000 A 
ATOM      9  N   UNL     1       2.799   3.797  18.960  0.00  0.00    +0.000 NA
ATOM     10  C   UNL     1       3.532   3.050  18.110  0.00  0.00    +0.000 A 
ATOM     11  C   UNL     1       3.518   1.565  18.312  0.00  0.00    +0.000 C 
ATOM     12  C   UNL     1       4.312   3.614  17.107  0.00  0.00    +0.000 A 
ATOM     13  C   UNL     1       4.344   5.006  16.949  0.00  0.00    +0.000 A 
ATOM     14  C   UNL     1       5.205   5.590  15.863  0.00  0.00    +0.000 C 
ATOM     15  C   UNL     1       3.572   5.807  17.812  0.00  0.00    +0.000 A 
BRANCH   8  17
ATOM     16  C   UNL     1       1.589   5.131  20.769  0.00  0.00    +0.000 C 
ATOM     17  O   UNL     1       2.142   5.913  19.712  0.00  0.00    +0.000 OA
ENDBRANCH   8  17
ENDBRANCH   7  15
ENDBRANCH   1   7
BRANCH   4  18
ATOM     18  C   UNL     1       0.508  10.897  19.222  0.00  0.00    +0.000 C 
BRANCH  18  19
ATOM     19  C   UNL     1      -0.853  10.777  18.621  0.00  0.00    +0.000 A 
ATOM     20  C   UNL     1      -2.030  11.465  19.010  0.00  0.00    +0.000 A 
ATOM     21  N   UNL     1      -3.074  11.195  18.223  0.00  0.00    +0.000 NA
ATOM     22  N   UNL     1      -2.569  10.346  17.310  0.00  0.00    +0.000 N 
ATOM     23  C   UNL     1      -3.391   9.873  16.223  0.00  0.00    +0.000 C 
ATOM     24  C   UNL     1      -1.253  10.051  17.517  0.00  0.00    +0.000 A 
ENDBRANCH  18  19
ENDBRANCH   4  18
TORSDOF 5
ENDMDL
MODEL 7
REMARK VINA RESULT:      -6.3      1.515      1.932
REMARK  Name = 
REMARK  10 active torsions:
REMARK  status: ('A' for Active; 'I' for Inactive)
REMARK    1  A    between atoms: C_1  and  O_2
REMARK    2  A    between atoms: O_2  and  C_3
REMARK    3  A    between atoms: C_5  and  C_6
REMARK    4  A    between atoms: C_8  and  C_9
REMARK    5  A    between atoms: C_10  and  C_11
REMARK    6  A    between atoms: C_11  and  N_12
REMARK    7  A    between atoms: N_15  and  C_16
REMARK    8  A    between atoms: N_15  and  C_17
REMARK    9  A    between atoms: C_17  and  C_18
REMARK   10  A    between atoms: N_21  and  C_22
REMARK                            x       y       z     vdW  Elec       q    Type
REMARK                         _______ _______ _______ _____ _____    ______ ____
ROOT
ATOM      1  N   UNL     1       0.764   9.745  19.154  0.00  0.00    +0.000 N 
ATOM      2  C   UNL     1       1.647   8.846  18.626  0.00  0.00    +0.000 C 
ATOM      3  O   UNL     1       2.102   8.983  17.495  0.00  0.00    +0.000 OA
ATOM      4  N   UNL     1       1.998   7.794  19.466  0.00  0.00    +0.000 N 
ATOM      5  C   UNL     1       1.648   7.688  20.877  0.00  0.00    +0.000 C 
ATOM      6  H   UNL     1       0.095   9.390  19.816  0.00  0.00    +0.000 HD
ENDROOT
BRANCH   1   7
ATOM      7  C   UNL     1       0.281  10.897  18.418  0.00  0.00    +0.000 C 
BRANCH   7  15
ATOM      8  C   UNL     1      -1.425  12.014  19.913  0.00  0.00    +0.000 A 
ATOM      9  N   UNL     1      -2.650  12.470  20.258  0.00  0.00    +0.000 NA
ATOM     10  C   UNL     1      -3.679  12.155  19.446  0.00  0.00    +0.000 A 
ATOM     11  C   UNL     1      -5.044  12.617  19.856  0.00  0.00    +0.000 C 
ATOM     12  C   UNL     1      -3.513  11.394  18.295  0.00  0.00    +0.000 A 
ATOM     13  C   UNL     1      -2.236  10.938  17.940  0.00  0.00    +0.000 A 
ATOM     14  C   UNL     1      -2.086  10.107  16.695  0.00  0.00    +0.000 C 
ATOM     15  C   UNL     1      -1.142  11.271  18.761  0.00  0.00    +0.000 A 
BRANCH   8  17
ATOM     16  C   UNL     1      -0.585  11.735  22.070  0.00  0.00    +0.000 C 
ATOM     17  O   UNL     1      -0.375  12.288  20.772  0.00  0.00    +0.000 OA
ENDBRANCH   8  17
ENDBRANCH   7  15
ENDBRANCH   1   7
BRANCH   4  18
ATOM     18  C   UNL     1       2.984   6.835  18.972  0.00  0.00    +0.000 C 
BRANCH  18  19
ATOM     19  C   UNL     1       2.405   5.471  18.797  0.00  0.00    +0.000 A 
ATOM     20  C   UNL     1       1.659   4.987  17.693  0.00  0.00    +0.000 A 
ATOM     21  N   UNL     1       1.345   3.694  17.805  0.00  0.00    +0.000 NA
ATOM     22  N   UNL     1       1.904   3.333  18.973  0.00  0.00    +0.000 N 
ATOM     23  C   UNL     1       1.843   1.962  19.417  0.00  0.00    +0.000 C 
ATOM     24  C   UNL     1       2.531   4.364  19.611  0.00  0.00    +0.000 A 
ENDBRANCH  18  19
ENDBRANCH   4  18
TORSDOF 5
ENDMDL
MODEL 8
REMARK VINA RESULT:      -6.3      1.734      8.308
REMARK  Name = 
REMARK  10 active torsions:
REMARK  status: ('A' for Active; 'I' for Inactive)
REMARK    1  A    between atoms: C_1  and  O_2
REMARK    2  A    between atoms: O_2  and  C_3
REMARK    3  A    between atoms: C_5  and  C_6
REMARK    4  A    between atoms: C_8  and  C_9
REMARK    5  A    between atoms: C_10  and  C_11
REMARK    6  A    between atoms: C_11  and  N_12
REMARK    7  A    between atoms: N_15  and  C_16
REMARK    8  A    between atoms: N_15  and  C_17
REMARK    9  A    between atoms: C_17  and  C_18
REMARK   10  A    between atoms: N_21  and  C_22
REMARK                            x       y       z     vdW  Elec       q    Type
REMARK                         _______ _______ _______ _____ _____    ______ ____
ROOT
ATOM      1  N   UNL     1       2.667   7.847  18.712  0.00  0.00    +0.000 N 
ATOM      2  C   UNL     1       1.868   8.924  18.447  0.00  0.00    +0.000 C 
ATOM      3  O   UNL     1       1.844   9.445  17.336  0.00  0.00    +0.000 OA
ATOM      4  N   UNL     1       1.083   9.357  19.510  0.00  0.00    +0.000 N 
ATOM      5  C   UNL     1       0.923   8.661  20.780  0.00  0.00    +0.000 C 
ATOM      6  H   UNL     1       3.008   7.756  19.655  0.00  0.00    +0.000 HD
ENDROOT
BRANCH   1   7
ATOM      7  C   UNL     1       3.558   7.267  17.726  0.00  0.00    +0.000 C 
BRANCH   7  15
ATOM      8  C   UNL     1       2.934   5.062  18.796  0.00  0.00    +0.000 A 
ATOM      9  N   UNL     1       2.888   3.715  18.905  0.00  0.00    +0.000 NA
ATOM     10  C   UNL     1       3.618   2.998  18.029  0.00  0.00    +0.000 A 
ATOM     11  C   UNL     1       3.607   1.507  18.182  0.00  0.00    +0.000 C 
ATOM     12  C   UNL     1       4.396   3.595  17.043  0.00  0.00    +0.000 A 
ATOM     13  C   UNL     1       4.425   4.992  16.931  0.00  0.00    +0.000 A 
ATOM     14  C   UNL     1       5.284   5.612  15.862  0.00  0.00    +0.000 C 
ATOM     15  C   UNL     1       3.655   5.763  17.821  0.00  0.00    +0.000 A 
BRANCH   8  17
ATOM     16  C   UNL     1       1.889   5.036  20.879  0.00  0.00    +0.000 C 
ATOM     17  O   UNL     1       2.230   5.805  19.728  0.00  0.00    +0.000 OA
ENDBRANCH   8  17
ENDBRANCH   7  15
ENDBRANCH   1   7
BRANCH   4  18
ATOM     18  C   UNL     1       0.167  10.469  19.263  0.00  0.00    +0.000 C 
BRANCH  18  19
ATOM     19  C   UNL     1       0.264  11.525  20.314  0.00  0.00    +0.000 A 
ATOM     20  C   UNL     1       1.363  12.380  20.576  0.00  0.00    +0.000 A 
ATOM     21  N   UNL     1       1.110  13.271  21.538  0.00  0.00    +0.000 NA
ATOM     22  N   UNL     1      -0.161  13.006  21.887  0.00  0.00    +0.000 N 
ATOM     23  C   UNL     1      -0.832  13.823  22.869  0.00  0.00    +0.000 C 
ATOM     24  C   UNL     1      -0.703  11.960  21.198  0.00  0.00    +0.000 A 
ENDBRANCH  18  19
ENDBRANCH   4  18
TORSDOF 5
ENDMDL
MODEL 9
REMARK VINA RESULT:      -6.2      3.354      8.888
REMARK  Name = 
REMARK  10 active torsions:
REMARK  status: ('A' for Active; 'I' for Inactive)
REMARK    1  A    between atoms: C_1  and  O_2
REMARK    2  A    between atoms: O_2  and  C_3
REMARK    3  A    between atoms: C_5  and  C_6
REMARK    4  A    between atoms: C_8  and  C_9
REMARK    5  A    between atoms: C_10  and  C_11
REMARK    6  A    between atoms: C_11  and  N_12
REMARK    7  A    between atoms: N_15  and  C_16
REMARK    8  A    between atoms: N_15  and  C_17
REMARK    9  A    between atoms: C_17  and  C_18
REMARK   10  A    between atoms: N_21  and  C_22
REMARK                            x       y       z     vdW  Elec       q    Type
REMARK                         _______ _______ _______ _____ _____    ______ ____
ROOT
ATOM      1  N   UNL     1       4.110   6.136  18.807  0.00  0.00    +0.000 N 
ATOM      2  C   UNL     1       3.119   5.999  19.738  0.00  0.00    +0.000 C 
ATOM      3  O   UNL     1       3.111   5.062  20.531  0.00  0.00    +0.000 OA
ATOM      4  N   UNL     1       2.152   6.999  19.728  0.00  0.00    +0.000 N 
ATOM      5  C   UNL     1       2.218   8.229  18.950  0.00  0.00    +0.000 C 
ATOM      6  H   UNL     1       3.860   6.581  17.940  0.00  0.00    +0.000 HD
ENDROOT
BRANCH   1   7
ATOM      7  C   UNL     1       5.194   5.184  18.667  0.00  0.00    +0.000 C 
BRANCH   7  15
ATOM      8  C   UNL     1       6.891   5.638  16.849  0.00  0.00    +0.000 A 
ATOM      9  N   UNL     1       7.457   5.498  15.628  0.00  0.00    +0.000 NA
ATOM     10  C   UNL     1       6.792   4.758  14.719  0.00  0.00    +0.000 A 
ATOM     11  C   UNL     1       7.394   4.646  13.351  0.00  0.00    +0.000 C 
ATOM     12  C   UNL     1       5.573   4.153  15.000  0.00  0.00    +0.000 A 
ATOM     13  C   UNL     1       5.002   4.293  16.273  0.00  0.00    +0.000 A 
ATOM     14  C   UNL     1       3.677   3.637  16.546  0.00  0.00    +0.000 C 
ATOM     15  C   UNL     1       5.687   5.045  17.246  0.00  0.00    +0.000 A 
BRANCH   8  17
ATOM     16  C   UNL     1       7.469   7.823  17.420  0.00  0.00    +0.000 C 
ATOM     17  O   UNL     1       7.543   6.442  17.768  0.00  0.00    +0.000 OA
ENDBRANCH   8  17
ENDBRANCH   7  15
ENDBRANCH   1   7
BRANCH   4  18
ATOM     18  C   UNL     1       1.101   6.931  20.742  0.00  0.00    +0.000 C 
BRANCH  18  19
ATOM     19  C   UNL     1       0.737   8.280  21.267  0.00  0.00    +0.000 A 
ATOM     20  C   UNL     1       1.420   9.032  22.256  0.00  0.00    +0.000 A 
ATOM     21  N   UNL     1       0.885  10.239  22.453  0.00  0.00    +0.000 NA
ATOM     22  N   UNL     1      -0.135  10.279  21.577  0.00  0.00    +0.000 N 
ATOM     23  C   UNL     1      -0.928  11.475  21.436  0.00  0.00    +0.000 C 
ATOM     24  C   UNL     1      -0.275   9.126  20.861  0.00  0.00    +0.000 A 
ENDBRANCH  18  19
ENDBRANCH   4  18
TORSDOF 5
ENDMDL
