MODEL 1
REMARK VINA RESULT:      -7.8      0.000      0.000
REMARK  Name = 
REMARK  6 active torsions:
REMARK  status: ('A' for Active; 'I' for Inactive)
REMARK    1  A    between atoms: C_1  and  O_2
REMARK    2  A    between atoms: O_2  and  C_3
REMARK    3  A    between atoms: C_8  and  O_9
REMARK    4  A    between atoms: O_9  and  C_10
REMARK    5  A    between atoms: C_14  and  O_15
REMARK    6  A    between atoms: C_19  and  C_20
REMARK                            x       y       z     vdW  Elec       q    Type
REMARK                         _______ _______ _______ _____ _____    ______ ____
ROOT
ATOM      1  C   UNL     1       2.735   6.745  19.274  0.00  0.00    +0.000 C 
ATOM      2  O   UNL     1       1.860   6.856  20.126  0.00  0.00    +0.000 OA
ATOM      3  N   UNL     1       3.486   5.590  19.040  0.00  0.00    +0.000 N 
ATOM      4  C   UNL     1       4.332   5.494  17.908  0.00  0.00    +0.000 A 
ATOM      5  C   UNL     1       5.448   6.268  17.646  0.00  0.00    +0.000 A 
ATOM      6  C   UNL     1       6.313   5.832  16.647  0.00  0.00    +0.000 A 
ATOM      7  C   UNL     1       6.006   4.692  15.876  0.00  0.00    +0.000 A 
ATOM      8  C   UNL     1       4.837   3.957  16.118  0.00  0.00    +0.000 A 
ATOM      9  C   UNL     1       4.016   4.352  17.159  0.00  0.00    +0.000 A 
ATOM     10  C   UNL     1       2.802   3.673  17.772  0.00  0.00    +0.000 C 
ATOM     11  C   UNL     1       2.919   2.175  17.958  0.00  0.00    +0.000 C 
ATOM     12  C   UNL     1       3.710   2.005  19.251  0.00  0.00    +0.000 C 
ATOM     13  N   UNL     1       3.934   3.336  19.849  0.00  0.00    +0.000 NA
ATOM     14  C   UNL     1       2.898   4.235  19.229  0.00  0.00    +0.000 C 
ATOM     15  C   UNL     1       1.664   4.119  20.126  0.00  0.00    +0.000 C 
ATOM     16  H   UNL     1       4.846   3.676  19.542  0.00  0.00    +0.000 HD
ENDROOT
BRANCH   1  18
ATOM     17  C   UNL     1       1.877   8.562  18.039  0.00  0.00    +0.000 C 
ATOM     18  O   UNL     1       3.005   7.754  18.386  0.00  0.00    +0.000 OA
ENDBRANCH   1  18
BRANCH   6  19
ATOM     19  O   UNL     1       7.462   6.565  16.499  0.00  0.00    +0.000 OA
ATOM     20  C   UNL     1       7.642   7.597  17.465  0.00  0.00    +0.000 C 
ENDBRANCH   6  19
BRANCH  10  21
ATOM     21  O   UNL     1       1.610   4.001  17.076  0.00  0.00    +0.000 OA
ATOM     22  H   UNL     1       1.298   3.201  16.620  0.00  0.00    +0.000 HD
ENDBRANCH  10  21
TORSDOF 3
ENDMDL
MODEL 2
REMARK VINA RESULT:      -7.2      1.930      4.280
REMARK  Name = 
REMARK  6 active torsions:
REMARK  status: ('A' for Active; 'I' for Inactive)
REMARK    1  A    between atoms: C_1  and  O_2
REMARK    2  A    between atoms: O_2  and  C_3
REMARK    3  A    between atoms: C_8  and  O_9
REMARK    4  A    between atoms: O_9  and  C_10
REMARK    5  A    between atoms: C_14  and  O_15
REMARK    6  A    between atoms: C_19  and  C_20
REMARK                            x       y       z     vdW  Elec       q    Type
REMARK                         _______ _______ _______ _____ _____    ______ ____
ROOT
ATOM      1  C   UNL     1       4.570   4.808  17.081  0.00  0.00    +0.000 C 
ATOM      2  O   UNL     1       5.079   3.962  16.354  0.00  0.00    +0.000 OA
ATOM      3  N   UNL     1       3.305   4.707  17.666  0.00  0.00    +0.000 N 
ATOM      4  C   UNL     1       2.884   5.639  18.646  0.00  0.00    +0.000 A 
ATOM      5  C   UNL     1       2.687   6.996  18.461  0.00  0.00    +0.000 A 
ATOM      6  C   UNL     1       1.993   7.686  19.450  0.00  0.00    +0.000 A 
ATOM      7  C   UNL     1       1.592   7.035  20.635  0.00  0.00    +0.000 A 
ATOM      8  C   UNL     1       1.858   5.673  20.829  0.00  0.00    +0.000 A 
ATOM      9  C   UNL     1       2.483   4.974  19.812  0.00  0.00    +0.000 A 
ATOM     10  C   UNL     1       2.742   3.484  19.650  0.00  0.00    +0.000 C 
ATOM     11  C   UNL     1       1.598   2.578  20.055  0.00  0.00    +0.000 C 
ATOM     12  C   UNL     1       0.657   2.581  18.855  0.00  0.00    +0.000 C 
ATOM     13  N   UNL     1       1.283   3.351  17.762  0.00  0.00    +0.000 NA
ATOM     14  C   UNL     1       2.752   3.391  18.089  0.00  0.00    +0.000 C 
ATOM     15  C   UNL     1       3.348   2.136  17.449  0.00  0.00    +0.000 C 
ATOM     16  H   UNL     1       0.940   4.312  17.810  0.00  0.00    +0.000 HD
ENDROOT
BRANCH   1  18
ATOM     17  C   UNL     1       6.625   5.965  17.055  0.00  0.00    +0.000 C 
ATOM     18  O   UNL     1       5.255   5.930  17.467  0.00  0.00    +0.000 OA
ENDBRANCH   1  18
BRANCH   6  19
ATOM     19  O   UNL     1       1.720   9.000  19.173  0.00  0.00    +0.000 OA
ATOM     20  C   UNL     1       1.853   9.363  17.802  0.00  0.00    +0.000 C 
ENDBRANCH   6  19
BRANCH  10  21
ATOM     21  O   UNL     1       3.945   3.088  20.287  0.00  0.00    +0.000 OA
ATOM     22  H   UNL     1       4.162   2.188  19.989  0.00  0.00    +0.000 HD
ENDBRANCH  10  21
TORSDOF 3
ENDMDL
MODEL 3
REMARK VINA RESULT:      -7.1      1.810      4.269
REMARK  Name = 
REMARK  6 active torsions:
REMARK  status: ('A' for Active; 'I' for Inactive)
REMARK    1  A    between atoms: C_1  and  O_2
REMARK    2  A    between atoms: O_2  and  C_3
REMARK    3  A    between atoms: C_8  and  O_9
REMARK    4  A    between atoms: O_9  and  C_10
REMARK    5  A    between atoms: C_14  and  O_15
REMARK    6  A    between atoms: C_19  and  C_20
REMARK                            x       y       z     vdW  Elec       q    Type
REMARK                         _______ _______ _______ _____ _____    ______ ____
ROOT
ATOM      1  C   UNL     1       5.688   6.192  16.304  0.00  0.00    +0.000 C 
ATOM      2  O   UNL     1       6.430   5.720  15.450  0.00  0.00    +0.000 OA
ATOM      3  N   UNL     1       4.559   5.554  16.828  0.00  0.00    +0.000 N 
ATOM      4  C   UNL     1       3.880   6.090  17.949  0.00  0.00    +0.000 A 
ATOM      5  C   UNL     1       3.217   7.303  18.008  0.00  0.00    +0.000 A 
ATOM      6  C   UNL     1       2.366   7.519  19.087  0.00  0.00    +0.000 A 
ATOM      7  C   UNL     1       2.262   6.569  20.123  0.00  0.00    +0.000 A 
ATOM      8  C   UNL     1       2.991   5.373  20.074  0.00  0.00    +0.000 A 
ATOM      9  C   UNL     1       3.780   5.129  18.965  0.00  0.00    +0.000 A 
ATOM     10  C   UNL     1       4.533   3.878  18.542  0.00  0.00    +0.000 C 
ATOM     11  C   UNL     1       3.790   2.573  18.746  0.00  0.00    +0.000 C 
ATOM     12  C   UNL     1       2.861   2.463  17.542  0.00  0.00    +0.000 C 
ATOM     13  N   UNL     1       3.139   3.585  16.623  0.00  0.00    +0.000 NA
ATOM     14  C   UNL     1       4.514   4.075  16.991  0.00  0.00    +0.000 C 
ATOM     15  C   UNL     1       5.483   3.242  16.150  0.00  0.00    +0.000 C 
ATOM     16  H   UNL     1       2.486   4.342  16.836  0.00  0.00    +0.000 HD
ENDROOT
BRANCH   1  18
ATOM     17  C   UNL     1       7.285   7.523  17.416  0.00  0.00    +0.000 C 
ATOM     18  O   UNL     1       5.956   7.394  16.905  0.00  0.00    +0.000 OA
ENDBRANCH   1  18
BRANCH   6  19
ATOM     19  O   UNL     1       1.644   8.684  19.046  0.00  0.00    +0.000 OA
ATOM     20  C   UNL     1       1.824   9.458  17.864  0.00  0.00    +0.000 C 
ENDBRANCH   6  19
BRANCH  10  21
ATOM     21  O   UNL     1       5.823   3.817  19.128  0.00  0.00    +0.000 OA
ATOM     22  H   UNL     1       6.024   2.886  19.319  0.00  0.00    +0.000 HD
ENDBRANCH  10  21
TORSDOF 3
ENDMDL
MODEL 4
REMARK VINA RESULT:      -7.0      1.038      1.170
REMARK  Name = 
REMARK  6 active torsions:
REMARK  status: ('A' for Active; 'I' for Inactive)
REMARK    1  A    between atoms: C_1  and  O_2
REMARK    2  A    between atoms: O_2  and  C_3
REMARK    3  A    between atoms: C_8  and  O_9
REMARK    4  A    between atoms: O_9  and  C_10
REMARK    5  A    between atoms: C_14  and  O_15
REMARK    6  A    between atoms: C_19  and  C_20
REMARK                            x       y       z     vdW  Elec       q    Type
REMARK                         _______ _______ _______ _____ _____    ______ ____
ROOT
ATOM      1  C   UNL     1       2.576   7.147  18.972  0.00  0.00    +0.000 C 
ATOM      2  O   UNL     1       1.857   7.541  19.883  0.00  0.00    +0.000 OA
ATOM      3  N   UNL     1       3.235   5.914  18.944  0.00  0.00    +0.000 N 
ATOM      4  C   UNL     1       3.881   5.465  17.767  0.00  0.00    +0.000 A 
ATOM      5  C   UNL     1       4.968   6.055  17.148  0.00  0.00    +0.000 A 
ATOM      6  C   UNL     1       5.642   5.310  16.184  0.00  0.00    +0.000 A 
ATOM      7  C   UNL     1       5.169   4.040  15.796  0.00  0.00    +0.000 A 
ATOM      8  C   UNL     1       4.028   3.487  16.393  0.00  0.00    +0.000 A 
ATOM      9  C   UNL     1       3.404   4.198  17.402  0.00  0.00    +0.000 A 
ATOM     10  C   UNL     1       2.280   3.798  18.345  0.00  0.00    +0.000 C 
ATOM     11  C   UNL     1       2.368   2.393  18.902  0.00  0.00    +0.000 C 
ATOM     12  C   UNL     1       3.352   2.496  20.062  0.00  0.00    +0.000 C 
ATOM     13  N   UNL     1       3.721   3.914  20.247  0.00  0.00    +0.000 NA
ATOM     14  C   UNL     1       2.634   4.704  19.570  0.00  0.00    +0.000 C 
ATOM     15  C   UNL     1       1.559   4.919  20.637  0.00  0.00    +0.000 C 
ATOM     16  H   UNL     1       4.584   4.090  19.730  0.00  0.00    +0.000 HD
ENDROOT
BRANCH   1  18
ATOM     17  C   UNL     1       2.025   9.110  17.788  0.00  0.00    +0.000 C 
ATOM     18  O   UNL     1       2.737   7.870  17.819  0.00  0.00    +0.000 OA
ENDBRANCH   1  18
BRANCH   6  19
ATOM     19  O   UNL     1       6.778   5.887  15.680  0.00  0.00    +0.000 OA
ATOM     20  C   UNL     1       7.356   5.202  14.573  0.00  0.00    +0.000 C 
ENDBRANCH   6  19
BRANCH  10  21
ATOM     21  O   UNL     1       1.005   4.031  17.770  0.00  0.00    +0.000 OA
ATOM     22  H   UNL     1       0.579   3.169  17.621  0.00  0.00    +0.000 HD
ENDBRANCH  10  21
TORSDOF 3
ENDMDL
MODEL 5
REMARK VINA RESULT:      -6.5      2.164      4.514
REMARK  Name = 
REMARK  6 active torsions:
REMARK  status: ('A' for Active; 'I' for Inactive)
REMARK    1  A    between atoms: C_1  and  O_2
REMARK    2  A    between atoms: O_2  and  C_3
REMARK    3  A    between atoms: C_8  and  O_9
REMARK    4  A    between atoms: O_9  and  C_10
REMARK    5  A    between atoms: C_14  and  O_15
REMARK    6  A    between atoms: C_19  and  C_20
REMARK                            x       y       z     vdW  Elec       q    Type
REMARK                         _______ _______ _______ _____ _____    ______ ____
ROOT
ATOM      1  C   UNL     1       6.740   6.948  16.737  0.00  0.00    +0.000 C 
ATOM      2  O   UNL     1       7.774   6.480  16.274  0.00  0.00    +0.000 OA
ATOM      3  N   UNL     1       5.553   6.236  16.930  0.00  0.00    +0.000 N 
ATOM      4  C   UNL     1       4.476   6.806  17.653  0.00  0.00    +0.000 A 
ATOM      5  C   UNL     1       3.744   7.924  17.295  0.00  0.00    +0.000 A 
ATOM      6  C   UNL     1       2.548   8.152  17.967  0.00  0.00    +0.000 A 
ATOM      7  C   UNL     1       2.153   7.321  19.036  0.00  0.00    +0.000 A 
ATOM      8  C   UNL     1       2.942   6.230  19.423  0.00  0.00    +0.000 A 
ATOM      9  C   UNL     1       4.094   5.962  18.705  0.00  0.00    +0.000 A 
ATOM     10  C   UNL     1       5.043   4.777  18.763  0.00  0.00    +0.000 C 
ATOM     11  C   UNL     1       4.382   3.420  18.894  0.00  0.00    +0.000 C 
ATOM     12  C   UNL     1       3.958   3.056  17.475  0.00  0.00    +0.000 C 
ATOM     13  N   UNL     1       4.459   4.092  16.549  0.00  0.00    +0.000 NA
ATOM     14  C   UNL     1       5.567   4.791  17.289  0.00  0.00    +0.000 C 
ATOM     15  C   UNL     1       6.836   3.997  16.972  0.00  0.00    +0.000 C 
ATOM     16  H   UNL     1       3.716   4.779  16.406  0.00  0.00    +0.000 HD
ENDROOT
BRANCH   1  18
ATOM     17  C   UNL     1       7.915   8.743  17.715  0.00  0.00    +0.000 C 
ATOM     18  O   UNL     1       6.679   8.235  17.204  0.00  0.00    +0.000 OA
ENDBRANCH   1  18
BRANCH   6  19
ATOM     19  O   UNL     1       1.800   9.203  17.504  0.00  0.00    +0.000 OA
ATOM     20  C   UNL     1       1.512  10.206  18.473  0.00  0.00    +0.000 C 
ENDBRANCH   6  19
BRANCH  10  21
ATOM     21  O   UNL     1       6.037   4.948  19.760  0.00  0.00    +0.000 OA
ATOM     22  H   UNL     1       5.590   5.077  20.613  0.00  0.00    +0.000 HD
ENDBRANCH  10  21
TORSDOF 3
ENDMDL
MODEL 6
REMARK VINA RESULT:      -6.5      1.894      4.248
REMARK  Name = 
REMARK  6 active torsions:
REMARK  status: ('A' for Active; 'I' for Inactive)
REMARK    1  A    between atoms: C_1  and  O_2
REMARK    2  A    between atoms: O_2  and  C_3
REMARK    3  A    between atoms: C_8  and  O_9
REMARK    4  A    between atoms: O_9  and  C_10
REMARK    5  A    between atoms: C_14  and  O_15
REMARK    6  A    between atoms: C_19  and  C_20
REMARK                            x       y       z     vdW  Elec       q    Type
REMARK                         _______ _______ _______ _____ _____    ______ ____
ROOT
ATOM      1  C   UNL     1       5.015   5.384  16.629  0.00  0.00    +0.000 C 
ATOM      2  O   UNL     1       5.594   4.418  16.145  0.00  0.00    +0.000 OA
ATOM      3  N   UNL     1       3.730   5.358  17.177  0.00  0.00    +0.000 N 
ATOM      4  C   UNL     1       3.224   6.472  17.889  0.00  0.00    +0.000 A 
ATOM      5  C   UNL     1       2.976   7.733  17.378  0.00  0.00    +0.000 A 
ATOM      6  C   UNL     1       2.207   8.600  18.147  0.00  0.00    +0.000 A 
ATOM      7  C   UNL     1       1.780   8.229  19.439  0.00  0.00    +0.000 A 
ATOM      8  C   UNL     1       2.096   6.969  19.964  0.00  0.00    +0.000 A 
ATOM      9  C   UNL     1       2.798   6.082  19.167  0.00  0.00    +0.000 A 
ATOM     10  C   UNL     1       3.129   4.614  19.376  0.00  0.00    +0.000 C 
ATOM     11  C   UNL     1       2.009   3.770  19.947  0.00  0.00    +0.000 C 
ATOM     12  C   UNL     1       1.125   3.436  18.750  0.00  0.00    +0.000 C 
ATOM     13  N   UNL     1       1.767   3.956  17.526  0.00  0.00    +0.000 NA
ATOM     14  C   UNL     1       3.216   4.152  17.884  0.00  0.00    +0.000 C 
ATOM     15  C   UNL     1       3.896   2.814  17.586  0.00  0.00    +0.000 C 
ATOM     16  H   UNL     1       1.381   4.881  17.330  0.00  0.00    +0.000 HD
ENDROOT
BRANCH   1  18
ATOM     17  C   UNL     1       6.816   6.588  17.560  0.00  0.00    +0.000 C 
ATOM     18  O   UNL     1       5.632   6.601  16.758  0.00  0.00    +0.000 OA
ENDBRANCH   1  18
BRANCH   6  19
ATOM     19  O   UNL     1       1.889   9.794  17.554  0.00  0.00    +0.000 OA
ATOM     20  C   UNL     1       2.067  10.940  18.382  0.00  0.00    +0.000 C 
ENDBRANCH   6  19
BRANCH  10  21
ATOM     21  O   UNL     1       4.318   4.445  20.131  0.00  0.00    +0.000 OA
ATOM     22  H   UNL     1       4.633   5.325  20.399  0.00  0.00    +0.000 HD
ENDBRANCH  10  21
TORSDOF 3
ENDMDL
MODEL 7
REMARK VINA RESULT:      -6.4      2.014      4.485
REMARK  Name = 
REMARK  6 active torsions:
REMARK  status: ('A' for Active; 'I' for Inactive)
REMARK    1  A    between atoms: C_1  and  O_2
REMARK    2  A    between atoms: O_2  and  C_3
REMARK    3  A    between atoms: C_8  and  O_9
REMARK    4  A    between atoms: O_9  and  C_10
REMARK    5  A    between atoms: C_14  and  O_15
REMARK    6  A    between atoms: C_19  and  C_20
REMARK                            x       y       z     vdW  Elec       q    Type
REMARK                         _______ _______ _______ _____ _____    ______ ____
ROOT
ATOM      1  C   UNL     1       2.569   3.881  20.669  0.00  0.00    +0.000 C 
ATOM      2  O   UNL     1       2.995   2.773  20.978  0.00  0.00    +0.000 OA
ATOM      3  N   UNL     1       3.335   4.908  20.109  0.00  0.00    +0.000 N 
ATOM      4  C   UNL     1       2.718   6.078  19.603  0.00  0.00    +0.000 A 
ATOM      5  C   UNL     1       2.003   7.012  20.331  0.00  0.00    +0.000 A 
ATOM      6  C   UNL     1       1.733   8.233  19.721  0.00  0.00    +0.000 A 
ATOM      7  C   UNL     1       2.098   8.462  18.378  0.00  0.00    +0.000 A 
ATOM      8  C   UNL     1       2.766   7.478  17.639  0.00  0.00    +0.000 A 
ATOM      9  C   UNL     1       3.099   6.293  18.271  0.00  0.00    +0.000 A 
ATOM     10  C   UNL     1       3.961   5.131  17.805  0.00  0.00    +0.000 C 
ATOM     11  C   UNL     1       5.232   5.516  17.078  0.00  0.00    +0.000 C 
ATOM     12  C   UNL     1       6.225   5.854  18.185  0.00  0.00    +0.000 C 
ATOM     13  N   UNL     1       5.599   5.561  19.490  0.00  0.00    +0.000 NA
ATOM     14  C   UNL     1       4.469   4.613  19.191  0.00  0.00    +0.000 C 
ATOM     15  C   UNL     1       5.082   3.212  19.252  0.00  0.00    +0.000 C 
ATOM     16  H   UNL     1       5.180   6.422  19.845  0.00  0.00    +0.000 HD
ENDROOT
BRANCH   1  18
ATOM     17  C   UNL     1       0.374   3.382  19.970  0.00  0.00    +0.000 C 
ATOM     18  O   UNL     1       1.239   4.193  20.768  0.00  0.00    +0.000 OA
ENDBRANCH   1  18
BRANCH   6  19
ATOM     19  O   UNL     1       1.125   9.169  20.516  0.00  0.00    +0.000 OA
ATOM     20  C   UNL     1       1.212   8.914  21.915  0.00  0.00    +0.000 C 
ENDBRANCH   6  19
BRANCH  10  21
ATOM     21  O   UNL     1       3.214   4.194  17.047  0.00  0.00    +0.000 OA
ATOM     22  H   UNL     1       3.515   4.243  16.124  0.00  0.00    +0.000 HD
ENDBRANCH  10  21
TORSDOF 3
ENDMDL
MODEL 8
REMARK VINA RESULT:      -6.3      2.075      4.369
REMARK  Name = 
REMARK  6 active torsions:
REMARK  status: ('A' for Active; 'I' for Inactive)
REMARK    1  A    between atoms: C_1  and  O_2
REMARK    2  A    between atoms: O_2  and  C_3
REMARK    3  A    between atoms: C_8  and  O_9
REMARK    4  A    between atoms: O_9  and  C_10
REMARK    5  A    between atoms: C_14  and  O_15
REMARK    6  A    between atoms: C_19  and  C_20
REMARK                            x       y       z     vdW  Elec       q    Type
REMARK                         _______ _______ _______ _____ _____    ______ ____
ROOT
ATOM      1  C   UNL     1       5.204   4.395  18.568  0.00  0.00    +0.000 C 
ATOM      2  O   UNL     1       5.892   3.482  18.126  0.00  0.00    +0.000 OA
ATOM      3  N   UNL     1       3.807   4.395  18.620  0.00  0.00    +0.000 N 
ATOM      4  C   UNL     1       3.109   5.405  19.326  0.00  0.00    +0.000 A 
ATOM      5  C   UNL     1       3.094   6.756  19.031  0.00  0.00    +0.000 A 
ATOM      6  C   UNL     1       2.123   7.539  19.648  0.00  0.00    +0.000 A 
ATOM      7  C   UNL     1       1.253   6.982  20.607  0.00  0.00    +0.000 A 
ATOM      8  C   UNL     1       1.326   5.622  20.937  0.00  0.00    +0.000 A 
ATOM      9  C   UNL     1       2.244   4.832  20.268  0.00  0.00    +0.000 A 
ATOM     10  C   UNL     1       2.439   3.324  20.272  0.00  0.00    +0.000 C 
ATOM     11  C   UNL     1       1.166   2.504  20.233  0.00  0.00    +0.000 C 
ATOM     12  C   UNL     1       0.762   2.483  18.763  0.00  0.00    +0.000 C 
ATOM     13  N   UNL     1       1.814   3.153  17.972  0.00  0.00    +0.000 NA
ATOM     14  C   UNL     1       3.043   3.137  18.841  0.00  0.00    +0.000 C 
ATOM     15  C   UNL     1       3.749   1.816  18.528  0.00  0.00    +0.000 C 
ATOM     16  H   UNL     1       1.548   4.131  17.849  0.00  0.00    +0.000 HD
ENDROOT
BRANCH   1  18
ATOM     17  C   UNL     1       7.095   5.797  18.712  0.00  0.00    +0.000 C 
ATOM     18  O   UNL     1       5.765   5.502  19.149  0.00  0.00    +0.000 OA
ENDBRANCH   1  18
BRANCH   6  19
ATOM     19  O   UNL     1       2.071   8.847  19.241  0.00  0.00    +0.000 OA
ATOM     20  C   UNL     1       1.832   9.030  17.848  0.00  0.00    +0.000 C 
ENDBRANCH   6  19
BRANCH  10  21
ATOM     21  O   UNL     1       3.273   2.905  21.339  0.00  0.00    +0.000 OA
ATOM     22  H   UNL     1       4.198   2.982  21.048  0.00  0.00    +0.000 HD
ENDBRANCH  10  21
TORSDOF 3
ENDMDL
MODEL 9
REMARK VINA RESULT:      -6.3      1.824      4.521
REMARK  Name = 
REMARK  6 active torsions:
REMARK  status: ('A' for Active; 'I' for Inactive)
REMARK    1  A    between atoms: C_1  and  O_2
REMARK    2  A    between atoms: O_2  and  C_3
REMARK    3  A    between atoms: C_8  and  O_9
REMARK    4  A    between atoms: O_9  and  C_10
REMARK    5  A    between atoms: C_14  and  O_15
REMARK    6  A    between atoms: C_19  and  C_20
REMARK                            x       y       z     vdW  Elec       q    Type
REMARK                         _______ _______ _______ _____ _____    ______ ____
ROOT
ATOM      1  C   UNL     1       2.994   7.050  18.111  0.00  0.00    +0.000 C 
ATOM      2  O   UNL     1       3.058   8.061  17.420  0.00  0.00    +0.000 OA
ATOM      3  N   UNL     1       3.499   5.798  17.750  0.00  0.00    +0.000 N 
ATOM      4  C   UNL     1       3.555   4.741  18.691  0.00  0.00    +0.000 A 
ATOM      5  C   UNL     1       2.477   4.126  19.304  0.00  0.00    +0.000 A 
ATOM      6  C   UNL     1       2.712   2.923  19.963  0.00  0.00    +0.000 A 
ATOM      7  C   UNL     1       4.020   2.407  20.074  0.00  0.00    +0.000 A 
ATOM      8  C   UNL     1       5.106   3.079  19.499  0.00  0.00    +0.000 A 
ATOM      9  C   UNL     1       4.859   4.237  18.783  0.00  0.00    +0.000 A 
ATOM     10  C   UNL     1       5.780   5.076  17.912  0.00  0.00    +0.000 C 
ATOM     11  C   UNL     1       6.717   4.295  17.014  0.00  0.00    +0.000 C 
ATOM     12  C   UNL     1       5.868   3.910  15.807  0.00  0.00    +0.000 C 
ATOM     13  N   UNL     1       4.540   4.542  15.940  0.00  0.00    +0.000 NA
ATOM     14  C   UNL     1       4.727   5.670  16.919  0.00  0.00    +0.000 C 
ATOM     15  C   UNL     1       5.139   6.879  16.076  0.00  0.00    +0.000 C 
ATOM     16  H   UNL     1       3.908   3.870  16.377  0.00  0.00    +0.000 HD
ENDROOT
BRANCH   1  18
ATOM     17  C   UNL     1       1.765   8.274  19.708  0.00  0.00    +0.000 C 
ATOM     18  O   UNL     1       2.478   7.078  19.380  0.00  0.00    +0.000 OA
ENDBRANCH   1  18
BRANCH   6  19
ATOM     19  O   UNL     1       1.600   2.292  20.455  0.00  0.00    +0.000 OA
ATOM     20  C   UNL     1       1.316   2.561  21.825  0.00  0.00    +0.000 C 
ENDBRANCH   6  19
BRANCH  10  21
ATOM     21  O   UNL     1       6.497   6.032  18.675  0.00  0.00    +0.000 OA
ATOM     22  H   UNL     1       6.185   5.982  19.594  0.00  0.00    +0.000 HD
ENDBRANCH  10  21
TORSDOF 3
ENDMDL
