MODEL 1
REMARK VINA RESULT:      -6.8      0.000      0.000
REMARK  Name = 
REMARK  9 active torsions:
REMARK  status: ('A' for Active; 'I' for Inactive)
REMARK    1  A    between atoms: C_2  and  C_5
REMARK    2  A    between atoms: C_5  and  C_6
REMARK    3  A    between atoms: C_6  and  C_7
REMARK    4  A    between atoms: C_7  and  C_8
REMARK    5  A    between atoms: C_7  and  N_14
REMARK    6  A    between atoms: C_8  and  C_9
REMARK    7  A    between atoms: C_9  and  C_10
REMARK    8  A    between atoms: N_14  and  C_15
REMARK    9  A    between atoms: C_15  and  C_16
REMARK                            x       y       z     vdW  Elec       q    Type
REMARK                         _______ _______ _______ _____ _____    ______ ____
ROOT
ATOM      1  C   UNL     1       4.185   4.364  18.078  0.00  0.00    +0.000 C 
ENDROOT
BRANCH   1   2
ATOM      2  N   UNL     1       4.716   3.149  18.715  0.00  0.00    +0.000 NA
ATOM      3  H   UNL     1       5.043   3.357  19.663  0.00  0.00    +0.000 HD
BRANCH   2   4
ATOM      4  C   UNL     1       3.721   2.074  18.837  0.00  0.00    +0.000 C 
BRANCH   4   5
ATOM      5  C   UNL     1       2.624   2.507  19.763  0.00  0.00    +0.000 A 
ATOM      6  C   UNL     1       2.708   2.749  21.152  0.00  0.00    +0.000 A 
ATOM      7  C   UNL     1       1.426   3.039  21.541  0.00  0.00    +0.000 A 
ATOM      8  N   UNL     1       0.664   2.966  20.413  0.00  0.00    +0.000 N 
ATOM      9  N   UNL     1       1.367   2.659  19.311  0.00  0.00    +0.000 NA
ATOM     10  H   UNL     1      -0.337   3.104  20.320  0.00  0.00    +0.000 HD
ENDBRANCH   4   5
ENDBRANCH   2   4
ENDBRANCH   1   2
BRANCH   1  11
ATOM     11  C   UNL     1       5.003   5.614  18.479  0.00  0.00    +0.000 C 
BRANCH  11  12
ATOM     12  C   UNL     1       6.297   5.327  19.246  0.00  0.00    +0.000 C 
BRANCH  12  14
ATOM     13  F   UNL     1       8.107   4.498  17.919  0.00  0.00    +0.000 F 
ATOM     14  C   UNL     1       7.532   5.617  18.406  0.00  0.00    +0.000 C 
ATOM     15  F   UNL     1       8.463   6.272  19.133  0.00  0.00    +0.000 F 
ATOM     16  F   UNL     1       7.215   6.402  17.352  0.00  0.00    +0.000 F 
ENDBRANCH  12  14
ENDBRANCH  11  12
ENDBRANCH   1  11
BRANCH   1  17
ATOM     17  C   UNL     1       4.200   4.145  16.547  0.00  0.00    +0.000 C 
BRANCH  17  18
ATOM     18  C   UNL     1       5.552   3.745  15.939  0.00  0.00    +0.000 C 
BRANCH  18  19
ATOM     19  C   UNL     1       6.043   4.657  14.831  0.00  0.00    +0.000 C 
ATOM     20  F   UNL     1       7.384   4.807  14.828  0.00  0.00    +0.000 F 
ATOM     21  F   UNL     1       5.703   4.148  13.622  0.00  0.00    +0.000 F 
ATOM     22  F   UNL     1       5.488   5.885  14.916  0.00  0.00    +0.000 F 
ENDBRANCH  18  19
ENDBRANCH  17  18
ENDBRANCH   1  17
TORSDOF 9
ENDMDL
MODEL 2
REMARK VINA RESULT:      -6.8      3.861      6.285
REMARK  Name = 
REMARK  9 active torsions:
REMARK  status: ('A' for Active; 'I' for Inactive)
REMARK    1  A    between atoms: C_2  and  C_5
REMARK    2  A    between atoms: C_5  and  C_6
REMARK    3  A    between atoms: C_6  and  C_7
REMARK    4  A    between atoms: C_7  and  C_8
REMARK    5  A    between atoms: C_7  and  N_14
REMARK    6  A    between atoms: C_8  and  C_9
REMARK    7  A    between atoms: C_9  and  C_10
REMARK    8  A    between atoms: N_14  and  C_15
REMARK    9  A    between atoms: C_15  and  C_16
REMARK                            x       y       z     vdW  Elec       q    Type
REMARK                         _______ _______ _______ _____ _____    ______ ____
ROOT
ATOM      1  C   UNL     1       4.157   3.810  18.918  0.00  0.00    +0.000 C 
ENDROOT
BRANCH   1   2
ATOM      2  N   UNL     1       5.495   3.527  18.374  0.00  0.00    +0.000 NA
ATOM      3  H   UNL     1       5.420   3.011  17.492  0.00  0.00    +0.000 HD
BRANCH   2   4
ATOM      4  C   UNL     1       6.276   4.739  18.091  0.00  0.00    +0.000 C 
BRANCH   4   5
ATOM      5  C   UNL     1       6.568   4.817  16.623  0.00  0.00    +0.000 A 
ATOM      6  C   UNL     1       6.111   3.955  15.601  0.00  0.00    +0.000 A 
ATOM      7  C   UNL     1       6.721   4.404  14.458  0.00  0.00    +0.000 A 
ATOM      8  N   UNL     1       7.481   5.473  14.830  0.00  0.00    +0.000 N 
ATOM      9  N   UNL     1       7.397   5.759  16.140  0.00  0.00    +0.000 NA
ATOM     10  H   UNL     1       8.085   6.046  14.252  0.00  0.00    +0.000 HD
ENDBRANCH   4   5
ENDBRANCH   2   4
ENDBRANCH   1   2
BRANCH   1  11
ATOM     11  C   UNL     1       3.094   3.870  17.795  0.00  0.00    +0.000 C 
BRANCH  11  12
ATOM     12  C   UNL     1       2.119   5.046  17.884  0.00  0.00    +0.000 C 
BRANCH  12  14
ATOM     13  F   UNL     1       2.022   7.436  17.970  0.00  0.00    +0.000 F 
ATOM     14  C   UNL     1       2.842   6.371  18.085  0.00  0.00    +0.000 C 
ATOM     15  F   UNL     1       3.833   6.517  17.178  0.00  0.00    +0.000 F 
ATOM     16  F   UNL     1       3.405   6.421  19.313  0.00  0.00    +0.000 F 
ENDBRANCH  12  14
ENDBRANCH  11  12
ENDBRANCH   1  11
BRANCH   1  17
ATOM     17  C   UNL     1       3.823   2.712  19.956  0.00  0.00    +0.000 C 
BRANCH  17  18
ATOM     18  C   UNL     1       2.332   2.390  20.134  0.00  0.00    +0.000 C 
BRANCH  18  19
ATOM     19  C   UNL     1       1.615   3.257  21.153  0.00  0.00    +0.000 C 
ATOM     20  F   UNL     1       0.644   4.018  20.605  0.00  0.00    +0.000 F 
ATOM     21  F   UNL     1       1.022   2.480  22.091  0.00  0.00    +0.000 F 
ATOM     22  F   UNL     1       2.472   4.077  21.798  0.00  0.00    +0.000 F 
ENDBRANCH  18  19
ENDBRANCH  17  18
ENDBRANCH   1  17
TORSDOF 9
ENDMDL
MODEL 3
REMARK VINA RESULT:      -6.7      2.282      3.876
REMARK  Name = 
REMARK  9 active torsions:
REMARK  status: ('A' for Active; 'I' for Inactive)
REMARK    1  A    between atoms: C_2  and  C_5
REMARK    2  A    between atoms: C_5  and  C_6
REMARK    3  A    between atoms: C_6  and  C_7
REMARK    4  A    between atoms: C_7  and  C_8
REMARK    5  A    between atoms: C_7  and  N_14
REMARK    6  A    between atoms: C_8  and  C_9
REMARK    7  A    between atoms: C_9  and  C_10
REMARK    8  A    between atoms: N_14  and  C_15
REMARK    9  A    between atoms: C_15  and  C_16
REMARK                            x       y       z     vdW  Elec       q    Type
REMARK                         _______ _______ _______ _____ _____    ______ ____
ROOT
ATOM      1  C   UNL     1       5.423   4.233  18.291  0.00  0.00    +0.000 C 
ENDROOT
BRANCH   1   2
ATOM      2  N   UNL     1       5.154   3.079  19.163  0.00  0.00    +0.000 NA
ATOM      3  H   UNL     1       5.102   3.377  20.142  0.00  0.00    +0.000 HD
BRANCH   2   4
ATOM      4  C   UNL     1       3.886   2.403  18.858  0.00  0.00    +0.000 C 
BRANCH   4   5
ATOM      5  C   UNL     1       2.938   2.570  20.008  0.00  0.00    +0.000 A 
ATOM      6  C   UNL     1       1.555   2.852  19.956  0.00  0.00    +0.000 A 
ATOM      7  C   UNL     1       1.170   2.985  21.266  0.00  0.00    +0.000 A 
ATOM      8  N   UNL     1       2.293   2.781  22.011  0.00  0.00    +0.000 N 
ATOM      9  N   UNL     1       3.383   2.511  21.275  0.00  0.00    +0.000 NA
ATOM     10  H   UNL     1       2.392   2.818  23.020  0.00  0.00    +0.000 HD
ENDBRANCH   4   5
ENDBRANCH   2   4
ENDBRANCH   1   2
BRANCH   1  11
ATOM     11  C   UNL     1       4.877   3.999  16.862  0.00  0.00    +0.000 C 
BRANCH  11  12
ATOM     12  C   UNL     1       5.941   3.745  15.792  0.00  0.00    +0.000 C 
BRANCH  12  14
ATOM     13  F   UNL     1       5.225   5.869  14.955  0.00  0.00    +0.000 F 
ATOM     14  C   UNL     1       5.803   4.699  14.614  0.00  0.00    +0.000 C 
ATOM     15  F   UNL     1       5.057   4.144  13.633  0.00  0.00    +0.000 F 
ATOM     16  F   UNL     1       7.016   4.983  14.090  0.00  0.00    +0.000 F 
ENDBRANCH  12  14
ENDBRANCH  11  12
ENDBRANCH   1  11
BRANCH   1  17
ATOM     17  C   UNL     1       4.785   5.482  18.943  0.00  0.00    +0.000 C 
BRANCH  17  18
ATOM     18  C   UNL     1       3.931   6.360  18.017  0.00  0.00    +0.000 C 
BRANCH  18  19
ATOM     19  C   UNL     1       2.440   6.304  18.290  0.00  0.00    +0.000 C 
ATOM     20  F   UNL     1       2.149   6.196  19.603  0.00  0.00    +0.000 F 
ATOM     21  F   UNL     1       1.842   7.437  17.848  0.00  0.00    +0.000 F 
ATOM     22  F   UNL     1       1.856   5.269  17.649  0.00  0.00    +0.000 F 
ENDBRANCH  18  19
ENDBRANCH  17  18
ENDBRANCH   1  17
TORSDOF 9
ENDMDL
MODEL 4
REMARK VINA RESULT:      -6.7      1.129      1.536
REMARK  Name = 
REMARK  9 active torsions:
REMARK  status: ('A' for Active; 'I' for Inactive)
REMARK    1  A    between atoms: C_2  and  C_5
REMARK    2  A    between atoms: C_5  and  C_6
REMARK    3  A    between atoms: C_6  and  C_7
REMARK    4  A    between atoms: C_7  and  C_8
REMARK    5  A    between atoms: C_7  and  N_14
REMARK    6  A    between atoms: C_8  and  C_9
REMARK    7  A    between atoms: C_9  and  C_10
REMARK    8  A    between atoms: N_14  and  C_15
REMARK    9  A    between atoms: C_15  and  C_16
REMARK                            x       y       z     vdW  Elec       q    Type
REMARK                         _______ _______ _______ _____ _____    ______ ____
ROOT
ATOM      1  C   UNL     1       4.707   4.571  18.796  0.00  0.00    +0.000 C 
ENDROOT
BRANCH   1   2
ATOM      2  N   UNL     1       5.018   3.134  18.847  0.00  0.00    +0.000 NA
ATOM      3  H   UNL     1       6.022   2.991  18.989  0.00  0.00    +0.000 HD
BRANCH   2   4
ATOM      4  C   UNL     1       4.331   2.430  19.939  0.00  0.00    +0.000 C 
BRANCH   4   5
ATOM      5  C   UNL     1       2.849   2.497  19.728  0.00  0.00    +0.000 A 
ATOM      6  C   UNL     1       2.123   2.153  18.566  0.00  0.00    +0.000 A 
ATOM      7  C   UNL     1       0.820   2.469  18.855  0.00  0.00    +0.000 A 
ATOM      8  N   UNL     1       0.824   2.962  20.125  0.00  0.00    +0.000 N 
ATOM      9  N   UNL     1       2.042   2.978  20.690  0.00  0.00    +0.000 NA
ATOM     10  H   UNL     1       0.040   3.313  20.666  0.00  0.00    +0.000 HD
ENDBRANCH   4   5
ENDBRANCH   2   4
ENDBRANCH   1   2
BRANCH   1  11
ATOM     11  C   UNL     1       5.898   5.424  19.297  0.00  0.00    +0.000 C 
BRANCH  11  12
ATOM     12  C   UNL     1       7.137   5.401  18.399  0.00  0.00    +0.000 C 
BRANCH  12  14
ATOM     13  F   UNL     1       8.344   7.465  18.476  0.00  0.00    +0.000 F 
ATOM     14  C   UNL     1       7.421   6.764  17.786  0.00  0.00    +0.000 C 
ATOM     15  F   UNL     1       6.296   7.510  17.734  0.00  0.00    +0.000 F 
ATOM     16  F   UNL     1       7.876   6.629  16.521  0.00  0.00    +0.000 F 
ENDBRANCH  12  14
ENDBRANCH  11  12
ENDBRANCH   1  11
BRANCH   1  17
ATOM     17  C   UNL     1       4.331   4.926  17.338  0.00  0.00    +0.000 C 
BRANCH  17  18
ATOM     18  C   UNL     1       4.803   3.935  16.264  0.00  0.00    +0.000 C 
BRANCH  18  19
ATOM     19  C   UNL     1       5.562   4.566  15.111  0.00  0.00    +0.000 C 
ATOM     20  F   UNL     1       6.879   4.273  15.126  0.00  0.00    +0.000 F 
ATOM     21  F   UNL     1       5.074   4.116  13.930  0.00  0.00    +0.000 F 
ATOM     22  F   UNL     1       5.435   5.910  15.109  0.00  0.00    +0.000 F 
ENDBRANCH  18  19
ENDBRANCH  17  18
ENDBRANCH   1  17
TORSDOF 9
ENDMDL
MODEL 5
REMARK VINA RESULT:      -6.6      3.902      6.240
REMARK  Name = 
REMARK  9 active torsions:
REMARK  status: ('A' for Active; 'I' for Inactive)
REMARK    1  A    between atoms: C_2  and  C_5
REMARK    2  A    between atoms: C_5  and  C_6
REMARK    3  A    between atoms: C_6  and  C_7
REMARK    4  A    between atoms: C_7  and  C_8
REMARK    5  A    between atoms: C_7  and  N_14
REMARK    6  A    between atoms: C_8  and  C_9
REMARK    7  A    between atoms: C_9  and  C_10
REMARK    8  A    between atoms: N_14  and  C_15
REMARK    9  A    between atoms: C_15  and  C_16
REMARK                            x       y       z     vdW  Elec       q    Type
REMARK                         _______ _______ _______ _____ _____    ______ ____
ROOT
ATOM      1  C   UNL     1       4.638   4.086  19.400  0.00  0.00    +0.000 C 
ENDROOT
BRANCH   1   2
ATOM      2  N   UNL     1       5.547   3.625  18.339  0.00  0.00    +0.000 NA
ATOM      3  H   UNL     1       5.016   3.381  17.497  0.00  0.00    +0.000 HD
BRANCH   2   4
ATOM      4  C   UNL     1       6.535   4.636  17.939  0.00  0.00    +0.000 C 
BRANCH   4   5
ATOM      5  C   UNL     1       6.622   4.689  16.443  0.00  0.00    +0.000 A 
ATOM      6  C   UNL     1       5.901   3.918  15.505  0.00  0.00    +0.000 A 
ATOM      7  C   UNL     1       6.401   4.287  14.282  0.00  0.00    +0.000 A 
ATOM      8  N   UNL     1       7.355   5.228  14.533  0.00  0.00    +0.000 N 
ATOM      9  N   UNL     1       7.502   5.506  15.838  0.00  0.00    +0.000 NA
ATOM     10  H   UNL     1       7.947   5.714  13.869  0.00  0.00    +0.000 HD
ENDBRANCH   4   5
ENDBRANCH   2   4
ENDBRANCH   1   2
BRANCH   1  11
ATOM     11  C   UNL     1       4.550   5.630  19.435  0.00  0.00    +0.000 C 
BRANCH  11  12
ATOM     12  C   UNL     1       3.132   6.203  19.384  0.00  0.00    +0.000 C 
BRANCH  12  14
ATOM     13  F   UNL     1       1.666   6.710  17.562  0.00  0.00    +0.000 F 
ATOM     14  C   UNL     1       2.876   6.975  18.098  0.00  0.00    +0.000 C 
ATOM     15  F   UNL     1       3.809   6.678  17.167  0.00  0.00    +0.000 F 
ATOM     16  F   UNL     1       2.938   8.306  18.324  0.00  0.00    +0.000 F 
ENDBRANCH  12  14
ENDBRANCH  11  12
ENDBRANCH   1  11
BRANCH   1  17
ATOM     17  C   UNL     1       3.252   3.446  19.152  0.00  0.00    +0.000 C 
BRANCH  17  18
ATOM     18  C   UNL     1       2.697   2.584  20.296  0.00  0.00    +0.000 C 
BRANCH  18  19
ATOM     19  C   UNL     1       1.702   3.291  21.196  0.00  0.00    +0.000 C 
ATOM     20  F   UNL     1       1.053   2.448  22.027  0.00  0.00    +0.000 F 
ATOM     21  F   UNL     1       2.339   4.197  21.976  0.00  0.00    +0.000 F 
ATOM     22  F   UNL     1       0.775   3.963  20.480  0.00  0.00    +0.000 F 
ENDBRANCH  18  19
ENDBRANCH  17  18
ENDBRANCH   1  17
TORSDOF 9
ENDMDL
MODEL 6
REMARK VINA RESULT:      -6.6      3.974      6.073
REMARK  Name = 
REMARK  9 active torsions:
REMARK  status: ('A' for Active; 'I' for Inactive)
REMARK    1  A    between atoms: C_2  and  C_5
REMARK    2  A    between atoms: C_5  and  C_6
REMARK    3  A    between atoms: C_6  and  C_7
REMARK    4  A    between atoms: C_7  and  C_8
REMARK    5  A    between atoms: C_7  and  N_14
REMARK    6  A    between atoms: C_8  and  C_9
REMARK    7  A    between atoms: C_9  and  C_10
REMARK    8  A    between atoms: N_14  and  C_15
REMARK    9  A    between atoms: C_15  and  C_16
REMARK                            x       y       z     vdW  Elec       q    Type
REMARK                         _______ _______ _______ _____ _____    ______ ____
ROOT
ATOM      1  C   UNL     1       3.686   3.318  18.238  0.00  0.00    +0.000 C 
ENDROOT
BRANCH   1   2
ATOM      2  N   UNL     1       5.091   3.256  17.807  0.00  0.00    +0.000 NA
ATOM      3  H   UNL     1       5.163   2.807  16.889  0.00  0.00    +0.000 HD
BRANCH   2   4
ATOM      4  C   UNL     1       5.720   4.578  17.683  0.00  0.00    +0.000 C 
BRANCH   4   5
ATOM      5  C   UNL     1       6.280   4.741  16.301  0.00  0.00    +0.000 A 
ATOM      6  C   UNL     1       5.905   4.051  15.128  0.00  0.00    +0.000 A 
ATOM      7  C   UNL     1       6.764   4.503  14.160  0.00  0.00    +0.000 A 
ATOM      8  N   UNL     1       7.578   5.409  14.771  0.00  0.00    +0.000 N 
ATOM      9  N   UNL     1       7.299   5.588  16.072  0.00  0.00    +0.000 NA
ATOM     10  H   UNL     1       8.347   5.935  14.369  0.00  0.00    +0.000 HD
ENDBRANCH   4   5
ENDBRANCH   2   4
ENDBRANCH   1   2
BRANCH   1  11
ATOM     11  C   UNL     1       3.569   3.742  19.721  0.00  0.00    +0.000 C 
BRANCH  11  12
ATOM     12  C   UNL     1       2.871   2.731  20.634  0.00  0.00    +0.000 C 
BRANCH  12  14
ATOM     13  F   UNL     1       1.281   4.471  21.047  0.00  0.00    +0.000 F 
ATOM     14  C   UNL     1       1.436   3.136  20.938  0.00  0.00    +0.000 C 
ATOM     15  F   UNL     1       1.016   2.579  22.096  0.00  0.00    +0.000 F 
ATOM     16  F   UNL     1       0.606   2.709  19.960  0.00  0.00    +0.000 F 
ENDBRANCH  12  14
ENDBRANCH  11  12
ENDBRANCH   1  11
BRANCH   1  17
ATOM     17  C   UNL     1       2.945   4.307  17.307  0.00  0.00    +0.000 C 
BRANCH  17  18
ATOM     18  C   UNL     1       2.011   5.309  18.000  0.00  0.00    +0.000 C 
BRANCH  18  19
ATOM     19  C   UNL     1       2.575   6.712  18.133  0.00  0.00    +0.000 C 
ATOM     20  F   UNL     1       3.004   6.989  19.382  0.00  0.00    +0.000 F 
ATOM     21  F   UNL     1       3.638   6.868  17.309  0.00  0.00    +0.000 F 
ATOM     22  F   UNL     1       1.664   7.647  17.790  0.00  0.00    +0.000 F 
ENDBRANCH  18  19
ENDBRANCH  17  18
ENDBRANCH   1  17
TORSDOF 9
ENDMDL
MODEL 7
REMARK VINA RESULT:      -6.6      3.273      5.123
REMARK  Name = 
REMARK  9 active torsions:
REMARK  status: ('A' for Active; 'I' for Inactive)
REMARK    1  A    between atoms: C_2  and  C_5
REMARK    2  A    between atoms: C_5  and  C_6
REMARK    3  A    between atoms: C_6  and  C_7
REMARK    4  A    between atoms: C_7  and  C_8
REMARK    5  A    between atoms: C_7  and  N_14
REMARK    6  A    between atoms: C_8  and  C_9
REMARK    7  A    between atoms: C_9  and  C_10
REMARK    8  A    between atoms: N_14  and  C_15
REMARK    9  A    between atoms: C_15  and  C_16
REMARK                            x       y       z     vdW  Elec       q    Type
REMARK                         _______ _______ _______ _____ _____    ______ ____
ROOT
ATOM      1  C   UNL     1       3.984   3.532  17.482  0.00  0.00    +0.000 C 
ENDROOT
BRANCH   1   2
ATOM      2  N   UNL     1       5.193   3.465  18.318  0.00  0.00    +0.000 NA
ATOM      3  H   UNL     1       6.032   3.589  17.742  0.00  0.00    +0.000 HD
BRANCH   2   4
ATOM      4  C   UNL     1       5.238   4.501  19.359  0.00  0.00    +0.000 C 
BRANCH   4   5
ATOM      5  C   UNL     1       6.399   5.415  19.110  0.00  0.00    +0.000 A 
ATOM      6  C   UNL     1       6.587   6.302  18.027  0.00  0.00    +0.000 A 
ATOM      7  C   UNL     1       7.832   6.842  18.221  0.00  0.00    +0.000 A 
ATOM      8  N   UNL     1       8.312   6.281  19.367  0.00  0.00    +0.000 N 
ATOM      9  N   UNL     1       7.457   5.419  19.940  0.00  0.00    +0.000 NA
ATOM     10  H   UNL     1       9.212   6.431  19.811  0.00  0.00    +0.000 HD
ENDBRANCH   4   5
ENDBRANCH   2   4
ENDBRANCH   1   2
BRANCH   1  11
ATOM     11  C   UNL     1       2.911   4.450  18.114  0.00  0.00    +0.000 C 
BRANCH  11  12
ATOM     12  C   UNL     1       1.469   3.956  17.978  0.00  0.00    +0.000 C 
BRANCH  12  14
ATOM     13  F   UNL     1       0.425   3.820  20.127  0.00  0.00    +0.000 F 
ATOM     14  C   UNL     1       1.045   3.105  19.166  0.00  0.00    +0.000 C 
ATOM     15  F   UNL     1       2.116   2.503  19.730  0.00  0.00    +0.000 F 
ATOM     16  F   UNL     1       0.195   2.131  18.771  0.00  0.00    +0.000 F 
ENDBRANCH  12  14
ENDBRANCH  11  12
ENDBRANCH   1  11
BRANCH   1  17
ATOM     17  C   UNL     1       4.402   4.033  16.079  0.00  0.00    +0.000 C 
BRANCH  17  18
ATOM     18  C   UNL     1       5.817   3.648  15.623  0.00  0.00    +0.000 C 
BRANCH  18  19
ATOM     19  C   UNL     1       6.460   4.629  14.660  0.00  0.00    +0.000 C 
ATOM     20  F   UNL     1       7.723   4.955  15.007  0.00  0.00    +0.000 F 
ATOM     21  F   UNL     1       6.521   4.091  13.418  0.00  0.00    +0.000 F 
ATOM     22  F   UNL     1       5.748   5.772  14.566  0.00  0.00    +0.000 F 
ENDBRANCH  18  19
ENDBRANCH  17  18
ENDBRANCH   1  17
TORSDOF 9
ENDMDL
MODEL 8
REMARK VINA RESULT:      -6.6      1.094      1.652
REMARK  Name = 
REMARK  9 active torsions:
REMARK  status: ('A' for Active; 'I' for Inactive)
REMARK    1  A    between atoms: C_2  and  C_5
REMARK    2  A    between atoms: C_5  and  C_6
REMARK    3  A    between atoms: C_6  and  C_7
REMARK    4  A    between atoms: C_7  and  C_8
REMARK    5  A    between atoms: C_7  and  N_14
REMARK    6  A    between atoms: C_8  and  C_9
REMARK    7  A    between atoms: C_9  and  C_10
REMARK    8  A    between atoms: N_14  and  C_15
REMARK    9  A    between atoms: C_15  and  C_16
REMARK                            x       y       z     vdW  Elec       q    Type
REMARK                         _______ _______ _______ _____ _____    ______ ____
ROOT
ATOM      1  C   UNL     1       5.312   4.534  18.343  0.00  0.00    +0.000 C 
ENDROOT
BRANCH   1   2
ATOM      2  N   UNL     1       5.040   3.249  19.006  0.00  0.00    +0.000 NA
ATOM      3  H   UNL     1       4.960   3.381  20.019  0.00  0.00    +0.000 HD
BRANCH   2   4
ATOM      4  C   UNL     1       3.789   2.618  18.562  0.00  0.00    +0.000 C 
BRANCH   4   5
ATOM      5  C   UNL     1       2.727   2.823  19.600  0.00  0.00    +0.000 A 
ATOM      6  C   UNL     1       2.866   2.768  21.004  0.00  0.00    +0.000 A 
ATOM      7  C   UNL     1       1.596   2.942  21.494  0.00  0.00    +0.000 A 
ATOM      8  N   UNL     1       0.789   3.091  20.406  0.00  0.00    +0.000 N 
ATOM      9  N   UNL     1       1.450   3.039  19.238  0.00  0.00    +0.000 NA
ATOM     10  H   UNL     1      -0.216   3.223  20.383  0.00  0.00    +0.000 HD
ENDBRANCH   4   5
ENDBRANCH   2   4
ENDBRANCH   1   2
BRANCH   1  11
ATOM     11  C   UNL     1       6.828   4.739  18.112  0.00  0.00    +0.000 C 
BRANCH  11  12
ATOM     12  C   UNL     1       7.439   5.942  18.834  0.00  0.00    +0.000 C 
BRANCH  12  14
ATOM     13  F   UNL     1       8.481   8.046  18.372  0.00  0.00    +0.000 F 
ATOM     14  C   UNL     1       7.592   7.142  17.911  0.00  0.00    +0.000 C 
ATOM     15  F   UNL     1       6.410   7.776  17.748  0.00  0.00    +0.000 F 
ATOM     16  F   UNL     1       8.012   6.748  16.688  0.00  0.00    +0.000 F 
ENDBRANCH  12  14
ENDBRANCH  11  12
ENDBRANCH   1  11
BRANCH   1  17
ATOM     17  C   UNL     1       4.528   4.556  17.009  0.00  0.00    +0.000 C 
BRANCH  17  18
ATOM     18  C   UNL     1       5.225   5.256  15.833  0.00  0.00    +0.000 C 
BRANCH  18  19
ATOM     19  C   UNL     1       5.895   4.319  14.846  0.00  0.00    +0.000 C 
ATOM     20  F   UNL     1       5.206   4.190  13.692  0.00  0.00    +0.000 F 
ATOM     21  F   UNL     1       7.123   4.787  14.518  0.00  0.00    +0.000 F 
ATOM     22  F   UNL     1       6.065   3.086  15.368  0.00  0.00    +0.000 F 
ENDBRANCH  18  19
ENDBRANCH  17  18
ENDBRANCH   1  17
TORSDOF 9
ENDMDL
MODEL 9
REMARK VINA RESULT:      -6.5      0.765      1.210
REMARK  Name = 
REMARK  9 active torsions:
REMARK  status: ('A' for Active; 'I' for Inactive)
REMARK    1  A    between atoms: C_2  and  C_5
REMARK    2  A    between atoms: C_5  and  C_6
REMARK    3  A    between atoms: C_6  and  C_7
REMARK    4  A    between atoms: C_7  and  C_8
REMARK    5  A    between atoms: C_7  and  N_14
REMARK    6  A    between atoms: C_8  and  C_9
REMARK    7  A    between atoms: C_9  and  C_10
REMARK    8  A    between atoms: N_14  and  C_15
REMARK    9  A    between atoms: C_15  and  C_16
REMARK                            x       y       z     vdW  Elec       q    Type
REMARK                         _______ _______ _______ _____ _____    ______ ____
ROOT
ATOM      1  C   UNL     1       4.398   4.424  18.392  0.00  0.00    +0.000 C 
ENDROOT
BRANCH   1   2
ATOM      2  N   UNL     1       5.106   3.196  18.787  0.00  0.00    +0.000 NA
ATOM      3  H   UNL     1       6.034   3.423  19.158  0.00  0.00    +0.000 HD
BRANCH   2   4
ATOM      4  C   UNL     1       4.408   2.432  19.830  0.00  0.00    +0.000 C 
BRANCH   4   5
ATOM      5  C   UNL     1       2.932   2.449  19.564  0.00  0.00    +0.000 A 
ATOM      6  C   UNL     1       1.920   3.058  20.338  0.00  0.00    +0.000 A 
ATOM      7  C   UNL     1       0.745   2.719  19.715  0.00  0.00    +0.000 A 
ATOM      8  N   UNL     1       1.094   1.958  18.639  0.00  0.00    +0.000 N 
ATOM      9  N   UNL     1       2.420   1.789  18.511  0.00  0.00    +0.000 NA
ATOM     10  H   UNL     1       0.486   1.517  17.958  0.00  0.00    +0.000 HD
ENDBRANCH   4   5
ENDBRANCH   2   4
ENDBRANCH   1   2
BRANCH   1  11
ATOM     11  C   UNL     1       5.088   5.683  18.969  0.00  0.00    +0.000 C 
BRANCH  11  12
ATOM     12  C   UNL     1       6.540   5.484  19.412  0.00  0.00    +0.000 C 
BRANCH  12  14
ATOM     13  F   UNL     1       6.942   6.621  17.345  0.00  0.00    +0.000 F 
ATOM     14  C   UNL     1       7.527   5.920  18.338  0.00  0.00    +0.000 C 
ATOM     15  F   UNL     1       8.133   4.849  17.781  0.00  0.00    +0.000 F 
ATOM     16  F   UNL     1       8.493   6.700  18.872  0.00  0.00    +0.000 F 
ENDBRANCH  12  14
ENDBRANCH  11  12
ENDBRANCH   1  11
BRANCH   1  17
ATOM     17  C   UNL     1       4.343   4.466  16.847  0.00  0.00    +0.000 C 
BRANCH  17  18
ATOM     18  C   UNL     1       5.488   3.749  16.115  0.00  0.00    +0.000 C 
BRANCH  18  19
ATOM     19  C   UNL     1       6.048   4.503  14.924  0.00  0.00    +0.000 C 
ATOM     20  F   UNL     1       7.393   4.610  14.954  0.00  0.00    +0.000 F 
ATOM     21  F   UNL     1       5.732   3.860  13.774  0.00  0.00    +0.000 F 
ATOM     22  F   UNL     1       5.534   5.749  14.838  0.00  0.00    +0.000 F 
ENDBRANCH  18  19
ENDBRANCH  17  18
ENDBRANCH   1  17
TORSDOF 9
ENDMDL
