MODEL 1
REMARK VINA RESULT:      -7.4      0.000      0.000
REMARK  Name = 
REMARK  5 active torsions:
REMARK  status: ('A' for Active; 'I' for Inactive)
REMARK    1  A    between atoms: C_1  and  C_2
REMARK    2  A    between atoms: C_2  and  N_3
REMARK    3  A    between atoms: C_2  and  C_12
REMARK    4  A    between atoms: C_4  and  C_6
REMARK    5  A    between atoms: C_17  and  N_18
REMARK                            x       y       z     vdW  Elec       q    Type
REMARK                         _______ _______ _______ _____ _____    ______ ____
ROOT
ATOM      1  C   UNL     1       6.703   6.871  18.021  0.00  0.00    +0.000 C 
ATOM      2  C   UNL     1       5.613   5.932  17.467  0.00  0.00    +0.000 C 
ENDROOT
BRANCH   2   3
ATOM      3  C   UNL     1       4.193   6.449  17.727  0.00  0.00    +0.000 A 
ATOM      4  C   UNL     1       3.907   7.807  17.460  0.00  0.00    +0.000 A 
ATOM      5  C   UNL     1       2.699   8.388  17.839  0.00  0.00    +0.000 A 
ATOM      6  C   UNL     1       1.738   7.615  18.468  0.00  0.00    +0.000 A 
ATOM      7  C   UNL     1       1.974   6.256  18.689  0.00  0.00    +0.000 A 
ATOM      8  C   UNL     1       3.184   5.633  18.317  0.00  0.00    +0.000 A 
BRANCH   8   9
ATOM      9  N   UNL     1       3.398   4.283  18.585  0.00  0.00    +0.000 N 
ATOM     10  C   UNL     1       3.471   3.774  19.969  0.00  0.00    +0.000 C 
ATOM     11  C   UNL     1       4.257   2.447  19.952  0.00  0.00    +0.000 C 
ATOM     12  O   UNL     1       3.672   1.480  19.059  0.00  0.00    +0.000 OA
ATOM     13  C   UNL     1       3.576   2.018  17.722  0.00  0.00    +0.000 C 
ATOM     14  C   UNL     1       2.724   3.295  17.716  0.00  0.00    +0.000 C 
ENDBRANCH   8   9
ENDBRANCH   2   3
BRANCH   2  15
ATOM     15  N   UNL     1       5.843   5.673  16.049  0.00  0.00    +0.000 N 
ATOM     16  C   UNL     1       6.889   4.889  15.630  0.00  0.00    +0.000 C 
ATOM     17  O   UNL     1       7.740   4.428  16.385  0.00  0.00    +0.000 OA
ATOM     18  H   UNL     1       5.130   5.927  15.374  0.00  0.00    +0.000 HD
BRANCH  16  19
ATOM     19  C   UNL     1       6.902   4.599  14.153  0.00  0.00    +0.000 C 
ATOM     20  C   UNL     1       6.010   3.710  13.689  0.00  0.00    +0.000 C 
ATOM     21  C   UNL     1       5.934   3.300  12.257  0.00  0.00    +0.000 C 
ATOM     22  C   UNL     1       7.139   3.813  11.479  0.00  0.00    +0.000 C 
ATOM     23  C   UNL     1       7.497   5.216  11.950  0.00  0.00    +0.000 C 
ATOM     24  O   UNL     1       7.819   5.260  13.349  0.00  0.00    +0.000 OA
ENDBRANCH  16  19
ENDBRANCH   2  15
TORSDOF 4
ENDMDL
MODEL 2
REMARK VINA RESULT:      -7.4      1.414      1.420
REMARK  Name = 
REMARK  5 active torsions:
REMARK  status: ('A' for Active; 'I' for Inactive)
REMARK    1  A    between atoms: C_1  and  C_2
REMARK    2  A    between atoms: C_2  and  N_3
REMARK    3  A    between atoms: C_2  and  C_12
REMARK    4  A    between atoms: C_4  and  C_6
REMARK    5  A    between atoms: C_17  and  N_18
REMARK                            x       y       z     vdW  Elec       q    Type
REMARK                         _______ _______ _______ _____ _____    ______ ____
ROOT
ATOM      1  C   UNL     1       5.962   4.852  18.688  0.00  0.00    +0.000 C 
ATOM      2  C   UNL     1       4.709   4.753  17.797  0.00  0.00    +0.000 C 
ENDROOT
BRANCH   2   3
ATOM      3  C   UNL     1       3.723   5.905  18.026  0.00  0.00    +0.000 A 
ATOM      4  C   UNL     1       3.953   7.135  17.367  0.00  0.00    +0.000 A 
ATOM      5  C   UNL     1       3.209   8.274  17.666  0.00  0.00    +0.000 A 
ATOM      6  C   UNL     1       2.197   8.201  18.608  0.00  0.00    +0.000 A 
ATOM      7  C   UNL     1       1.912   6.982  19.228  0.00  0.00    +0.000 A 
ATOM      8  C   UNL     1       2.643   5.808  18.951  0.00  0.00    +0.000 A 
BRANCH   8   9
ATOM      9  N   UNL     1       2.352   4.618  19.615  0.00  0.00    +0.000 N 
ATOM     10  C   UNL     1       2.180   4.576  21.080  0.00  0.00    +0.000 C 
ATOM     11  C   UNL     1       2.444   3.132  21.553  0.00  0.00    +0.000 C 
ATOM     12  O   UNL     1       1.594   2.177  20.889  0.00  0.00    +0.000 OA
ATOM     13  C   UNL     1       1.753   2.268  19.457  0.00  0.00    +0.000 C 
ATOM     14  C   UNL     1       1.410   3.681  18.965  0.00  0.00    +0.000 C 
ENDBRANCH   8   9
ENDBRANCH   2   3
BRANCH   2  15
ATOM     15  N   UNL     1       5.095   4.643  16.393  0.00  0.00    +0.000 N 
ATOM     16  C   UNL     1       6.332   5.053  15.962  0.00  0.00    +0.000 C 
ATOM     17  O   UNL     1       7.156   5.608  16.683  0.00  0.00    +0.000 OA
ATOM     18  H   UNL     1       4.517   4.103  15.758  0.00  0.00    +0.000 HD
BRANCH  16  19
ATOM     19  C   UNL     1       6.628   4.738  14.520  0.00  0.00    +0.000 C 
ATOM     20  C   UNL     1       5.783   3.916  13.879  0.00  0.00    +0.000 C 
ATOM     21  C   UNL     1       5.974   3.489  12.464  0.00  0.00    +0.000 C 
ATOM     22  C   UNL     1       7.352   3.891  11.954  0.00  0.00    +0.000 C 
ATOM     23  C   UNL     1       7.717   5.269  12.490  0.00  0.00    +0.000 C 
ATOM     24  O   UNL     1       7.743   5.310  13.925  0.00  0.00    +0.000 OA
ENDBRANCH  16  19
ENDBRANCH   2  15
TORSDOF 4
ENDMDL
MODEL 3
REMARK VINA RESULT:      -7.2      1.624      1.857
REMARK  Name = 
REMARK  5 active torsions:
REMARK  status: ('A' for Active; 'I' for Inactive)
REMARK    1  A    between atoms: C_1  and  C_2
REMARK    2  A    between atoms: C_2  and  N_3
REMARK    3  A    between atoms: C_2  and  C_12
REMARK    4  A    between atoms: C_4  and  C_6
REMARK    5  A    between atoms: C_17  and  N_18
REMARK                            x       y       z     vdW  Elec       q    Type
REMARK                         _______ _______ _______ _____ _____    ______ ____
ROOT
ATOM      1  C   UNL     1       6.165   5.320  19.269  0.00  0.00    +0.000 C 
ATOM      2  C   UNL     1       5.130   5.027  18.166  0.00  0.00    +0.000 C 
ENDROOT
BRANCH   2   3
ATOM      3  C   UNL     1       3.995   6.057  18.125  0.00  0.00    +0.000 A 
ATOM      4  C   UNL     1       4.217   7.282  17.456  0.00  0.00    +0.000 A 
ATOM      5  C   UNL     1       3.304   8.332  17.532  0.00  0.00    +0.000 A 
ATOM      6  C   UNL     1       2.134   8.169  18.254  0.00  0.00    +0.000 A 
ATOM      7  C   UNL     1       1.866   6.945  18.874  0.00  0.00    +0.000 A 
ATOM      8  C   UNL     1       2.765   5.860  18.817  0.00  0.00    +0.000 A 
BRANCH   8   9
ATOM      9  N   UNL     1       2.479   4.667  19.477  0.00  0.00    +0.000 N 
ATOM     10  C   UNL     1       2.109   4.646  20.906  0.00  0.00    +0.000 C 
ATOM     11  C   UNL     1       2.417   3.241  21.461  0.00  0.00    +0.000 C 
ATOM     12  O   UNL     1       1.744   2.204  20.721  0.00  0.00    +0.000 OA
ATOM     13  C   UNL     1       2.093   2.272  19.322  0.00  0.00    +0.000 C 
ATOM     14  C   UNL     1       1.713   3.641  18.739  0.00  0.00    +0.000 C 
ENDBRANCH   8   9
ENDBRANCH   2   3
BRANCH   2  15
ATOM     15  N   UNL     1       5.793   4.901  16.871  0.00  0.00    +0.000 N 
ATOM     16  C   UNL     1       5.239   4.158  15.858  0.00  0.00    +0.000 C 
ATOM     17  O   UNL     1       4.216   3.491  15.983  0.00  0.00    +0.000 OA
ATOM     18  H   UNL     1       6.580   5.502  16.654  0.00  0.00    +0.000 HD
BRANCH  16  19
ATOM     19  C   UNL     1       5.969   4.249  14.545  0.00  0.00    +0.000 C 
ATOM     20  C   UNL     1       7.119   4.939  14.521  0.00  0.00    +0.000 C 
ATOM     21  C   UNL     1       7.926   5.142  13.284  0.00  0.00    +0.000 C 
ATOM     22  C   UNL     1       7.152   4.697  12.050  0.00  0.00    +0.000 C 
ATOM     23  C   UNL     1       6.368   3.430  12.363  0.00  0.00    +0.000 C 
ATOM     24  O   UNL     1       5.429   3.616  13.434  0.00  0.00    +0.000 OA
ENDBRANCH  16  19
ENDBRANCH   2  15
TORSDOF 4
ENDMDL
MODEL 4
REMARK VINA RESULT:      -7.0      0.469      1.091
REMARK  Name = 
REMARK  5 active torsions:
REMARK  status: ('A' for Active; 'I' for Inactive)
REMARK    1  A    between atoms: C_1  and  C_2
REMARK    2  A    between atoms: C_2  and  N_3
REMARK    3  A    between atoms: C_2  and  C_12
REMARK    4  A    between atoms: C_4  and  C_6
REMARK    5  A    between atoms: C_17  and  N_18
REMARK                            x       y       z     vdW  Elec       q    Type
REMARK                         _______ _______ _______ _____ _____    ______ ____
ROOT
ATOM      1  C   UNL     1       6.707   7.145  17.622  0.00  0.00    +0.000 C 
ATOM      2  C   UNL     1       5.633   6.091  17.290  0.00  0.00    +0.000 C 
ENDROOT
BRANCH   2   3
ATOM      3  C   UNL     1       4.211   6.564  17.620  0.00  0.00    +0.000 A 
ATOM      4  C   UNL     1       3.891   7.928  17.432  0.00  0.00    +0.000 A 
ATOM      5  C   UNL     1       2.685   8.463  17.879  0.00  0.00    +0.000 A 
ATOM      6  C   UNL     1       1.759   7.638  18.495  0.00  0.00    +0.000 A 
ATOM      7  C   UNL     1       2.029   6.275  18.637  0.00  0.00    +0.000 A 
ATOM      8  C   UNL     1       3.238   5.698  18.196  0.00  0.00    +0.000 A 
BRANCH   8   9
ATOM      9  N   UNL     1       3.487   4.340  18.386  0.00  0.00    +0.000 N 
ATOM     10  C   UNL     1       3.367   3.373  17.278  0.00  0.00    +0.000 C 
ATOM     11  C   UNL     1       3.134   1.974  17.884  0.00  0.00    +0.000 C 
ATOM     12  O   UNL     1       4.174   1.601  18.808  0.00  0.00    +0.000 OA
ATOM     13  C   UNL     1       4.296   2.584  19.858  0.00  0.00    +0.000 C 
ATOM     14  C   UNL     1       4.612   3.965  19.269  0.00  0.00    +0.000 C 
ENDBRANCH   8   9
ENDBRANCH   2   3
BRANCH   2  15
ATOM     15  N   UNL     1       5.753   5.670  15.897  0.00  0.00    +0.000 N 
ATOM     16  C   UNL     1       6.839   4.952  15.463  0.00  0.00    +0.000 C 
ATOM     17  O   UNL     1       7.808   4.687  16.169  0.00  0.00    +0.000 OA
ATOM     18  H   UNL     1       4.953   5.756  15.280  0.00  0.00    +0.000 HD
BRANCH  16  19
ATOM     19  C   UNL     1       6.743   4.470  14.041  0.00  0.00    +0.000 C 
ATOM     20  C   UNL     1       5.681   3.718  13.711  0.00  0.00    +0.000 C 
ATOM     21  C   UNL     1       5.477   3.142  12.352  0.00  0.00    +0.000 C 
ATOM     22  C   UNL     1       6.728   3.302  11.498  0.00  0.00    +0.000 C 
ATOM     23  C   UNL     1       7.365   4.658  11.768  0.00  0.00    +0.000 C 
ATOM     24  O   UNL     1       7.740   4.825  13.144  0.00  0.00    +0.000 OA
ENDBRANCH  16  19
ENDBRANCH   2  15
TORSDOF 4
ENDMDL
MODEL 5
REMARK VINA RESULT:      -7.0      3.173      6.247
REMARK  Name = 
REMARK  5 active torsions:
REMARK  status: ('A' for Active; 'I' for Inactive)
REMARK    1  A    between atoms: C_1  and  C_2
REMARK    2  A    between atoms: C_2  and  N_3
REMARK    3  A    between atoms: C_2  and  C_12
REMARK    4  A    between atoms: C_4  and  C_6
REMARK    5  A    between atoms: C_17  and  N_18
REMARK                            x       y       z     vdW  Elec       q    Type
REMARK                         _______ _______ _______ _____ _____    ______ ____
ROOT
ATOM      1  C   UNL     1       4.838   6.937  15.371  0.00  0.00    +0.000 C 
ATOM      2  C   UNL     1       4.435   6.564  16.811  0.00  0.00    +0.000 C 
ENDROOT
BRANCH   2   3
ATOM      3  C   UNL     1       5.642   6.256  17.706  0.00  0.00    +0.000 A 
ATOM      4  C   UNL     1       6.727   7.163  17.715  0.00  0.00    +0.000 A 
ATOM      5  C   UNL     1       7.925   6.862  18.359  0.00  0.00    +0.000 A 
ATOM      6  C   UNL     1       8.055   5.660  19.034  0.00  0.00    +0.000 A 
ATOM      7  C   UNL     1       6.975   4.775  19.089  0.00  0.00    +0.000 A 
ATOM      8  C   UNL     1       5.747   5.046  18.451  0.00  0.00    +0.000 A 
BRANCH   8   9
ATOM      9  N   UNL     1       4.703   4.124  18.499  0.00  0.00    +0.000 N 
ATOM     10  C   UNL     1       4.316   3.338  17.312  0.00  0.00    +0.000 C 
ATOM     11  C   UNL     1       2.855   2.879  17.496  0.00  0.00    +0.000 C 
ATOM     12  O   UNL     1       2.669   2.132  18.714  0.00  0.00    +0.000 OA
ATOM     13  C   UNL     1       3.093   2.908  19.854  0.00  0.00    +0.000 C 
ATOM     14  C   UNL     1       4.571   3.299  19.719  0.00  0.00    +0.000 C 
ENDBRANCH   8   9
ENDBRANCH   2   3
BRANCH   2  15
ATOM     15  N   UNL     1       3.588   7.605  17.384  0.00  0.00    +0.000 N 
ATOM     16  C   UNL     1       2.547   7.292  18.223  0.00  0.00    +0.000 C 
ATOM     17  O   UNL     1       2.202   6.143  18.482  0.00  0.00    +0.000 OA
ATOM     18  H   UNL     1       3.870   8.576  17.306  0.00  0.00    +0.000 HD
BRANCH  16  19
ATOM     19  C   UNL     1       1.865   8.481  18.844  0.00  0.00    +0.000 C 
ATOM     20  C   UNL     1       1.666   9.558  18.067  0.00  0.00    +0.000 C 
ATOM     21  C   UNL     1       1.038  10.817  18.560  0.00  0.00    +0.000 C 
ATOM     22  C   UNL     1       0.902  10.801  20.076  0.00  0.00    +0.000 C 
ATOM     23  C   UNL     1       0.506   9.406  20.543  0.00  0.00    +0.000 C 
ATOM     24  O   UNL     1       1.471   8.409  20.172  0.00  0.00    +0.000 OA
ENDBRANCH  16  19
ENDBRANCH   2  15
TORSDOF 4
ENDMDL
MODEL 6
REMARK VINA RESULT:      -6.9      0.950      1.255
REMARK  Name = 
REMARK  5 active torsions:
REMARK  status: ('A' for Active; 'I' for Inactive)
REMARK    1  A    between atoms: C_1  and  C_2
REMARK    2  A    between atoms: C_2  and  N_3
REMARK    3  A    between atoms: C_2  and  C_12
REMARK    4  A    between atoms: C_4  and  C_6
REMARK    5  A    between atoms: C_17  and  N_18
REMARK                            x       y       z     vdW  Elec       q    Type
REMARK                         _______ _______ _______ _____ _____    ______ ____
ROOT
ATOM      1  C   UNL     1       7.025   6.247  18.513  0.00  0.00    +0.000 C 
ATOM      2  C   UNL     1       5.976   5.499  17.669  0.00  0.00    +0.000 C 
ENDROOT
BRANCH   2   3
ATOM      3  C   UNL     1       4.586   6.144  17.736  0.00  0.00    +0.000 A 
ATOM      4  C   UNL     1       4.458   7.511  17.400  0.00  0.00    +0.000 A 
ATOM      5  C   UNL     1       3.269   8.206  17.611  0.00  0.00    +0.000 A 
ATOM      6  C   UNL     1       2.172   7.541  18.134  0.00  0.00    +0.000 A 
ATOM      7  C   UNL     1       2.258   6.176  18.416  0.00  0.00    +0.000 A 
ATOM      8  C   UNL     1       3.444   5.439  18.215  0.00  0.00    +0.000 A 
BRANCH   8   9
ATOM      9  N   UNL     1       3.503   4.085  18.541  0.00  0.00    +0.000 N 
ATOM     10  C   UNL     1       3.807   3.637  19.914  0.00  0.00    +0.000 C 
ATOM     11  C   UNL     1       4.354   2.197  19.838  0.00  0.00    +0.000 C 
ATOM     12  O   UNL     1       3.441   1.302  19.174  0.00  0.00    +0.000 OA
ATOM     13  C   UNL     1       3.130   1.785  17.850  0.00  0.00    +0.000 C 
ATOM     14  C   UNL     1       2.506   3.186  17.921  0.00  0.00    +0.000 C 
ENDBRANCH   8   9
ENDBRANCH   2   3
BRANCH   2  15
ATOM     15  N   UNL     1       6.442   5.359  16.292  0.00  0.00    +0.000 N 
ATOM     16  C   UNL     1       6.160   4.234  15.557  0.00  0.00    +0.000 C 
ATOM     17  O   UNL     1       5.585   3.249  16.012  0.00  0.00    +0.000 OA
ATOM     18  H   UNL     1       6.827   6.165  15.812  0.00  0.00    +0.000 HD
BRANCH  16  19
ATOM     19  C   UNL     1       6.582   4.307  14.115  0.00  0.00    +0.000 C 
ATOM     20  C   UNL     1       7.538   5.192  13.792  0.00  0.00    +0.000 C 
ATOM     21  C   UNL     1       8.026   5.398  12.399  0.00  0.00    +0.000 C 
ATOM     22  C   UNL     1       7.133   4.678  11.397  0.00  0.00    +0.000 C 
ATOM     23  C   UNL     1       6.702   3.333  11.964  0.00  0.00    +0.000 C 
ATOM     24  O   UNL     1       5.975   3.463  13.195  0.00  0.00    +0.000 OA
ENDBRANCH  16  19
ENDBRANCH   2  15
TORSDOF 4
ENDMDL
MODEL 7
REMARK VINA RESULT:      -6.8      3.145      6.175
REMARK  Name = 
REMARK  5 active torsions:
REMARK  status: ('A' for Active; 'I' for Inactive)
REMARK    1  A    between atoms: C_1  and  C_2
REMARK    2  A    between atoms: C_2  and  N_3
REMARK    3  A    between atoms: C_2  and  C_12
REMARK    4  A    between atoms: C_4  and  C_6
REMARK    5  A    between atoms: C_17  and  N_18
REMARK                            x       y       z     vdW  Elec       q    Type
REMARK                         _______ _______ _______ _____ _____    ______ ____
ROOT
ATOM      1  C   UNL     1       4.912   6.904  15.337  0.00  0.00    +0.000 C 
ATOM      2  C   UNL     1       4.482   6.555  16.775  0.00  0.00    +0.000 C 
ENDROOT
BRANCH   2   3
ATOM      3  C   UNL     1       5.671   6.260  17.698  0.00  0.00    +0.000 A 
ATOM      4  C   UNL     1       6.756   7.165  17.713  0.00  0.00    +0.000 A 
ATOM      5  C   UNL     1       7.942   6.873  18.383  0.00  0.00    +0.000 A 
ATOM      6  C   UNL     1       8.057   5.681  19.079  0.00  0.00    +0.000 A 
ATOM      7  C   UNL     1       6.975   4.799  19.128  0.00  0.00    +0.000 A 
ATOM      8  C   UNL     1       5.759   5.061  18.463  0.00  0.00    +0.000 A 
BRANCH   8   9
ATOM      9  N   UNL     1       4.714   4.141  18.505  0.00  0.00    +0.000 N 
ATOM     10  C   UNL     1       4.339   3.347  17.319  0.00  0.00    +0.000 C 
ATOM     11  C   UNL     1       2.875   2.891  17.489  0.00  0.00    +0.000 C 
ATOM     12  O   UNL     1       2.674   2.153  18.710  0.00  0.00    +0.000 OA
ATOM     13  C   UNL     1       3.086   2.938  19.850  0.00  0.00    +0.000 C 
ATOM     14  C   UNL     1       4.566   3.325  19.730  0.00  0.00    +0.000 C 
ENDBRANCH   8   9
ENDBRANCH   2   3
BRANCH   2  15
ATOM     15  N   UNL     1       3.625   7.606  17.316  0.00  0.00    +0.000 N 
ATOM     16  C   UNL     1       2.561   7.307  18.130  0.00  0.00    +0.000 C 
ATOM     17  O   UNL     1       2.203   6.162  18.391  0.00  0.00    +0.000 OA
ATOM     18  H   UNL     1       3.914   8.575  17.235  0.00  0.00    +0.000 HD
BRANCH  16  19
ATOM     19  C   UNL     1       1.869   8.505  18.721  0.00  0.00    +0.000 C 
ATOM     20  C   UNL     1       1.527   8.447  20.017  0.00  0.00    +0.000 C 
ATOM     21  C   UNL     1       0.804   9.544  20.723  0.00  0.00    +0.000 C 
ATOM     22  C   UNL     1       0.297  10.586  19.735  0.00  0.00    +0.000 C 
ATOM     23  C   UNL     1       1.334  10.807  18.642  0.00  0.00    +0.000 C 
ATOM     24  O   UNL     1       1.626   9.606  17.911  0.00  0.00    +0.000 OA
ENDBRANCH  16  19
ENDBRANCH   2  15
TORSDOF 4
ENDMDL
MODEL 8
REMARK VINA RESULT:      -6.7      1.305      1.734
REMARK  Name = 
REMARK  5 active torsions:
REMARK  status: ('A' for Active; 'I' for Inactive)
REMARK    1  A    between atoms: C_1  and  C_2
REMARK    2  A    between atoms: C_2  and  N_3
REMARK    3  A    between atoms: C_2  and  C_12
REMARK    4  A    between atoms: C_4  and  C_6
REMARK    5  A    between atoms: C_17  and  N_18
REMARK                            x       y       z     vdW  Elec       q    Type
REMARK                         _______ _______ _______ _____ _____    ______ ____
ROOT
ATOM      1  C   UNL     1       5.914   4.834  18.614  0.00  0.00    +0.000 C 
ATOM      2  C   UNL     1       4.666   4.747  17.715  0.00  0.00    +0.000 C 
ENDROOT
BRANCH   2   3
ATOM      3  C   UNL     1       3.704   5.925  17.915  0.00  0.00    +0.000 A 
ATOM      4  C   UNL     1       4.042   7.178  17.354  0.00  0.00    +0.000 A 
ATOM      5  C   UNL     1       3.314   8.329  17.645  0.00  0.00    +0.000 A 
ATOM      6  C   UNL     1       2.212   8.247  18.480  0.00  0.00    +0.000 A 
ATOM      7  C   UNL     1       1.824   7.009  18.997  0.00  0.00    +0.000 A 
ATOM      8  C   UNL     1       2.535   5.822  18.723  0.00  0.00    +0.000 A 
BRANCH   8   9
ATOM      9  N   UNL     1       2.138   4.611  19.286  0.00  0.00    +0.000 N 
ATOM     10  C   UNL     1       1.852   3.430  18.448  0.00  0.00    +0.000 C 
ATOM     11  C   UNL     1       0.926   2.489  19.245  0.00  0.00    +0.000 C 
ATOM     12  O   UNL     1       1.493   2.116  20.516  0.00  0.00    +0.000 OA
ATOM     13  C   UNL     1       1.800   3.290  21.298  0.00  0.00    +0.000 C 
ATOM     14  C   UNL     1       2.788   4.194  20.547  0.00  0.00    +0.000 C 
ENDBRANCH   8   9
ENDBRANCH   2   3
BRANCH   2  15
ATOM     15  N   UNL     1       5.060   4.603  16.316  0.00  0.00    +0.000 N 
ATOM     16  C   UNL     1       6.248   5.115  15.856  0.00  0.00    +0.000 C 
ATOM     17  O   UNL     1       7.011   5.789  16.542  0.00  0.00    +0.000 OA
ATOM     18  H   UNL     1       4.541   3.973  15.715  0.00  0.00    +0.000 HD
BRANCH  16  19
ATOM     19  C   UNL     1       6.574   4.755  14.432  0.00  0.00    +0.000 C 
ATOM     20  C   UNL     1       5.752   3.901  13.804  0.00  0.00    +0.000 C 
ATOM     21  C   UNL     1       5.974   3.429  12.407  0.00  0.00    +0.000 C 
ATOM     22  C   UNL     1       7.355   3.832  11.909  0.00  0.00    +0.000 C 
ATOM     23  C   UNL     1       7.694   5.231  12.405  0.00  0.00    +0.000 C 
ATOM     24  O   UNL     1       7.694   5.321  13.838  0.00  0.00    +0.000 OA
ENDBRANCH  16  19
ENDBRANCH   2  15
TORSDOF 4
ENDMDL
MODEL 9
REMARK VINA RESULT:      -6.7      3.070      7.113
REMARK  Name = 
REMARK  5 active torsions:
REMARK  status: ('A' for Active; 'I' for Inactive)
REMARK    1  A    between atoms: C_1  and  C_2
REMARK    2  A    between atoms: C_2  and  N_3
REMARK    3  A    between atoms: C_2  and  C_12
REMARK    4  A    between atoms: C_4  and  C_6
REMARK    5  A    between atoms: C_17  and  N_18
REMARK                            x       y       z     vdW  Elec       q    Type
REMARK                         _______ _______ _______ _____ _____    ______ ____
ROOT
ATOM      1  C   UNL     1       4.768   6.795  17.950  0.00  0.00    +0.000 C 
ATOM      2  C   UNL     1       3.264   6.538  17.734  0.00  0.00    +0.000 C 
ENDROOT
BRANCH   2   3
ATOM      3  C   UNL     1       2.902   5.048  17.767  0.00  0.00    +0.000 A 
ATOM      4  C   UNL     1       1.647   4.667  18.294  0.00  0.00    +0.000 A 
ATOM      5  C   UNL     1       1.326   3.331  18.523  0.00  0.00    +0.000 A 
ATOM      6  C   UNL     1       2.242   2.344  18.201  0.00  0.00    +0.000 A 
ATOM      7  C   UNL     1       3.465   2.693  17.623  0.00  0.00    +0.000 A 
ATOM      8  C   UNL     1       3.824   4.034  17.376  0.00  0.00    +0.000 A 
BRANCH   8   9
ATOM      9  N   UNL     1       5.068   4.347  16.830  0.00  0.00    +0.000 N 
ATOM     10  C   UNL     1       6.323   4.000  17.525  0.00  0.00    +0.000 C 
ATOM     11  C   UNL     1       7.433   4.936  17.007  0.00  0.00    +0.000 C 
ATOM     12  O   UNL     1       7.580   4.867  15.576  0.00  0.00    +0.000 OA
ATOM     13  C   UNL     1       6.329   5.171  14.923  0.00  0.00    +0.000 C 
ATOM     14  C   UNL     1       5.236   4.190  15.370  0.00  0.00    +0.000 C 
ENDBRANCH   8   9
ENDBRANCH   2   3
BRANCH   2  15
ATOM     15  N   UNL     1       2.477   7.306  18.695  0.00  0.00    +0.000 N 
ATOM     16  C   UNL     1       1.988   8.550  18.381  0.00  0.00    +0.000 C 
ATOM     17  O   UNL     1       2.238   9.135  17.330  0.00  0.00    +0.000 OA
ATOM     18  H   UNL     1       2.140   6.854  19.538  0.00  0.00    +0.000 HD
BRANCH  16  19
ATOM     19  C   UNL     1       1.078   9.146  19.420  0.00  0.00    +0.000 C 
ATOM     20  C   UNL     1       0.278  10.154  19.039  0.00  0.00    +0.000 C 
ATOM     21  C   UNL     1      -0.647  10.862  19.970  0.00  0.00    +0.000 C 
ATOM     22  C   UNL     1      -0.370  10.468  21.416  0.00  0.00    +0.000 C 
ATOM     23  C   UNL     1      -0.048   8.983  21.493  0.00  0.00    +0.000 C 
ATOM     24  O   UNL     1       1.101   8.628  20.707  0.00  0.00    +0.000 OA
ENDBRANCH  16  19
ENDBRANCH   2  15
TORSDOF 4
ENDMDL
