MODEL 1
REMARK VINA RESULT:      -6.6      0.000      0.000
REMARK  Name = 
REMARK  7 active torsions:
REMARK  status: ('A' for Active; 'I' for Inactive)
REMARK    1  A    between atoms: C_2  and  O_3
REMARK    2  A    between atoms: C_2  and  C_4
REMARK    3  A    between atoms: C_4  and  C_5
REMARK    4  A    between atoms: C_5  and  C_6
REMARK    5  A    between atoms: N_8  and  C_9
REMARK    6  A    between atoms: C_9  and  C_10
REMARK    7  A    between atoms: C_10  and  C_11
REMARK                            x       y       z     vdW  Elec       q    Type
REMARK                         _______ _______ _______ _____ _____    ______ ____
ROOT
ATOM      1  C   UNL     1       5.716   6.457  16.667  0.00  0.00    +0.000 C 
ATOM      2  O   UNL     1       5.364   6.834  15.554  0.00  0.00    +0.000 OA
ATOM      3  N   UNL     1       4.924   6.536  17.791  0.00  0.00    +0.000 N 
ATOM      4  H   UNL     1       5.387   6.486  18.698  0.00  0.00    +0.000 HD
ENDROOT
BRANCH   1   5
ATOM      5  C   UNL     1       7.105   5.907  16.915  0.00  0.00    +0.000 C 
BRANCH   5   6
ATOM      6  C   UNL     1       7.128   4.999  18.136  0.00  0.00    +0.000 C 
BRANCH   6   8
ATOM      7  O   UNL     1       7.789   5.208  20.455  0.00  0.00    +0.000 OA
ATOM      8  C   UNL     1       7.768   5.676  19.322  0.00  0.00    +0.000 C 
BRANCH   8   9
ATOM      9  O   UNL     1       8.351   6.852  19.015  0.00  0.00    +0.000 OA
ATOM     10  H   UNL     1       9.242   6.974  19.398  0.00  0.00    +0.000 HD
ENDBRANCH   8   9
ENDBRANCH   6   8
ENDBRANCH   5   6
ENDBRANCH   1   5
BRANCH   3  11
ATOM     11  C   UNL     1       3.603   7.127  17.712  0.00  0.00    +0.000 C 
BRANCH  11  12
ATOM     12  C   UNL     1       2.767   6.887  18.970  0.00  0.00    +0.000 C 
BRANCH  12  13
ATOM     13  C   UNL     1       2.286   5.456  19.037  0.00  0.00    +0.000 A 
ATOM     14  C   UNL     1       1.821   4.809  17.884  0.00  0.00    +0.000 A 
ATOM     15  C   UNL     1       1.320   3.507  17.953  0.00  0.00    +0.000 A 
ATOM     16  C   UNL     1       1.274   2.840  19.176  0.00  0.00    +0.000 A 
ATOM     17  C   UNL     1       1.735   3.476  20.326  0.00  0.00    +0.000 A 
ATOM     18 CL   UNL     1       1.666   2.660  21.839  0.00  0.00    +0.000 Cl
ATOM     19  C   UNL     1       2.239   4.776  20.264  0.00  0.00    +0.000 A 
ENDBRANCH  12  13
ENDBRANCH  11  12
ENDBRANCH   3  11
TORSDOF 7
ENDMDL
MODEL 2
REMARK VINA RESULT:      -6.6      1.904      3.063
REMARK  Name = 
REMARK  7 active torsions:
REMARK  status: ('A' for Active; 'I' for Inactive)
REMARK    1  A    between atoms: C_2  and  O_3
REMARK    2  A    between atoms: C_2  and  C_4
REMARK    3  A    between atoms: C_4  and  C_5
REMARK    4  A    between atoms: C_5  and  C_6
REMARK    5  A    between atoms: N_8  and  C_9
REMARK    6  A    between atoms: C_9  and  C_10
REMARK    7  A    between atoms: C_10  and  C_11
REMARK                            x       y       z     vdW  Elec       q    Type
REMARK                         _______ _______ _______ _____ _____    ______ ____
ROOT
ATOM      1  C   UNL     1       5.955   5.000  17.868  0.00  0.00    +0.000 C 
ATOM      2  O   UNL     1       5.870   4.327  18.890  0.00  0.00    +0.000 OA
ATOM      3  N   UNL     1       5.169   6.099  17.604  0.00  0.00    +0.000 N 
ATOM      4  H   UNL     1       5.096   6.405  16.634  0.00  0.00    +0.000 HD
ENDROOT
BRANCH   1   5
ATOM      5  C   UNL     1       6.921   4.639  16.760  0.00  0.00    +0.000 C 
BRANCH   5   6
ATOM      6  C   UNL     1       6.229   3.838  15.665  0.00  0.00    +0.000 C 
BRANCH   6   8
ATOM      7  O   UNL     1       7.184   5.372  14.054  0.00  0.00    +0.000 OA
ATOM      8  C   UNL     1       6.649   4.295  14.290  0.00  0.00    +0.000 C 
BRANCH   8   9
ATOM      9  O   UNL     1       6.404   3.384  13.326  0.00  0.00    +0.000 OA
ATOM     10  H   UNL     1       6.245   3.765  12.441  0.00  0.00    +0.000 HD
ENDBRANCH   8   9
ENDBRANCH   6   8
ENDBRANCH   5   6
ENDBRANCH   1   5
BRANCH   3  11
ATOM     11  C   UNL     1       4.139   6.501  18.543  0.00  0.00    +0.000 C 
BRANCH  11  12
ATOM     12  C   UNL     1       2.736   6.082  18.102  0.00  0.00    +0.000 C 
BRANCH  12  13
ATOM     13  C   UNL     1       2.457   4.645  18.475  0.00  0.00    +0.000 A 
ATOM     14  C   UNL     1       2.517   3.635  17.506  0.00  0.00    +0.000 A 
ATOM     15  C   UNL     1       2.203   2.315  17.834  0.00  0.00    +0.000 A 
ATOM     16  C   UNL     1       1.820   1.990  19.135  0.00  0.00    +0.000 A 
ATOM     17  C   UNL     1       1.758   2.988  20.104  0.00  0.00    +0.000 A 
ATOM     18 CL   UNL     1       1.272   2.593  21.707  0.00  0.00    +0.000 Cl
ATOM     19  C   UNL     1       2.074   4.309  19.784  0.00  0.00    +0.000 A 
ENDBRANCH  12  13
ENDBRANCH  11  12
ENDBRANCH   3  11
TORSDOF 7
ENDMDL
MODEL 3
REMARK VINA RESULT:      -6.6      2.730      3.933
REMARK  Name = 
REMARK  7 active torsions:
REMARK  status: ('A' for Active; 'I' for Inactive)
REMARK    1  A    between atoms: C_2  and  O_3
REMARK    2  A    between atoms: C_2  and  C_4
REMARK    3  A    between atoms: C_4  and  C_5
REMARK    4  A    between atoms: C_5  and  C_6
REMARK    5  A    between atoms: N_8  and  C_9
REMARK    6  A    between atoms: C_9  and  C_10
REMARK    7  A    between atoms: C_10  and  C_11
REMARK                            x       y       z     vdW  Elec       q    Type
REMARK                         _______ _______ _______ _____ _____    ______ ____
ROOT
ATOM      1  C   UNL     1       6.905   4.834  16.112  0.00  0.00    +0.000 C 
ATOM      2  O   UNL     1       7.920   4.417  16.661  0.00  0.00    +0.000 OA
ATOM      3  N   UNL     1       5.736   5.127  16.778  0.00  0.00    +0.000 N 
ATOM      4  H   UNL     1       4.879   5.173  16.227  0.00  0.00    +0.000 HD
ENDROOT
BRANCH   1   5
ATOM      5  C   UNL     1       6.835   5.016  14.610  0.00  0.00    +0.000 C 
BRANCH   5   6
ATOM      6  C   UNL     1       6.029   3.902  13.958  0.00  0.00    +0.000 C 
BRANCH   6   8
ATOM      7  O   UNL     1       7.345   4.281  11.962  0.00  0.00    +0.000 OA
ATOM      8  C   UNL     1       6.515   3.607  12.560  0.00  0.00    +0.000 C 
BRANCH   8   9
ATOM      9  O   UNL     1       5.964   2.497  12.027  0.00  0.00    +0.000 OA
ATOM     10  H   UNL     1       5.762   2.565  11.073  0.00  0.00    +0.000 HD
ENDBRANCH   8   9
ENDBRANCH   6   8
ENDBRANCH   5   6
ENDBRANCH   1   5
BRANCH   3  11
ATOM     11  C   UNL     1       5.638   4.910  18.208  0.00  0.00    +0.000 C 
BRANCH  11  12
ATOM     12  C   UNL     1       4.432   5.612  18.835  0.00  0.00    +0.000 C 
BRANCH  12  13
ATOM     13  C   UNL     1       3.265   4.662  18.976  0.00  0.00    +0.000 A 
ATOM     14  C   UNL     1       2.438   4.386  17.880  0.00  0.00    +0.000 A 
ATOM     15  C   UNL     1       1.324   3.555  18.020  0.00  0.00    +0.000 A 
ATOM     16  C   UNL     1       1.023   2.995  19.261  0.00  0.00    +0.000 A 
ATOM     17  C   UNL     1       1.842   3.264  20.356  0.00  0.00    +0.000 A 
ATOM     18 CL   UNL     1       1.464   2.584  21.891  0.00  0.00    +0.000 Cl
ATOM     19  C   UNL     1       2.958   4.091  20.221  0.00  0.00    +0.000 A 
ENDBRANCH  12  13
ENDBRANCH  11  12
ENDBRANCH   3  11
TORSDOF 7
ENDMDL
MODEL 4
REMARK VINA RESULT:      -6.5      2.813      4.128
REMARK  Name = 
REMARK  7 active torsions:
REMARK  status: ('A' for Active; 'I' for Inactive)
REMARK    1  A    between atoms: C_2  and  O_3
REMARK    2  A    between atoms: C_2  and  C_4
REMARK    3  A    between atoms: C_4  and  C_5
REMARK    4  A    between atoms: C_5  and  C_6
REMARK    5  A    between atoms: N_8  and  C_9
REMARK    6  A    between atoms: C_9  and  C_10
REMARK    7  A    between atoms: C_10  and  C_11
REMARK                            x       y       z     vdW  Elec       q    Type
REMARK                         _______ _______ _______ _____ _____    ______ ____
ROOT
ATOM      1  C   UNL     1       5.806   5.340  15.621  0.00  0.00    +0.000 C 
ATOM      2  O   UNL     1       5.523   6.444  15.168  0.00  0.00    +0.000 OA
ATOM      3  N   UNL     1       5.605   4.971  16.932  0.00  0.00    +0.000 N 
ATOM      4  H   UNL     1       6.132   4.172  17.283  0.00  0.00    +0.000 HD
ENDROOT
BRANCH   1   5
ATOM      5  C   UNL     1       6.467   4.280  14.765  0.00  0.00    +0.000 C 
BRANCH   5   6
ATOM      6  C   UNL     1       5.568   3.865  13.609  0.00  0.00    +0.000 C 
BRANCH   6   8
ATOM      7  O   UNL     1       7.227   4.170  11.872  0.00  0.00    +0.000 OA
ATOM      8  C   UNL     1       6.369   3.467  12.394  0.00  0.00    +0.000 C 
BRANCH   8   9
ATOM      9  O   UNL     1       6.071   2.233  11.939  0.00  0.00    +0.000 OA
ATOM     10  H   UNL     1       6.688   1.534  12.234  0.00  0.00    +0.000 HD
ENDBRANCH   8   9
ENDBRANCH   6   8
ENDBRANCH   5   6
ENDBRANCH   1   5
BRANCH   3  11
ATOM     11  C   UNL     1       5.063   5.924  17.882  0.00  0.00    +0.000 C 
BRANCH  11  12
ATOM     12  C   UNL     1       3.602   6.278  17.601  0.00  0.00    +0.000 C 
BRANCH  12  13
ATOM     13  C   UNL     1       2.678   5.571  18.565  0.00  0.00    +0.000 A 
ATOM     14  C   UNL     1       2.433   6.105  19.836  0.00  0.00    +0.000 A 
ATOM     15  C   UNL     1       1.627   5.425  20.751  0.00  0.00    +0.000 A 
ATOM     16  C   UNL     1       1.060   4.199  20.405  0.00  0.00    +0.000 A 
ATOM     17  C   UNL     1       1.298   3.661  19.142  0.00  0.00    +0.000 A 
ATOM     18 CL   UNL     1       0.611   2.141  18.718  0.00  0.00    +0.000 Cl
ATOM     19  C   UNL     1       2.100   4.338  18.223  0.00  0.00    +0.000 A 
ENDBRANCH  12  13
ENDBRANCH  11  12
ENDBRANCH   3  11
TORSDOF 7
ENDMDL
MODEL 5
REMARK VINA RESULT:      -6.4      2.263      3.089
REMARK  Name = 
REMARK  7 active torsions:
REMARK  status: ('A' for Active; 'I' for Inactive)
REMARK    1  A    between atoms: C_2  and  O_3
REMARK    2  A    between atoms: C_2  and  C_4
REMARK    3  A    between atoms: C_4  and  C_5
REMARK    4  A    between atoms: C_5  and  C_6
REMARK    5  A    between atoms: N_8  and  C_9
REMARK    6  A    between atoms: C_9  and  C_10
REMARK    7  A    between atoms: C_10  and  C_11
REMARK                            x       y       z     vdW  Elec       q    Type
REMARK                         _______ _______ _______ _____ _____    ______ ____
ROOT
ATOM      1  C   UNL     1       5.605   4.284  16.704  0.00  0.00    +0.000 C 
ATOM      2  O   UNL     1       5.351   3.929  15.558  0.00  0.00    +0.000 OA
ATOM      3  N   UNL     1       4.952   3.808  17.819  0.00  0.00    +0.000 N 
ATOM      4  H   UNL     1       5.012   4.362  18.673  0.00  0.00    +0.000 HD
ENDROOT
BRANCH   1   5
ATOM      5  C   UNL     1       6.648   5.343  16.992  0.00  0.00    +0.000 C 
BRANCH   5   6
ATOM      6  C   UNL     1       7.708   4.826  17.954  0.00  0.00    +0.000 C 
BRANCH   6   8
ATOM      7  O   UNL     1       7.567   5.362  20.311  0.00  0.00    +0.000 OA
ATOM      8  C   UNL     1       7.840   5.711  19.168  0.00  0.00    +0.000 C 
BRANCH   8   9
ATOM      9  O   UNL     1       8.322   6.939  18.883  0.00  0.00    +0.000 OA
ATOM     10  H   UNL     1       7.823   7.673  19.293  0.00  0.00    +0.000 HD
ENDBRANCH   8   9
ENDBRANCH   6   8
ENDBRANCH   5   6
ENDBRANCH   1   5
BRANCH   3  11
ATOM     11  C   UNL     1       3.868   2.856  17.678  0.00  0.00    +0.000 C 
BRANCH  11  12
ATOM     12  C   UNL     1       2.505   3.527  17.501  0.00  0.00    +0.000 C 
BRANCH  12  13
ATOM     13  C   UNL     1       2.364   4.717  18.421  0.00  0.00    +0.000 A 
ATOM     14  C   UNL     1       2.048   4.536  19.774  0.00  0.00    +0.000 A 
ATOM     15  C   UNL     1       1.858   5.635  20.613  0.00  0.00    +0.000 A 
ATOM     16  C   UNL     1       1.977   6.929  20.108  0.00  0.00    +0.000 A 
ATOM     17  C   UNL     1       2.292   7.118  18.764  0.00  0.00    +0.000 A 
ATOM     18 CL   UNL     1       2.426   8.714  18.135  0.00  0.00    +0.000 Cl
ATOM     19  C   UNL     1       2.486   6.023  17.920  0.00  0.00    +0.000 A 
ENDBRANCH  12  13
ENDBRANCH  11  12
ENDBRANCH   3  11
TORSDOF 7
ENDMDL
MODEL 6
REMARK VINA RESULT:      -6.3      3.567      5.673
REMARK  Name = 
REMARK  7 active torsions:
REMARK  status: ('A' for Active; 'I' for Inactive)
REMARK    1  A    between atoms: C_2  and  O_3
REMARK    2  A    between atoms: C_2  and  C_4
REMARK    3  A    between atoms: C_4  and  C_5
REMARK    4  A    between atoms: C_5  and  C_6
REMARK    5  A    between atoms: N_8  and  C_9
REMARK    6  A    between atoms: C_9  and  C_10
REMARK    7  A    between atoms: C_10  and  C_11
REMARK                            x       y       z     vdW  Elec       q    Type
REMARK                         _______ _______ _______ _____ _____    ______ ____
ROOT
ATOM      1  C   UNL     1       1.881   4.072  18.118  0.00  0.00    +0.000 C 
ATOM      2  O   UNL     1       1.040   4.143  17.228  0.00  0.00    +0.000 OA
ATOM      3  N   UNL     1       2.710   5.111  18.477  0.00  0.00    +0.000 N 
ATOM      4  H   UNL     1       3.556   4.882  18.996  0.00  0.00    +0.000 HD
ENDROOT
BRANCH   1   5
ATOM      5  C   UNL     1       2.120   2.786  18.881  0.00  0.00    +0.000 C 
BRANCH   5   6
ATOM      6  C   UNL     1       1.330   2.762  20.182  0.00  0.00    +0.000 C 
BRANCH   6   8
ATOM      7  O   UNL     1       2.261   4.572  21.491  0.00  0.00    +0.000 OA
ATOM      8  C   UNL     1       2.111   3.368  21.321  0.00  0.00    +0.000 C 
BRANCH   8   9
ATOM      9  O   UNL     1       2.617   2.449  22.169  0.00  0.00    +0.000 OA
ATOM     10  H   UNL     1       3.593   2.437  22.216  0.00  0.00    +0.000 HD
ENDBRANCH   8   9
ENDBRANCH   6   8
ENDBRANCH   5   6
ENDBRANCH   1   5
BRANCH   3  11
ATOM     11  C   UNL     1       2.648   6.373  17.763  0.00  0.00    +0.000 C 
BRANCH  11  12
ATOM     12  C   UNL     1       4.000   7.082  17.690  0.00  0.00    +0.000 C 
BRANCH  12  13
ATOM     13  C   UNL     1       5.093   6.125  17.275  0.00  0.00    +0.000 A 
ATOM     14  C   UNL     1       6.149   5.831  18.148  0.00  0.00    +0.000 A 
ATOM     15  C   UNL     1       7.191   4.993  17.747  0.00  0.00    +0.000 A 
ATOM     16  C   UNL     1       7.192   4.444  16.465  0.00  0.00    +0.000 A 
ATOM     17  C   UNL     1       6.146   4.732  15.591  0.00  0.00    +0.000 A 
ATOM     18 CL   UNL     1       6.152   4.066  14.005  0.00  0.00    +0.000 Cl
ATOM     19  C   UNL     1       5.099   5.566  15.988  0.00  0.00    +0.000 A 
ENDBRANCH  12  13
ENDBRANCH  11  12
ENDBRANCH   3  11
TORSDOF 7
ENDMDL
MODEL 7
REMARK VINA RESULT:      -6.3      2.436      3.677
REMARK  Name = 
REMARK  7 active torsions:
REMARK  status: ('A' for Active; 'I' for Inactive)
REMARK    1  A    between atoms: C_2  and  O_3
REMARK    2  A    between atoms: C_2  and  C_4
REMARK    3  A    between atoms: C_4  and  C_5
REMARK    4  A    between atoms: C_5  and  C_6
REMARK    5  A    between atoms: N_8  and  C_9
REMARK    6  A    between atoms: C_9  and  C_10
REMARK    7  A    between atoms: C_10  and  C_11
REMARK                            x       y       z     vdW  Elec       q    Type
REMARK                         _______ _______ _______ _____ _____    ______ ____
ROOT
ATOM      1  C   UNL     1       5.502   3.910  18.266  0.00  0.00    +0.000 C 
ATOM      2  O   UNL     1       5.356   3.872  19.483  0.00  0.00    +0.000 OA
ATOM      3  N   UNL     1       4.612   3.364  17.368  0.00  0.00    +0.000 N 
ATOM      4  H   UNL     1       4.950   3.176  16.424  0.00  0.00    +0.000 HD
ENDROOT
BRANCH   1   5
ATOM      5  C   UNL     1       6.730   4.530  17.634  0.00  0.00    +0.000 C 
BRANCH   5   6
ATOM      6  C   UNL     1       6.977   5.933  18.172  0.00  0.00    +0.000 C 
BRANCH   6   8
ATOM      7  O   UNL     1       7.513   8.094  17.223  0.00  0.00    +0.000 OA
ATOM      8  C   UNL     1       7.403   6.882  17.080  0.00  0.00    +0.000 C 
BRANCH   8   9
ATOM      9  O   UNL     1       7.685   6.263  15.914  0.00  0.00    +0.000 OA
ATOM     10  H   UNL     1       8.528   6.539  15.504  0.00  0.00    +0.000 HD
ENDBRANCH   8   9
ENDBRANCH   6   8
ENDBRANCH   5   6
ENDBRANCH   1   5
BRANCH   3  11
ATOM     11  C   UNL     1       3.437   2.658  17.843  0.00  0.00    +0.000 C 
BRANCH  11  12
ATOM     12  C   UNL     1       2.146   3.456  17.651  0.00  0.00    +0.000 C 
BRANCH  12  13
ATOM     13  C   UNL     1       2.161   4.718  18.482  0.00  0.00    +0.000 A 
ATOM     14  C   UNL     1       1.892   4.667  19.856  0.00  0.00    +0.000 A 
ATOM     15  C   UNL     1       1.846   5.838  20.615  0.00  0.00    +0.000 A 
ATOM     16  C   UNL     1       2.064   7.074  20.007  0.00  0.00    +0.000 A 
ATOM     17  C   UNL     1       2.332   7.133  18.641  0.00  0.00    +0.000 A 
ATOM     18 CL   UNL     1       2.587   8.658  17.887  0.00  0.00    +0.000 Cl
ATOM     19  C   UNL     1       2.383   5.966  17.878  0.00  0.00    +0.000 A 
ENDBRANCH  12  13
ENDBRANCH  11  12
ENDBRANCH   3  11
TORSDOF 7
ENDMDL
MODEL 8
REMARK VINA RESULT:      -6.3      2.850      3.985
REMARK  Name = 
REMARK  7 active torsions:
REMARK  status: ('A' for Active; 'I' for Inactive)
REMARK    1  A    between atoms: C_2  and  O_3
REMARK    2  A    between atoms: C_2  and  C_4
REMARK    3  A    between atoms: C_4  and  C_5
REMARK    4  A    between atoms: C_5  and  C_6
REMARK    5  A    between atoms: N_8  and  C_9
REMARK    6  A    between atoms: C_9  and  C_10
REMARK    7  A    between atoms: C_10  and  C_11
REMARK                            x       y       z     vdW  Elec       q    Type
REMARK                         _______ _______ _______ _____ _____    ______ ____
ROOT
ATOM      1  C   UNL     1       5.902   4.849  15.883  0.00  0.00    +0.000 C 
ATOM      2  O   UNL     1       5.939   3.819  16.548  0.00  0.00    +0.000 OA
ATOM      3  N   UNL     1       5.395   6.043  16.343  0.00  0.00    +0.000 N 
ATOM      4  H   UNL     1       5.129   6.741  15.649  0.00  0.00    +0.000 HD
ENDROOT
BRANCH   1   5
ATOM      5  C   UNL     1       6.373   4.879  14.444  0.00  0.00    +0.000 C 
BRANCH   5   6
ATOM      6  C   UNL     1       5.619   3.864  13.596  0.00  0.00    +0.000 C 
BRANCH   6   8
ATOM      7  O   UNL     1       7.208   4.200  11.800  0.00  0.00    +0.000 OA
ATOM      8  C   UNL     1       6.404   3.470  12.369  0.00  0.00    +0.000 C 
BRANCH   8   9
ATOM      9  O   UNL     1       6.158   2.208  11.960  0.00  0.00    +0.000 OA
ATOM     10  H   UNL     1       5.498   2.137  11.243  0.00  0.00    +0.000 HD
ENDBRANCH   8   9
ENDBRANCH   6   8
ENDBRANCH   5   6
ENDBRANCH   1   5
BRANCH   3  11
ATOM     11  C   UNL     1       4.826   6.129  17.674  0.00  0.00    +0.000 C 
BRANCH  11  12
ATOM     12  C   UNL     1       3.305   5.974  17.683  0.00  0.00    +0.000 C 
BRANCH  12  13
ATOM     13  C   UNL     1       2.901   4.618  18.214  0.00  0.00    +0.000 A 
ATOM     14  C   UNL     1       2.639   3.561  17.333  0.00  0.00    +0.000 A 
ATOM     15  C   UNL     1       2.209   2.323  17.816  0.00  0.00    +0.000 A 
ATOM     16  C   UNL     1       2.032   2.131  19.186  0.00  0.00    +0.000 A 
ATOM     17  C   UNL     1       2.291   3.178  20.068  0.00  0.00    +0.000 A 
ATOM     18 CL   UNL     1       2.060   2.947  21.757  0.00  0.00    +0.000 Cl
ATOM     19  C   UNL     1       2.724   4.416  19.591  0.00  0.00    +0.000 A 
ENDBRANCH  12  13
ENDBRANCH  11  12
ENDBRANCH   3  11
TORSDOF 7
ENDMDL
MODEL 9
REMARK VINA RESULT:      -6.3      1.965      3.210
REMARK  Name = 
REMARK  7 active torsions:
REMARK  status: ('A' for Active; 'I' for Inactive)
REMARK    1  A    between atoms: C_2  and  O_3
REMARK    2  A    between atoms: C_2  and  C_4
REMARK    3  A    between atoms: C_4  and  C_5
REMARK    4  A    between atoms: C_5  and  C_6
REMARK    5  A    between atoms: N_8  and  C_9
REMARK    6  A    between atoms: C_9  and  C_10
REMARK    7  A    between atoms: C_10  and  C_11
REMARK                            x       y       z     vdW  Elec       q    Type
REMARK                         _______ _______ _______ _____ _____    ______ ____
ROOT
ATOM      1  C   UNL     1       5.741   5.490  17.865  0.00  0.00    +0.000 C 
ATOM      2  O   UNL     1       5.775   5.496  19.092  0.00  0.00    +0.000 OA
ATOM      3  N   UNL     1       4.945   6.324  17.114  0.00  0.00    +0.000 N 
ATOM      4  H   UNL     1       4.756   6.053  16.149  0.00  0.00    +0.000 HD
ENDROOT
BRANCH   1   5
ATOM      5  C   UNL     1       6.555   4.501  17.056  0.00  0.00    +0.000 C 
BRANCH   5   6
ATOM      6  C   UNL     1       5.824   4.099  15.783  0.00  0.00    +0.000 C 
BRANCH   6   8
ATOM      7  O   UNL     1       7.515   5.227  14.469  0.00  0.00    +0.000 OA
ATOM      8  C   UNL     1       6.664   4.349  14.555  0.00  0.00    +0.000 C 
BRANCH   8   9
ATOM      9  O   UNL     1       6.410   3.486  13.550  0.00  0.00    +0.000 OA
ATOM     10  H   UNL     1       6.680   3.805  12.666  0.00  0.00    +0.000 HD
ENDBRANCH   8   9
ENDBRANCH   6   8
ENDBRANCH   5   6
ENDBRANCH   1   5
BRANCH   3  11
ATOM     11  C   UNL     1       4.047   7.258  17.766  0.00  0.00    +0.000 C 
BRANCH  11  12
ATOM     12  C   UNL     1       2.574   6.879  17.606  0.00  0.00    +0.000 C 
BRANCH  12  13
ATOM     13  C   UNL     1       2.174   5.823  18.611  0.00  0.00    +0.000 A 
ATOM     14  C   UNL     1       2.290   6.071  19.985  0.00  0.00    +0.000 A 
ATOM     15  C   UNL     1       1.977   5.078  20.915  0.00  0.00    +0.000 A 
ATOM     16  C   UNL     1       1.549   3.824  20.481  0.00  0.00    +0.000 A 
ATOM     17  C   UNL     1       1.431   3.570  19.116  0.00  0.00    +0.000 A 
ATOM     18 CL   UNL     1       0.916   2.019  18.578  0.00  0.00    +0.000 Cl
ATOM     19  C   UNL     1       1.739   4.560  18.182  0.00  0.00    +0.000 A 
ENDBRANCH  12  13
ENDBRANCH  11  12
ENDBRANCH   3  11
TORSDOF 7
ENDMDL
