MODEL 1
REMARK VINA RESULT:      -8.3      0.000      0.000
REMARK  Name = 
REMARK  5 active torsions:
REMARK  status: ('A' for Active; 'I' for Inactive)
REMARK    1  A    between atoms: C_1  and  S_2
REMARK    2  A    between atoms: S_2  and  N_5
REMARK    3  A    between atoms: N_5  and  C_6
REMARK    4  A    between atoms: C_10  and  C_11
REMARK    5  A    between atoms: C_15  and  N_16
REMARK                            x       y       z     vdW  Elec       q    Type
REMARK                         _______ _______ _______ _____ _____    ______ ____
ROOT
ATOM      1  C   UNL     1       4.711   4.446  18.263  0.00  0.00    +0.000 A 
ATOM      2  C   UNL     1       3.835   3.453  17.840  0.00  0.00    +0.000 A 
ATOM      3  C   UNL     1       2.497   3.765  17.616  0.00  0.00    +0.000 A 
ATOM      4  C   UNL     1       2.035   5.068  17.840  0.00  0.00    +0.000 A 
ATOM      5  C   UNL     1       2.897   6.087  18.288  0.00  0.00    +0.000 A 
ATOM      6  C   UNL     1       4.248   5.743  18.496  0.00  0.00    +0.000 A 
ENDROOT
BRANCH   5   7
ATOM      7  C   UNL     1       2.421   7.468  18.504  0.00  0.00    +0.000 A 
ATOM      8  N   UNL     1       2.520   8.330  17.473  0.00  0.00    +0.000 NA
ATOM      9  C   UNL     1       2.011   9.559  17.662  0.00  0.00    +0.000 A 
ATOM     10  C   UNL     1       1.407   9.962  18.829  0.00  0.00    +0.000 A 
ATOM     11  C   UNL     1       1.368   9.023  19.840  0.00  0.00    +0.000 A 
ATOM     12  N   UNL     1       1.873   7.775  19.695  0.00  0.00    +0.000 NA
BRANCH  11  13
ATOM     13  N   UNL     1       0.784   9.352  21.095  0.00  0.00    +0.000 N 
ATOM     14  C   UNL     1      -0.460   9.885  21.355  0.00  0.00    +0.000 A 
ATOM     15  C   UNL     1      -0.526  10.035  22.722  0.00  0.00    +0.000 A 
ATOM     16  N   UNL     1       0.628   9.602  23.313  0.00  0.00    +0.000 NA
ATOM     17  C   UNL     1       1.388   9.193  22.321  0.00  0.00    +0.000 A 
ENDBRANCH  11  13
ENDBRANCH   5   7
BRANCH   1  18
ATOM     18  N   UNL     1       6.082   4.140  18.479  0.00  0.00    +0.000 N 
ATOM     19  H   UNL     1       6.312   3.188  18.759  0.00  0.00    +0.000 HD
BRANCH  18  21
ATOM     20  C   UNL     1       6.637   4.457  15.846  0.00  0.00    +0.000 C 
ATOM     21  S   UNL     1       7.240   4.835  17.480  0.00  0.00    +0.000 S 
ATOM     22  O   UNL     1       8.446   4.056  17.680  0.00  0.00    +0.000 OA
ATOM     23  O   UNL     1       7.239   6.271  17.657  0.00  0.00    +0.000 OA
ENDBRANCH  18  21
ENDBRANCH   1  18
TORSDOF 4
ENDMDL
MODEL 2
REMARK VINA RESULT:      -8.1      1.242      1.348
REMARK  Name = 
REMARK  5 active torsions:
REMARK  status: ('A' for Active; 'I' for Inactive)
REMARK    1  A    between atoms: C_1  and  S_2
REMARK    2  A    between atoms: S_2  and  N_5
REMARK    3  A    between atoms: N_5  and  C_6
REMARK    4  A    between atoms: C_10  and  C_11
REMARK    5  A    between atoms: C_15  and  N_16
REMARK                            x       y       z     vdW  Elec       q    Type
REMARK                         _______ _______ _______ _____ _____    ______ ____
ROOT
ATOM      1  C   UNL     1       4.533   5.267  17.307  0.00  0.00    +0.000 A 
ATOM      2  C   UNL     1       3.713   4.150  17.427  0.00  0.00    +0.000 A 
ATOM      3  C   UNL     1       2.402   4.304  17.868  0.00  0.00    +0.000 A 
ATOM      4  C   UNL     1       1.922   5.573  18.210  0.00  0.00    +0.000 A 
ATOM      5  C   UNL     1       2.736   6.718  18.117  0.00  0.00    +0.000 A 
ATOM      6  C   UNL     1       4.056   6.532  17.658  0.00  0.00    +0.000 A 
ENDROOT
BRANCH   5   7
ATOM      7  C   UNL     1       2.229   8.063  18.454  0.00  0.00    +0.000 A 
ATOM      8  N   UNL     1       2.251   8.999  17.485  0.00  0.00    +0.000 NA
ATOM      9  C   UNL     1       1.715  10.193  17.786  0.00  0.00    +0.000 A 
ATOM     10  C   UNL     1       1.156  10.492  19.006  0.00  0.00    +0.000 A 
ATOM     11  C   UNL     1       1.196   9.483  19.947  0.00  0.00    +0.000 A 
ATOM     12  N   UNL     1       1.731   8.266  19.689  0.00  0.00    +0.000 NA
BRANCH  11  13
ATOM     13  N   UNL     1       0.664   9.701  21.248  0.00  0.00    +0.000 N 
ATOM     14  C   UNL     1       0.613   8.832  22.317  0.00  0.00    +0.000 A 
ATOM     15  C   UNL     1      -0.021   9.518  23.329  0.00  0.00    +0.000 A 
ATOM     16  N   UNL     1      -0.350  10.782  22.925  0.00  0.00    +0.000 NA
ATOM     17  C   UNL     1       0.076  10.867  21.684  0.00  0.00    +0.000 A 
ENDBRANCH  11  13
ENDBRANCH   5   7
BRANCH   1  18
ATOM     18  N   UNL     1       5.867   5.123  16.842  0.00  0.00    +0.000 N 
ATOM     19  H   UNL     1       6.132   5.641  16.006  0.00  0.00    +0.000 HD
BRANCH  18  21
ATOM     20  C   UNL     1       7.703   6.669  18.099  0.00  0.00    +0.000 C 
ATOM     21  S   UNL     1       7.112   4.993  17.964  0.00  0.00    +0.000 S 
ATOM     22  O   UNL     1       8.151   4.226  17.306  0.00  0.00    +0.000 OA
ATOM     23  O   UNL     1       6.575   4.583  19.243  0.00  0.00    +0.000 OA
ENDBRANCH  18  21
ENDBRANCH   1  18
TORSDOF 4
ENDMDL
MODEL 3
REMARK VINA RESULT:      -7.9      1.315      1.345
REMARK  Name = 
REMARK  5 active torsions:
REMARK  status: ('A' for Active; 'I' for Inactive)
REMARK    1  A    between atoms: C_1  and  S_2
REMARK    2  A    between atoms: S_2  and  N_5
REMARK    3  A    between atoms: N_5  and  C_6
REMARK    4  A    between atoms: C_10  and  C_11
REMARK    5  A    between atoms: C_15  and  N_16
REMARK                            x       y       z     vdW  Elec       q    Type
REMARK                         _______ _______ _______ _____ _____    ______ ____
ROOT
ATOM      1  C   UNL     1       4.541   5.048  18.299  0.00  0.00    +0.000 A 
ATOM      2  C   UNL     1       4.095   4.059  19.169  0.00  0.00    +0.000 A 
ATOM      3  C   UNL     1       3.009   4.314  20.002  0.00  0.00    +0.000 A 
ATOM      4  C   UNL     1       2.388   5.568  19.979  0.00  0.00    +0.000 A 
ATOM      5  C   UNL     1       2.833   6.594  19.123  0.00  0.00    +0.000 A 
ATOM      6  C   UNL     1       3.928   6.303  18.285  0.00  0.00    +0.000 A 
ENDROOT
BRANCH   5   7
ATOM      7  C   UNL     1       2.168   7.912  19.078  0.00  0.00    +0.000 A 
ATOM      8  N   UNL     1       2.156   8.564  17.899  0.00  0.00    +0.000 NA
ATOM      9  C   UNL     1       1.480   9.724  17.857  0.00  0.00    +0.000 A 
ATOM     10  C   UNL     1       0.816  10.258  18.936  0.00  0.00    +0.000 A 
ATOM     11  C   UNL     1       0.899   9.536  20.109  0.00  0.00    +0.000 A 
ATOM     12  N   UNL     1       1.573   8.365  20.197  0.00  0.00    +0.000 NA
BRANCH  11  13
ATOM     13  N   UNL     1       0.264  10.018  21.287  0.00  0.00    +0.000 N 
ATOM     14  C   UNL     1      -0.556  11.114  21.440  0.00  0.00    +0.000 A 
ATOM     15  C   UNL     1      -0.882  11.156  22.777  0.00  0.00    +0.000 A 
ATOM     16  N   UNL     1      -0.302  10.118  23.450  0.00  0.00    +0.000 NA
ATOM     17  C   UNL     1       0.369   9.451  22.537  0.00  0.00    +0.000 A 
ENDBRANCH  11  13
ENDBRANCH   5   7
BRANCH   1  18
ATOM     18  N   UNL     1       5.638   4.792  17.435  0.00  0.00    +0.000 N 
ATOM     19  H   UNL     1       5.501   4.961  16.440  0.00  0.00    +0.000 HD
BRANCH  18  21
ATOM     20  C   UNL     1       7.421   6.832  17.411  0.00  0.00    +0.000 C 
ATOM     21  S   UNL     1       7.193   5.151  17.960  0.00  0.00    +0.000 S 
ATOM     22  O   UNL     1       8.075   4.320  17.166  0.00  0.00    +0.000 OA
ATOM     23  O   UNL     1       7.238   5.122  19.405  0.00  0.00    +0.000 OA
ENDBRANCH  18  21
ENDBRANCH   1  18
TORSDOF 4
ENDMDL
MODEL 4
REMARK VINA RESULT:      -7.8      1.106      1.154
REMARK  Name = 
REMARK  5 active torsions:
REMARK  status: ('A' for Active; 'I' for Inactive)
REMARK    1  A    between atoms: C_1  and  S_2
REMARK    2  A    between atoms: S_2  and  N_5
REMARK    3  A    between atoms: N_5  and  C_6
REMARK    4  A    between atoms: C_10  and  C_11
REMARK    5  A    between atoms: C_15  and  N_16
REMARK                            x       y       z     vdW  Elec       q    Type
REMARK                         _______ _______ _______ _____ _____    ______ ____
ROOT
ATOM      1  C   UNL     1       4.464   4.696  17.427  0.00  0.00    +0.000 A 
ATOM      2  C   UNL     1       4.368   3.752  18.444  0.00  0.00    +0.000 A 
ATOM      3  C   UNL     1       3.625   4.044  19.584  0.00  0.00    +0.000 A 
ATOM      4  C   UNL     1       3.000   5.289  19.714  0.00  0.00    +0.000 A 
ATOM      5  C   UNL     1       3.098   6.270  18.708  0.00  0.00    +0.000 A 
ATOM      6  C   UNL     1       3.849   5.942  17.561  0.00  0.00    +0.000 A 
ENDROOT
BRANCH   5   7
ATOM      7  C   UNL     1       2.422   7.577  18.829  0.00  0.00    +0.000 A 
ATOM      8  N   UNL     1       2.338   8.340  17.722  0.00  0.00    +0.000 NA
ATOM      9  C   UNL     1       1.653   9.490  17.830  0.00  0.00    +0.000 A 
ATOM     10  C   UNL     1       1.047   9.909  18.991  0.00  0.00    +0.000 A 
ATOM     11  C   UNL     1       1.201   9.078  20.082  0.00  0.00    +0.000 A 
ATOM     12  N   UNL     1       1.887   7.912  20.018  0.00  0.00    +0.000 NA
BRANCH  11  13
ATOM     13  N   UNL     1       0.630   9.434  21.335  0.00  0.00    +0.000 N 
ATOM     14  C   UNL     1      -0.562  10.077  21.589  0.00  0.00    +0.000 A 
ATOM     15  C   UNL     1      -0.635  10.205  22.958  0.00  0.00    +0.000 A 
ATOM     16  N   UNL     1       0.463   9.653  23.556  0.00  0.00    +0.000 NA
ATOM     17  C   UNL     1       1.197   9.195  22.566  0.00  0.00    +0.000 A 
ENDBRANCH  11  13
ENDBRANCH   5   7
BRANCH   1  18
ATOM     18  N   UNL     1       5.206   4.401  16.252  0.00  0.00    +0.000 N 
ATOM     19  H   UNL     1       4.684   4.260  15.389  0.00  0.00    +0.000 HD
BRANCH  18  21
ATOM     20  C   UNL     1       7.099   4.707  14.337  0.00  0.00    +0.000 C 
ATOM     21  S   UNL     1       6.688   5.156  16.013  0.00  0.00    +0.000 S 
ATOM     22  O   UNL     1       7.622   4.466  16.880  0.00  0.00    +0.000 OA
ATOM     23  O   UNL     1       6.522   6.591  16.084  0.00  0.00    +0.000 OA
ENDBRANCH  18  21
ENDBRANCH   1  18
TORSDOF 4
ENDMDL
MODEL 5
REMARK VINA RESULT:      -7.7      1.056      1.272
REMARK  Name = 
REMARK  5 active torsions:
REMARK  status: ('A' for Active; 'I' for Inactive)
REMARK    1  A    between atoms: C_1  and  S_2
REMARK    2  A    between atoms: S_2  and  N_5
REMARK    3  A    between atoms: N_5  and  C_6
REMARK    4  A    between atoms: C_10  and  C_11
REMARK    5  A    between atoms: C_15  and  N_16
REMARK                            x       y       z     vdW  Elec       q    Type
REMARK                         _______ _______ _______ _____ _____    ______ ____
ROOT
ATOM      1  C   UNL     1       4.481   4.677  17.579  0.00  0.00    +0.000 A 
ATOM      2  C   UNL     1       3.551   3.654  17.430  0.00  0.00    +0.000 A 
ATOM      3  C   UNL     1       2.196   3.926  17.599  0.00  0.00    +0.000 A 
ATOM      4  C   UNL     1       1.778   5.217  17.940  0.00  0.00    +0.000 A 
ATOM      5  C   UNL     1       2.700   6.266  18.118  0.00  0.00    +0.000 A 
ATOM      6  C   UNL     1       4.064   5.962  17.931  0.00  0.00    +0.000 A 
ENDROOT
BRANCH   5   7
ATOM      7  C   UNL     1       2.264   7.636  18.456  0.00  0.00    +0.000 A 
ATOM      8  N   UNL     1       2.332   8.569  17.487  0.00  0.00    +0.000 NA
ATOM      9  C   UNL     1       1.859   9.790  17.789  0.00  0.00    +0.000 A 
ATOM     10  C   UNL     1       1.320  10.117  19.010  0.00  0.00    +0.000 A 
ATOM     11  C   UNL     1       1.310   9.107  19.951  0.00  0.00    +0.000 A 
ATOM     12  N   UNL     1       1.781   7.865  19.692  0.00  0.00    +0.000 NA
BRANCH  11  13
ATOM     13  N   UNL     1       0.794   9.353  21.254  0.00  0.00    +0.000 N 
ATOM     14  C   UNL     1      -0.452   9.818  21.615  0.00  0.00    +0.000 A 
ATOM     15  C   UNL     1      -0.437   9.904  22.989  0.00  0.00    +0.000 A 
ATOM     16  N   UNL     1       0.769   9.498  23.487  0.00  0.00    +0.000 NA
ATOM     17  C   UNL     1       1.481   9.168  22.432  0.00  0.00    +0.000 A 
ENDBRANCH  11  13
ENDBRANCH   5   7
BRANCH   1  18
ATOM     18  N   UNL     1       5.864   4.412  17.393  0.00  0.00    +0.000 N 
ATOM     19  H   UNL     1       6.161   3.438  17.404  0.00  0.00    +0.000 HD
BRANCH  18  21
ATOM     20  C   UNL     1       7.378   6.659  17.356  0.00  0.00    +0.000 C 
ATOM     21  S   UNL     1       6.739   5.360  16.317  0.00  0.00    +0.000 S 
ATOM     22  O   UNL     1       5.756   5.960  15.438  0.00  0.00    +0.000 OA
ATOM     23  O   UNL     1       7.848   4.597  15.787  0.00  0.00    +0.000 OA
ENDBRANCH  18  21
ENDBRANCH   1  18
TORSDOF 4
ENDMDL
MODEL 6
REMARK VINA RESULT:      -7.5      1.322      1.396
REMARK  Name = 
REMARK  5 active torsions:
REMARK  status: ('A' for Active; 'I' for Inactive)
REMARK    1  A    between atoms: C_1  and  S_2
REMARK    2  A    between atoms: S_2  and  N_5
REMARK    3  A    between atoms: N_5  and  C_6
REMARK    4  A    between atoms: C_10  and  C_11
REMARK    5  A    between atoms: C_15  and  N_16
REMARK                            x       y       z     vdW  Elec       q    Type
REMARK                         _______ _______ _______ _____ _____    ______ ____
ROOT
ATOM      1  C   UNL     1       4.438   5.052  17.448  0.00  0.00    +0.000 A 
ATOM      2  C   UNL     1       3.587   3.959  17.574  0.00  0.00    +0.000 A 
ATOM      3  C   UNL     1       2.270   4.155  17.977  0.00  0.00    +0.000 A 
ATOM      4  C   UNL     1       1.813   5.445  18.276  0.00  0.00    +0.000 A 
ATOM      5  C   UNL     1       2.659   6.565  18.176  0.00  0.00    +0.000 A 
ATOM      6  C   UNL     1       3.985   6.336  17.757  0.00  0.00    +0.000 A 
ENDROOT
BRANCH   5   7
ATOM      7  C   UNL     1       2.177   7.931  18.468  0.00  0.00    +0.000 A 
ATOM      8  N   UNL     1       2.303   8.857  17.498  0.00  0.00    +0.000 NA
ATOM      9  C   UNL     1       1.790  10.072  17.752  0.00  0.00    +0.000 A 
ATOM     10  C   UNL     1       1.156  10.401  18.927  0.00  0.00    +0.000 A 
ATOM     11  C   UNL     1       1.091   9.399  19.874  0.00  0.00    +0.000 A 
ATOM     12  N   UNL     1       1.599   8.162  19.662  0.00  0.00    +0.000 NA
BRANCH  11  13
ATOM     13  N   UNL     1       0.475   9.647  21.132  0.00  0.00    +0.000 N 
ATOM     14  C   UNL     1      -0.110   8.750  21.999  0.00  0.00    +0.000 A 
ATOM     15  C   UNL     1      -0.577   9.498  23.056  0.00  0.00    +0.000 A 
ATOM     16  N   UNL     1      -0.291  10.823  22.876  0.00  0.00    +0.000 NA
ATOM     17  C   UNL     1       0.343  10.882  21.725  0.00  0.00    +0.000 A 
ENDBRANCH  11  13
ENDBRANCH   5   7
BRANCH   1  18
ATOM     18  N   UNL     1       5.780   4.863  17.023  0.00  0.00    +0.000 N 
ATOM     19  H   UNL     1       6.256   4.017  17.333  0.00  0.00    +0.000 HD
BRANCH  18  21
ATOM     20  C   UNL     1       5.844   3.903  14.490  0.00  0.00    +0.000 C 
ATOM     21  S   UNL     1       6.220   5.341  15.473  0.00  0.00    +0.000 S 
ATOM     22  O   UNL     1       7.662   5.473  15.501  0.00  0.00    +0.000 OA
ATOM     23  O   UNL     1       5.376   6.434  15.043  0.00  0.00    +0.000 OA
ENDBRANCH  18  21
ENDBRANCH   1  18
TORSDOF 4
ENDMDL
MODEL 7
REMARK VINA RESULT:      -7.5      4.007      7.792
REMARK  Name = 
REMARK  5 active torsions:
REMARK  status: ('A' for Active; 'I' for Inactive)
REMARK    1  A    between atoms: C_1  and  S_2
REMARK    2  A    between atoms: S_2  and  N_5
REMARK    3  A    between atoms: N_5  and  C_6
REMARK    4  A    between atoms: C_10  and  C_11
REMARK    5  A    between atoms: C_15  and  N_16
REMARK                            x       y       z     vdW  Elec       q    Type
REMARK                         _______ _______ _______ _____ _____    ______ ____
ROOT
ATOM      1  C   UNL     1       0.649   9.202  19.964  0.00  0.00    +0.000 A 
ATOM      2  C   UNL     1       0.845  10.052  18.880  0.00  0.00    +0.000 A 
ATOM      3  C   UNL     1       1.732   9.687  17.872  0.00  0.00    +0.000 A 
ATOM      4  C   UNL     1       2.439   8.482  17.962  0.00  0.00    +0.000 A 
ATOM      5  C   UNL     1       2.275   7.614  19.058  0.00  0.00    +0.000 A 
ATOM      6  C   UNL     1       1.363   8.006  20.059  0.00  0.00    +0.000 A 
ENDROOT
BRANCH   5   7
ATOM      7  C   UNL     1       3.001   6.331  19.149  0.00  0.00    +0.000 A 
ATOM      8  N   UNL     1       2.551   5.421  20.035  0.00  0.00    +0.000 NA
ATOM      9  C   UNL     1       3.175   4.231  20.050  0.00  0.00    +0.000 A 
ATOM     10  C   UNL     1       4.221   3.910  19.219  0.00  0.00    +0.000 A 
ATOM     11  C   UNL     1       4.632   4.908  18.358  0.00  0.00    +0.000 A 
ATOM     12  N   UNL     1       4.036   6.122  18.313  0.00  0.00    +0.000 NA
BRANCH  11  13
ATOM     13  N   UNL     1       5.723   4.681  17.474  0.00  0.00    +0.000 N 
ATOM     14  C   UNL     1       5.696   4.316  16.145  0.00  0.00    +0.000 A 
ATOM     15  C   UNL     1       7.013   4.202  15.760  0.00  0.00    +0.000 A 
ATOM     16  N   UNL     1       7.850   4.495  16.801  0.00  0.00    +0.000 NA
ATOM     17  C   UNL     1       7.054   4.784  17.807  0.00  0.00    +0.000 A 
ENDBRANCH  11  13
ENDBRANCH   5   7
BRANCH   1  18
ATOM     18  N   UNL     1      -0.266   9.559  20.990  0.00  0.00    +0.000 N 
ATOM     19  H   UNL     1      -0.950   8.859  21.273  0.00  0.00    +0.000 HD
BRANCH  18  21
ATOM     20  C   UNL     1      -1.251  11.066  23.015  0.00  0.00    +0.000 C 
ATOM     21  S   UNL     1       0.268  10.516  22.263  0.00  0.00    +0.000 S 
ATOM     22  O   UNL     1       0.884  11.674  21.649  0.00  0.00    +0.000 OA
ATOM     23  O   UNL     1       0.991   9.701  23.216  0.00  0.00    +0.000 OA
ENDBRANCH  18  21
ENDBRANCH   1  18
TORSDOF 4
ENDMDL
MODEL 8
REMARK VINA RESULT:      -7.5      3.995      7.776
REMARK  Name = 
REMARK  5 active torsions:
REMARK  status: ('A' for Active; 'I' for Inactive)
REMARK    1  A    between atoms: C_1  and  S_2
REMARK    2  A    between atoms: S_2  and  N_5
REMARK    3  A    between atoms: N_5  and  C_6
REMARK    4  A    between atoms: C_10  and  C_11
REMARK    5  A    between atoms: C_15  and  N_16
REMARK                            x       y       z     vdW  Elec       q    Type
REMARK                         _______ _______ _______ _____ _____    ______ ____
ROOT
ATOM      1  C   UNL     1       1.515   9.078  20.375  0.00  0.00    +0.000 A 
ATOM      2  C   UNL     1       1.084   9.954  19.385  0.00  0.00    +0.000 A 
ATOM      3  C   UNL     1       1.163   9.573  18.048  0.00  0.00    +0.000 A 
ATOM      4  C   UNL     1       1.697   8.325  17.706  0.00  0.00    +0.000 A 
ATOM      5  C   UNL     1       2.159   7.428  18.687  0.00  0.00    +0.000 A 
ATOM      6  C   UNL     1       2.057   7.838  20.032  0.00  0.00    +0.000 A 
ENDROOT
BRANCH   5   7
ATOM      7  C   UNL     1       2.703   6.101  18.334  0.00  0.00    +0.000 A 
ATOM      8  N   UNL     1       2.029   5.017  18.765  0.00  0.00    +0.000 NA
ATOM      9  C   UNL     1       2.494   3.820  18.370  0.00  0.00    +0.000 A 
ATOM     10  C   UNL     1       3.595   3.659  17.563  0.00  0.00    +0.000 A 
ATOM     11  C   UNL     1       4.238   4.821  17.186  0.00  0.00    +0.000 A 
ATOM     12  N   UNL     1       3.807   6.048  17.566  0.00  0.00    +0.000 NA
BRANCH  11  13
ATOM     13  N   UNL     1       5.401   4.759  16.370  0.00  0.00    +0.000 N 
ATOM     14  C   UNL     1       5.493   4.534  15.014  0.00  0.00    +0.000 A 
ATOM     15  C   UNL     1       6.839   4.546  14.722  0.00  0.00    +0.000 A 
ATOM     16  N   UNL     1       7.577   4.782  15.847  0.00  0.00    +0.000 NA
ATOM     17  C   UNL     1       6.695   4.913  16.814  0.00  0.00    +0.000 A 
ENDBRANCH  11  13
ENDBRANCH   5   7
BRANCH   1  18
ATOM     18  N   UNL     1       1.423   9.452  21.743  0.00  0.00    +0.000 N 
ATOM     19  H   UNL     1       2.017  10.216  22.061  0.00  0.00    +0.000 HD
BRANCH  18  21
ATOM     20  C   UNL     1      -0.829  10.942  21.963  0.00  0.00    +0.000 C 
ATOM     21  S   UNL     1      -0.076   9.418  22.499  0.00  0.00    +0.000 S 
ATOM     22  O   UNL     1       0.198   9.552  23.915  0.00  0.00    +0.000 OA
ATOM     23  O   UNL     1      -0.854   8.309  21.990  0.00  0.00    +0.000 OA
ENDBRANCH  18  21
ENDBRANCH   1  18
TORSDOF 4
ENDMDL
MODEL 9
REMARK VINA RESULT:      -7.3      1.558      1.611
REMARK  Name = 
REMARK  5 active torsions:
REMARK  status: ('A' for Active; 'I' for Inactive)
REMARK    1  A    between atoms: C_1  and  S_2
REMARK    2  A    between atoms: S_2  and  N_5
REMARK    3  A    between atoms: N_5  and  C_6
REMARK    4  A    between atoms: C_10  and  C_11
REMARK    5  A    between atoms: C_15  and  N_16
REMARK                            x       y       z     vdW  Elec       q    Type
REMARK                         _______ _______ _______ _____ _____    ______ ____
ROOT
ATOM      1  C   UNL     1       3.492   4.492  17.953  0.00  0.00    +0.000 A 
ATOM      2  C   UNL     1       3.342   3.694  19.081  0.00  0.00    +0.000 A 
ATOM      3  C   UNL     1       2.754   4.225  20.226  0.00  0.00    +0.000 A 
ATOM      4  C   UNL     1       2.339   5.562  20.244  0.00  0.00    +0.000 A 
ATOM      5  C   UNL     1       2.498   6.397  19.122  0.00  0.00    +0.000 A 
ATOM      6  C   UNL     1       3.088   5.828  17.975  0.00  0.00    +0.000 A 
ENDROOT
BRANCH   5   7
ATOM      7  C   UNL     1       2.042   7.801  19.127  0.00  0.00    +0.000 A 
ATOM      8  N   UNL     1       2.227   8.521  18.003  0.00  0.00    +0.000 NA
ATOM      9  C   UNL     1       1.737   9.772  17.999  0.00  0.00    +0.000 A 
ATOM     10  C   UNL     1       1.070  10.332  19.063  0.00  0.00    +0.000 A 
ATOM     11  C   UNL     1       0.945   9.533  20.181  0.00  0.00    +0.000 A 
ATOM     12  N   UNL     1       1.428   8.269  20.230  0.00  0.00    +0.000 NA
BRANCH  11  13
ATOM     13  N   UNL     1       0.290  10.030  21.342  0.00  0.00    +0.000 N 
ATOM     14  C   UNL     1      -0.557  11.110  21.459  0.00  0.00    +0.000 A 
ATOM     15  C   UNL     1      -0.894  11.180  22.792  0.00  0.00    +0.000 A 
ATOM     16  N   UNL     1      -0.294  10.175  23.498  0.00  0.00    +0.000 NA
ATOM     17  C   UNL     1       0.400   9.500  22.607  0.00  0.00    +0.000 A 
ENDBRANCH  11  13
ENDBRANCH   5   7
BRANCH   1  18
ATOM     18  N   UNL     1       4.077   3.954  16.775  0.00  0.00    +0.000 N 
ATOM     19  H   UNL     1       3.477   3.849  15.959  0.00  0.00    +0.000 HD
BRANCH  18  21
ATOM     20  C   UNL     1       5.463   5.899  15.495  0.00  0.00    +0.000 C 
ATOM     21  S   UNL     1       5.658   4.368  16.386  0.00  0.00    +0.000 S 
ATOM     22  O   UNL     1       6.099   3.372  15.431  0.00  0.00    +0.000 OA
ATOM     23  O   UNL     1       6.407   4.625  17.597  0.00  0.00    +0.000 OA
ENDBRANCH  18  21
ENDBRANCH   1  18
TORSDOF 4
ENDMDL
