MODEL 1
REMARK VINA RESULT:      -7.3      0.000      0.000
REMARK  Name = 
REMARK  5 active torsions:
REMARK  status: ('A' for Active; 'I' for Inactive)
REMARK    1  A    between atoms: C_1  and  C_2
REMARK    2  A    between atoms: C_2  and  N_3
REMARK    3  A    between atoms: N_12  and  C_13
REMARK    4  A    between atoms: C_13  and  C_14
REMARK    5  A    between atoms: C_19  and  C_20
REMARK                            x       y       z     vdW  Elec       q    Type
REMARK                         _______ _______ _______ _____ _____    ______ ____
ROOT
ATOM      1  N   UNL     1       1.967   3.829  19.448  0.00  0.00    +0.000 N 
ATOM      2  C   UNL     1       2.722   3.355  18.386  0.00  0.00    +0.000 A 
ATOM      3  O   UNL     1       2.710   2.187  18.003  0.00  0.00    +0.000 OA
ATOM      4  C   UNL     1       3.573   4.332  17.691  0.00  0.00    +0.000 A 
ATOM      5  C   UNL     1       4.302   3.924  16.558  0.00  0.00    +0.000 A 
ATOM      6  C   UNL     1       5.114   4.833  15.890  0.00  0.00    +0.000 A 
ATOM      7  C   UNL     1       5.208   6.139  16.358  0.00  0.00    +0.000 A 
ATOM      8  C   UNL     1       4.479   6.542  17.484  0.00  0.00    +0.000 A 
ATOM      9  C   UNL     1       3.643   5.642  18.165  0.00  0.00    +0.000 A 
ATOM     10  N   UNL     1       2.847   6.024  19.282  0.00  0.00    +0.000 N 
ATOM     11  C   UNL     1       1.939   5.150  19.875  0.00  0.00    +0.000 A 
ATOM     12  O   UNL     1       1.148   5.529  20.743  0.00  0.00    +0.000 OA
ENDROOT
BRANCH   1  14
ATOM     13  C   UNL     1       1.624   2.471  21.484  0.00  0.00    +0.000 C 
ATOM     14  C   UNL     1       1.084   2.881  20.122  0.00  0.00    +0.000 C 
ENDBRANCH   1  14
BRANCH  10  15
ATOM     15  C   UNL     1       2.914   7.384  19.828  0.00  0.00    +0.000 C 
BRANCH  15  16
ATOM     16  C   UNL     1       1.821   8.341  19.373  0.00  0.00    +0.000 A 
ATOM     17  C   UNL     1       1.579   8.576  18.006  0.00  0.00    +0.000 A 
ATOM     18  C   UNL     1       0.610   9.487  17.589  0.00  0.00    +0.000 A 
ATOM     19  C   UNL     1      -0.152  10.169  18.527  0.00  0.00    +0.000 A 
ATOM     20  C   UNL     1       0.036   9.918  19.886  0.00  0.00    +0.000 A 
ATOM     21  C   UNL     1       1.005   8.999  20.323  0.00  0.00    +0.000 A 
ATOM     22  C   UNL     1       1.134   8.737  21.801  0.00  0.00    +0.000 C 
ENDBRANCH  15  16
ENDBRANCH  10  15
TORSDOF 3
ENDMDL
MODEL 2
REMARK VINA RESULT:      -6.9      2.580      5.827
REMARK  Name = 
REMARK  5 active torsions:
REMARK  status: ('A' for Active; 'I' for Inactive)
REMARK    1  A    between atoms: C_1  and  C_2
REMARK    2  A    between atoms: C_2  and  N_3
REMARK    3  A    between atoms: N_12  and  C_13
REMARK    4  A    between atoms: C_13  and  C_14
REMARK    5  A    between atoms: C_19  and  C_20
REMARK                            x       y       z     vdW  Elec       q    Type
REMARK                         _______ _______ _______ _____ _____    ______ ____
ROOT
ATOM      1  N   UNL     1       5.928   4.994  16.346  0.00  0.00    +0.000 N 
ATOM      2  C   UNL     1       5.627   6.308  16.668  0.00  0.00    +0.000 A 
ATOM      3  O   UNL     1       6.392   7.253  16.485  0.00  0.00    +0.000 OA
ATOM      4  C   UNL     1       4.302   6.560  17.254  0.00  0.00    +0.000 A 
ATOM      5  C   UNL     1       3.912   7.885  17.528  0.00  0.00    +0.000 A 
ATOM      6  C   UNL     1       2.665   8.141  18.084  0.00  0.00    +0.000 A 
ATOM      7  C   UNL     1       1.815   7.080  18.378  0.00  0.00    +0.000 A 
ATOM      8  C   UNL     1       2.206   5.763  18.102  0.00  0.00    +0.000 A 
ATOM      9  C   UNL     1       3.456   5.484  17.527  0.00  0.00    +0.000 A 
ATOM     10  N   UNL     1       3.871   4.166  17.184  0.00  0.00    +0.000 N 
ATOM     11  C   UNL     1       5.065   3.918  16.512  0.00  0.00    +0.000 A 
ATOM     12  O   UNL     1       5.348   2.795  16.087  0.00  0.00    +0.000 OA
ENDROOT
BRANCH   1  14
ATOM     13  C   UNL     1       7.159   4.842  14.208  0.00  0.00    +0.000 C 
ATOM     14  C   UNL     1       7.223   4.733  15.724  0.00  0.00    +0.000 C 
ENDBRANCH   1  14
BRANCH  10  15
ATOM     15  C   UNL     1       3.022   3.006  17.481  0.00  0.00    +0.000 C 
BRANCH  15  16
ATOM     16  C   UNL     1       2.450   2.940  18.890  0.00  0.00    +0.000 A 
ATOM     17  C   UNL     1       1.072   3.107  19.127  0.00  0.00    +0.000 A 
ATOM     18  C   UNL     1       0.554   3.093  20.420  0.00  0.00    +0.000 A 
ATOM     19  C   UNL     1       1.397   2.891  21.504  0.00  0.00    +0.000 A 
ATOM     20  C   UNL     1       2.758   2.675  21.292  0.00  0.00    +0.000 A 
ATOM     21  C   UNL     1       3.296   2.681  19.994  0.00  0.00    +0.000 A 
ATOM     22  C   UNL     1       4.766   2.401  19.822  0.00  0.00    +0.000 C 
ENDBRANCH  15  16
ENDBRANCH  10  15
TORSDOF 3
ENDMDL
MODEL 3
REMARK VINA RESULT:      -6.9      1.615      2.272
REMARK  Name = 
REMARK  5 active torsions:
REMARK  status: ('A' for Active; 'I' for Inactive)
REMARK    1  A    between atoms: C_1  and  C_2
REMARK    2  A    between atoms: C_2  and  N_3
REMARK    3  A    between atoms: N_12  and  C_13
REMARK    4  A    between atoms: C_13  and  C_14
REMARK    5  A    between atoms: C_19  and  C_20
REMARK                            x       y       z     vdW  Elec       q    Type
REMARK                         _______ _______ _______ _____ _____    ______ ____
ROOT
ATOM      1  N   UNL     1       3.213   3.674  19.470  0.00  0.00    +0.000 N 
ATOM      2  C   UNL     1       4.592   3.606  19.345  0.00  0.00    +0.000 A 
ATOM      3  O   UNL     1       5.272   2.664  19.748  0.00  0.00    +0.000 OA
ATOM      4  C   UNL     1       5.253   4.738  18.680  0.00  0.00    +0.000 A 
ATOM      5  C   UNL     1       6.642   4.687  18.456  0.00  0.00    +0.000 A 
ATOM      6  C   UNL     1       7.284   5.749  17.831  0.00  0.00    +0.000 A 
ATOM      7  C   UNL     1       6.547   6.863  17.443  0.00  0.00    +0.000 A 
ATOM      8  C   UNL     1       5.165   6.908  17.666  0.00  0.00    +0.000 A 
ATOM      9  C   UNL     1       4.495   5.839  18.283  0.00  0.00    +0.000 A 
ATOM     10  N   UNL     1       3.085   5.825  18.482  0.00  0.00    +0.000 N 
ATOM     11  C   UNL     1       2.422   4.711  18.992  0.00  0.00    +0.000 A 
ATOM     12  O   UNL     1       1.191   4.647  19.023  0.00  0.00    +0.000 OA
ENDROOT
BRANCH   1  14
ATOM     13  C   UNL     1       2.282   2.768  21.573  0.00  0.00    +0.000 C 
ATOM     14  C   UNL     1       2.537   2.538  20.091  0.00  0.00    +0.000 C 
ENDBRANCH   1  14
BRANCH  10  15
ATOM     15  C   UNL     1       2.256   6.975  18.104  0.00  0.00    +0.000 C 
BRANCH  15  16
ATOM     16  C   UNL     1       1.814   7.883  19.243  0.00  0.00    +0.000 A 
ATOM     17  C   UNL     1       1.766   7.419  20.571  0.00  0.00    +0.000 A 
ATOM     18  C   UNL     1       1.317   8.235  21.607  0.00  0.00    +0.000 A 
ATOM     19  C   UNL     1       0.926   9.541  21.343  0.00  0.00    +0.000 A 
ATOM     20  C   UNL     1       1.010  10.040  20.044  0.00  0.00    +0.000 A 
ATOM     21  C   UNL     1       1.465   9.231  18.988  0.00  0.00    +0.000 A 
ATOM     22  C   UNL     1       1.576   9.836  17.613  0.00  0.00    +0.000 C 
ENDBRANCH  15  16
ENDBRANCH  10  15
TORSDOF 3
ENDMDL
MODEL 4
REMARK VINA RESULT:      -6.9      2.010      5.271
REMARK  Name = 
REMARK  5 active torsions:
REMARK  status: ('A' for Active; 'I' for Inactive)
REMARK    1  A    between atoms: C_1  and  C_2
REMARK    2  A    between atoms: C_2  and  N_3
REMARK    3  A    between atoms: N_12  and  C_13
REMARK    4  A    between atoms: C_13  and  C_14
REMARK    5  A    between atoms: C_19  and  C_20
REMARK                            x       y       z     vdW  Elec       q    Type
REMARK                         _______ _______ _______ _____ _____    ______ ____
ROOT
ATOM      1  N   UNL     1       2.739   3.414  19.784  0.00  0.00    +0.000 N 
ATOM      2  C   UNL     1       1.858   4.451  19.516  0.00  0.00    +0.000 A 
ATOM      3  O   UNL     1       0.662   4.427  19.798  0.00  0.00    +0.000 OA
ATOM      4  C   UNL     1       2.419   5.642  18.861  0.00  0.00    +0.000 A 
ATOM      5  C   UNL     1       1.588   6.756  18.635  0.00  0.00    +0.000 A 
ATOM      6  C   UNL     1       2.099   7.890  18.015  0.00  0.00    +0.000 A 
ATOM      7  C   UNL     1       3.429   7.907  17.610  0.00  0.00    +0.000 A 
ATOM      8  C   UNL     1       4.253   6.797  17.838  0.00  0.00    +0.000 A 
ATOM      9  C   UNL     1       3.759   5.647  18.476  0.00  0.00    +0.000 A 
ATOM     10  N   UNL     1       4.575   4.519  18.772  0.00  0.00    +0.000 N 
ATOM     11  C   UNL     1       4.099   3.434  19.505  0.00  0.00    +0.000 A 
ATOM     12  O   UNL     1       4.847   2.531  19.885  0.00  0.00    +0.000 OA
ENDROOT
BRANCH   1  14
ATOM     13  C   UNL     1       1.927   2.520  21.941  0.00  0.00    +0.000 C 
ATOM     14  C   UNL     1       2.207   2.241  20.472  0.00  0.00    +0.000 C 
ENDBRANCH   1  14
BRANCH  10  15
ATOM     15  C   UNL     1       5.983   4.475  18.359  0.00  0.00    +0.000 C 
BRANCH  15  16
ATOM     16  C   UNL     1       6.243   4.566  16.862  0.00  0.00    +0.000 A 
ATOM     17  C   UNL     1       5.684   3.637  15.965  0.00  0.00    +0.000 A 
ATOM     18  C   UNL     1       5.960   3.692  14.600  0.00  0.00    +0.000 A 
ATOM     19  C   UNL     1       6.784   4.690  14.098  0.00  0.00    +0.000 A 
ATOM     20  C   UNL     1       7.311   5.651  14.959  0.00  0.00    +0.000 A 
ATOM     21  C   UNL     1       7.039   5.613  16.337  0.00  0.00    +0.000 A 
ATOM     22  C   UNL     1       7.601   6.702  17.213  0.00  0.00    +0.000 C 
ENDBRANCH  15  16
ENDBRANCH  10  15
TORSDOF 3
ENDMDL
MODEL 5
REMARK VINA RESULT:      -6.7      1.430      3.456
REMARK  Name = 
REMARK  5 active torsions:
REMARK  status: ('A' for Active; 'I' for Inactive)
REMARK    1  A    between atoms: C_1  and  C_2
REMARK    2  A    between atoms: C_2  and  N_3
REMARK    3  A    between atoms: N_12  and  C_13
REMARK    4  A    between atoms: C_13  and  C_14
REMARK    5  A    between atoms: C_19  and  C_20
REMARK                            x       y       z     vdW  Elec       q    Type
REMARK                         _______ _______ _______ _____ _____    ______ ____
ROOT
ATOM      1  N   UNL     1       4.217   5.034  17.042  0.00  0.00    +0.000 N 
ATOM      2  C   UNL     1       3.472   3.871  17.159  0.00  0.00    +0.000 A 
ATOM      3  O   UNL     1       3.561   2.918  16.387  0.00  0.00    +0.000 OA
ATOM      4  C   UNL     1       2.532   3.797  18.287  0.00  0.00    +0.000 A 
ATOM      5  C   UNL     1       1.807   2.610  18.500  0.00  0.00    +0.000 A 
ATOM      6  C   UNL     1       0.913   2.522  19.561  0.00  0.00    +0.000 A 
ATOM      7  C   UNL     1       0.733   3.619  20.396  0.00  0.00    +0.000 A 
ATOM      8  C   UNL     1       1.458   4.799  20.182  0.00  0.00    +0.000 A 
ATOM      9  C   UNL     1       2.377   4.902  19.125  0.00  0.00    +0.000 A 
ATOM     10  N   UNL     1       3.170   6.063  18.903  0.00  0.00    +0.000 N 
ATOM     11  C   UNL     1       4.156   6.108  17.920  0.00  0.00    +0.000 A 
ATOM     12  O   UNL     1       4.938   7.058  17.830  0.00  0.00    +0.000 OA
ENDROOT
BRANCH   1  14
ATOM     13  C   UNL     1       6.518   4.480  16.330  0.00  0.00    +0.000 C 
ATOM     14  C   UNL     1       5.184   5.107  15.951  0.00  0.00    +0.000 C 
ENDBRANCH   1  14
BRANCH  10  15
ATOM     15  C   UNL     1       3.016   7.256  19.744  0.00  0.00    +0.000 C 
BRANCH  15  16
ATOM     16  C   UNL     1       1.940   8.243  19.314  0.00  0.00    +0.000 A 
ATOM     17  C   UNL     1       1.747   8.568  17.958  0.00  0.00    +0.000 A 
ATOM     18  C   UNL     1       0.794   9.507  17.568  0.00  0.00    +0.000 A 
ATOM     19  C   UNL     1      -0.003  10.126  18.522  0.00  0.00    +0.000 A 
ATOM     20  C   UNL     1       0.136   9.785  19.867  0.00  0.00    +0.000 A 
ATOM     21  C   UNL     1       1.089   8.837  20.276  0.00  0.00    +0.000 A 
ATOM     22  C   UNL     1       1.165   8.477  21.737  0.00  0.00    +0.000 C 
ENDBRANCH  15  16
ENDBRANCH  10  15
TORSDOF 3
ENDMDL
MODEL 6
REMARK VINA RESULT:      -6.6      2.570      5.945
REMARK  Name = 
REMARK  5 active torsions:
REMARK  status: ('A' for Active; 'I' for Inactive)
REMARK    1  A    between atoms: C_1  and  C_2
REMARK    2  A    between atoms: C_2  and  N_3
REMARK    3  A    between atoms: N_12  and  C_13
REMARK    4  A    between atoms: C_13  and  C_14
REMARK    5  A    between atoms: C_19  and  C_20
REMARK                            x       y       z     vdW  Elec       q    Type
REMARK                         _______ _______ _______ _____ _____    ______ ____
ROOT
ATOM      1  N   UNL     1       5.922   5.018  16.303  0.00  0.00    +0.000 N 
ATOM      2  C   UNL     1       5.633   6.340  16.602  0.00  0.00    +0.000 A 
ATOM      3  O   UNL     1       6.399   7.277  16.380  0.00  0.00    +0.000 OA
ATOM      4  C   UNL     1       4.323   6.611  17.211  0.00  0.00    +0.000 A 
ATOM      5  C   UNL     1       3.945   7.943  17.463  0.00  0.00    +0.000 A 
ATOM      6  C   UNL     1       2.711   8.218  18.041  0.00  0.00    +0.000 A 
ATOM      7  C   UNL     1       1.864   7.168  18.377  0.00  0.00    +0.000 A 
ATOM      8  C   UNL     1       2.243   5.844  18.123  0.00  0.00    +0.000 A 
ATOM      9  C   UNL     1       3.480   5.546  17.527  0.00  0.00    +0.000 A 
ATOM     10  N   UNL     1       3.881   4.219  17.206  0.00  0.00    +0.000 N 
ATOM     11  C   UNL     1       5.059   3.950  16.513  0.00  0.00    +0.000 A 
ATOM     12  O   UNL     1       5.328   2.816  16.107  0.00  0.00    +0.000 OA
ENDROOT
BRANCH   1  14
ATOM     13  C   UNL     1       7.108   4.826  14.143  0.00  0.00    +0.000 C 
ATOM     14  C   UNL     1       7.202   4.737  15.660  0.00  0.00    +0.000 C 
ENDBRANCH   1  14
BRANCH  10  15
ATOM     15  C   UNL     1       3.034   3.069  17.547  0.00  0.00    +0.000 C 
BRANCH  15  16
ATOM     16  C   UNL     1       2.806   2.826  19.032  0.00  0.00    +0.000 A 
ATOM     17  C   UNL     1       3.885   2.707  19.927  0.00  0.00    +0.000 A 
ATOM     18  C   UNL     1       3.678   2.437  21.279  0.00  0.00    +0.000 A 
ATOM     19  C   UNL     1       2.386   2.301  21.770  0.00  0.00    +0.000 A 
ATOM     20  C   UNL     1       1.299   2.463  20.912  0.00  0.00    +0.000 A 
ATOM     21  C   UNL     1       1.491   2.739  19.548  0.00  0.00    +0.000 A 
ATOM     22  C   UNL     1       0.278   2.946  18.678  0.00  0.00    +0.000 C 
ENDBRANCH  15  16
ENDBRANCH  10  15
TORSDOF 3
ENDMDL
MODEL 7
REMARK VINA RESULT:      -6.5      1.998      5.945
REMARK  Name = 
REMARK  5 active torsions:
REMARK  status: ('A' for Active; 'I' for Inactive)
REMARK    1  A    between atoms: C_1  and  C_2
REMARK    2  A    between atoms: C_2  and  N_3
REMARK    3  A    between atoms: N_12  and  C_13
REMARK    4  A    between atoms: C_13  and  C_14
REMARK    5  A    between atoms: C_19  and  C_20
REMARK                            x       y       z     vdW  Elec       q    Type
REMARK                         _______ _______ _______ _____ _____    ______ ____
ROOT
ATOM      1  N   UNL     1       1.843   8.254  19.393  0.00  0.00    +0.000 N 
ATOM      2  C   UNL     1       1.445   7.271  20.286  0.00  0.00    +0.000 A 
ATOM      3  O   UNL     1       0.753   7.485  21.279  0.00  0.00    +0.000 OA
ATOM      4  C   UNL     1       1.887   5.898  19.999  0.00  0.00    +0.000 A 
ATOM      5  C   UNL     1       1.449   4.849  20.829  0.00  0.00    +0.000 A 
ATOM      6  C   UNL     1       1.858   3.545  20.575  0.00  0.00    +0.000 A 
ATOM      7  C   UNL     1       2.710   3.291  19.506  0.00  0.00    +0.000 A 
ATOM      8  C   UNL     1       3.142   4.338  18.682  0.00  0.00    +0.000 A 
ATOM      9  C   UNL     1       2.729   5.660  18.913  0.00  0.00    +0.000 A 
ATOM     10  N   UNL     1       3.104   6.745  18.070  0.00  0.00    +0.000 N 
ATOM     11  C   UNL     1       2.595   8.029  18.247  0.00  0.00    +0.000 A 
ATOM     12  O   UNL     1       2.805   8.928  17.429  0.00  0.00    +0.000 OA
ENDROOT
BRANCH   1  14
ATOM     13  C   UNL     1       0.088   9.921  18.894  0.00  0.00    +0.000 C 
ATOM     14  C   UNL     1       1.378   9.616  19.640  0.00  0.00    +0.000 C 
ENDBRANCH   1  14
BRANCH  10  15
ATOM     15  C   UNL     1       4.011   6.540  16.935  0.00  0.00    +0.000 C 
BRANCH  15  16
ATOM     16  C   UNL     1       5.355   5.903  17.258  0.00  0.00    +0.000 A 
ATOM     17  C   UNL     1       6.067   6.253  18.421  0.00  0.00    +0.000 A 
ATOM     18  C   UNL     1       7.319   5.705  18.694  0.00  0.00    +0.000 A 
ATOM     19  C   UNL     1       7.878   4.780  17.823  0.00  0.00    +0.000 A 
ATOM     20  C   UNL     1       7.170   4.381  16.690  0.00  0.00    +0.000 A 
ATOM     21  C   UNL     1       5.905   4.920  16.402  0.00  0.00    +0.000 A 
ATOM     22  C   UNL     1       5.169   4.421  15.186  0.00  0.00    +0.000 C 
ENDBRANCH  15  16
ENDBRANCH  10  15
TORSDOF 3
ENDMDL
MODEL 8
REMARK VINA RESULT:      -6.4      1.880      3.969
REMARK  Name = 
REMARK  5 active torsions:
REMARK  status: ('A' for Active; 'I' for Inactive)
REMARK    1  A    between atoms: C_1  and  C_2
REMARK    2  A    between atoms: C_2  and  N_3
REMARK    3  A    between atoms: N_12  and  C_13
REMARK    4  A    between atoms: C_13  and  C_14
REMARK    5  A    between atoms: C_19  and  C_20
REMARK                            x       y       z     vdW  Elec       q    Type
REMARK                         _______ _______ _______ _____ _____    ______ ____
ROOT
ATOM      1  N   UNL     1       5.201   4.922  18.655  0.00  0.00    +0.000 N 
ATOM      2  C   UNL     1       4.781   3.770  19.302  0.00  0.00    +0.000 A 
ATOM      3  O   UNL     1       5.516   2.817  19.555  0.00  0.00    +0.000 OA
ATOM      4  C   UNL     1       3.368   3.715  19.705  0.00  0.00    +0.000 A 
ATOM      5  C   UNL     1       2.905   2.603  20.433  0.00  0.00    +0.000 A 
ATOM      6  C   UNL     1       1.572   2.533  20.821  0.00  0.00    +0.000 A 
ATOM      7  C   UNL     1       0.702   3.560  20.471  0.00  0.00    +0.000 A 
ATOM      8  C   UNL     1       1.168   4.666  19.748  0.00  0.00    +0.000 A 
ATOM      9  C   UNL     1       2.514   4.762  19.359  0.00  0.00    +0.000 A 
ATOM     10  N   UNL     1       3.038   5.891  18.668  0.00  0.00    +0.000 N 
ATOM     11  C   UNL     1       4.397   6.022  18.390  0.00  0.00    +0.000 A 
ATOM     12  O   UNL     1       4.866   7.065  17.926  0.00  0.00    +0.000 OA
ENDROOT
BRANCH   1  14
ATOM     13  C   UNL     1       6.862   4.503  16.873  0.00  0.00    +0.000 C 
ATOM     14  C   UNL     1       6.611   5.010  18.286  0.00  0.00    +0.000 C 
ENDBRANCH   1  14
BRANCH  10  15
ATOM     15  C   UNL     1       2.167   7.000  18.262  0.00  0.00    +0.000 C 
BRANCH  15  16
ATOM     16  C   UNL     1       1.746   7.958  19.367  0.00  0.00    +0.000 A 
ATOM     17  C   UNL     1       1.724   7.553  20.715  0.00  0.00    +0.000 A 
ATOM     18  C   UNL     1       1.293   8.415  21.723  0.00  0.00    +0.000 A 
ATOM     19  C   UNL     1       0.896   9.707  21.408  0.00  0.00    +0.000 A 
ATOM     20  C   UNL     1       0.954  10.148  20.086  0.00  0.00    +0.000 A 
ATOM     21  C   UNL     1       1.390   9.293  19.059  0.00  0.00    +0.000 A 
ATOM     22  C   UNL     1       1.473   9.836  17.657  0.00  0.00    +0.000 C 
ENDBRANCH  15  16
ENDBRANCH  10  15
TORSDOF 3
ENDMDL
MODEL 9
REMARK VINA RESULT:      -6.4      3.326      5.509
REMARK  Name = 
REMARK  5 active torsions:
REMARK  status: ('A' for Active; 'I' for Inactive)
REMARK    1  A    between atoms: C_1  and  C_2
REMARK    2  A    between atoms: C_2  and  N_3
REMARK    3  A    between atoms: N_12  and  C_13
REMARK    4  A    between atoms: C_13  and  C_14
REMARK    5  A    between atoms: C_19  and  C_20
REMARK                            x       y       z     vdW  Elec       q    Type
REMARK                         _______ _______ _______ _____ _____    ______ ____
ROOT
ATOM      1  N   UNL     1       7.437   6.289  18.207  0.00  0.00    +0.000 N 
ATOM      2  C   UNL     1       7.338   6.318  16.824  0.00  0.00    +0.000 A 
ATOM      3  O   UNL     1       7.936   7.120  16.109  0.00  0.00    +0.000 OA
ATOM      4  C   UNL     1       6.465   5.312  16.203  0.00  0.00    +0.000 A 
ATOM      5  C   UNL     1       6.387   5.244  14.798  0.00  0.00    +0.000 A 
ATOM      6  C   UNL     1       5.565   4.301  14.193  0.00  0.00    +0.000 A 
ATOM      7  C   UNL     1       4.814   3.439  14.984  0.00  0.00    +0.000 A 
ATOM      8  C   UNL     1       4.896   3.508  16.381  0.00  0.00    +0.000 A 
ATOM      9  C   UNL     1       5.731   4.445  17.012  0.00  0.00    +0.000 A 
ATOM     10  N   UNL     1       5.882   4.514  18.426  0.00  0.00    +0.000 N 
ATOM     11  C   UNL     1       6.798   5.371  19.030  0.00  0.00    +0.000 A 
ATOM     12  O   UNL     1       7.031   5.322  20.241  0.00  0.00    +0.000 OA
ENDROOT
BRANCH   1  14
ATOM     13  C   UNL     1       8.183   8.646  18.239  0.00  0.00    +0.000 C 
ATOM     14  C   UNL     1       8.333   7.255  18.837  0.00  0.00    +0.000 C 
ENDBRANCH   1  14
BRANCH  10  15
ATOM     15  C   UNL     1       5.107   3.639  19.312  0.00  0.00    +0.000 C 
BRANCH  15  16
ATOM     16  C   UNL     1       3.668   4.059  19.576  0.00  0.00    +0.000 A 
ATOM     17  C   UNL     1       3.353   5.365  19.994  0.00  0.00    +0.000 A 
ATOM     18  C   UNL     1       2.041   5.737  20.281  0.00  0.00    +0.000 A 
ATOM     19  C   UNL     1       1.011   4.818  20.135  0.00  0.00    +0.000 A 
ATOM     20  C   UNL     1       1.291   3.531  19.676  0.00  0.00    +0.000 A 
ATOM     21  C   UNL     1       2.608   3.142  19.378  0.00  0.00    +0.000 A 
ATOM     22  C   UNL     1       2.845   1.753  18.845  0.00  0.00    +0.000 C 
ENDBRANCH  15  16
ENDBRANCH  10  15
TORSDOF 3
ENDMDL
