MODEL 1
REMARK VINA RESULT:      -6.4      0.000      0.000
REMARK  Name = 
REMARK  7 active torsions:
REMARK  status: ('A' for Active; 'I' for Inactive)
REMARK    1  A    between atoms: C_1  and  C_2
REMARK    2  A    between atoms: C_7  and  N_8
REMARK    3  A    between atoms: N_8  and  C_9
REMARK    4  A    between atoms: N_19  and  C_20
REMARK    5  A    between atoms: N_30  and  C_31
REMARK    6  A    between atoms: C_31  and  C_32
REMARK    7  A    between atoms: C_31  and  C_33
REMARK                            x       y       z     vdW  Elec       q    Type
REMARK                         _______ _______ _______ _____ _____    ______ ____
ROOT
ATOM      1  C   UNL     1      -3.563  13.635  23.251  0.00  0.00    +0.000 A 
ATOM      2  C   UNL     1      -2.461  12.930  23.558  0.00  0.00    +0.000 A 
ATOM      3  C   UNL     1      -1.750  12.034  22.615  0.00  0.00    +0.000 A 
ATOM      4  N   UNL     1      -0.770  11.330  23.097  0.00  0.00    +0.000 NA
ATOM      5  C   UNL     1      -0.126  10.430  22.236  0.00  0.00    +0.000 A 
ATOM      6  C   UNL     1       0.887   9.637  22.794  0.00  0.00    +0.000 A 
ATOM      7  C   UNL     1       1.601   8.725  22.019  0.00  0.00    +0.000 A 
ATOM      8  C   UNL     1       1.332   8.628  20.664  0.00  0.00    +0.000 A 
ATOM      9  C   UNL     1       0.345   9.436  20.092  0.00  0.00    +0.000 A 
ATOM     10  C   UNL     1      -0.453  10.306  20.865  0.00  0.00    +0.000 A 
ATOM     11  N   UNL     1      -1.555  11.070  20.310  0.00  0.00    +0.000 N 
ATOM     12  C   UNL     1      -2.247  11.943  21.203  0.00  0.00    +0.000 A 
ATOM     13  C   UNL     1      -3.362  12.639  20.941  0.00  0.00    +0.000 A 
ATOM     14  C   UNL     1      -4.080  13.581  21.838  0.00  0.00    +0.000 A 
ATOM     15  N   UNL     1      -5.104  14.306  21.500  0.00  0.00    +0.000 NA
ENDROOT
BRANCH  11  16
ATOM     16  C   UNL     1      -2.001  10.916  18.941  0.00  0.00    +0.000 A 
ATOM     17  C   UNL     1      -2.844   9.854  18.560  0.00  0.00    +0.000 A 
ATOM     18  C   UNL     1      -3.218   9.656  17.224  0.00  0.00    +0.000 A 
ATOM     19  C   UNL     1      -2.853  10.588  16.261  0.00  0.00    +0.000 A 
ATOM     20 BR   UNL     1      -3.386  10.345  14.465  0.00  0.00    +0.000 Br
ATOM     21  C   UNL     1      -2.086  11.692  16.613  0.00  0.00    +0.000 A 
ATOM     22  C   UNL     1      -1.619  11.820  17.928  0.00  0.00    +0.000 A 
ENDBRANCH  11  16
BRANCH  15  23
ATOM     23  C   UNL     1      -5.625  14.239  20.119  0.00  0.00    +0.000 C 
ATOM     24  C   UNL     1      -6.831  13.300  20.063  0.00  0.00    +0.000 C 
ATOM     25  C   UNL     1      -6.028  15.634  19.656  0.00  0.00    +0.000 C 
ENDBRANCH  15  23
BRANCH   1  26
ATOM     26  N   UNL     1      -4.321  14.351  24.187  0.00  0.00    +0.000 N 
ATOM     27  H   UNL     1      -4.340  13.799  25.059  0.00  0.00    +0.000 HD
BRANCH  26  34
ATOM     28  C   UNL     1      -6.175  16.686  23.853  0.00  0.00    +0.000 C 
ATOM     29  C   UNL     1      -4.800  16.787  24.446  0.00  0.00    +0.000 A 
ATOM     30  N   UNL     1      -4.448  18.045  24.840  0.00  0.00    +0.000 NA
ATOM     31  C   UNL     1      -3.227  18.220  25.382  0.00  0.00    +0.000 A 
ATOM     32  C   UNL     1      -2.327  17.191  25.576  0.00  0.00    +0.000 A 
ATOM     33  C   UNL     1      -2.700  15.916  25.164  0.00  0.00    +0.000 A 
ATOM     34  C   UNL     1      -3.936  15.683  24.549  0.00  0.00    +0.000 A 
ENDBRANCH  26  34
ENDBRANCH   1  26
TORSDOF 4
ENDMDL
MODEL 2
REMARK VINA RESULT:      -6.4      3.859      5.490
REMARK  Name = 
REMARK  7 active torsions:
REMARK  status: ('A' for Active; 'I' for Inactive)
REMARK    1  A    between atoms: C_1  and  C_2
REMARK    2  A    between atoms: C_7  and  N_8
REMARK    3  A    between atoms: N_8  and  C_9
REMARK    4  A    between atoms: N_19  and  C_20
REMARK    5  A    between atoms: N_30  and  C_31
REMARK    6  A    between atoms: C_31  and  C_32
REMARK    7  A    between atoms: C_31  and  C_33
REMARK                            x       y       z     vdW  Elec       q    Type
REMARK                         _______ _______ _______ _____ _____    ______ ____
ROOT
ATOM      1  C   UNL     1      -4.028  13.776  20.579  0.00  0.00    +0.000 A 
ATOM      2  C   UNL     1      -3.559  12.615  20.089  0.00  0.00    +0.000 A 
ATOM      3  C   UNL     1      -2.138  12.358  19.758  0.00  0.00    +0.000 A 
ATOM      4  N   UNL     1      -1.862  11.228  19.181  0.00  0.00    +0.000 NA
ATOM      5  C   UNL     1      -0.532  10.993  18.803  0.00  0.00    +0.000 A 
ATOM      6  C   UNL     1      -0.270   9.793  18.127  0.00  0.00    +0.000 A 
ATOM      7  C   UNL     1       1.021   9.456  17.726  0.00  0.00    +0.000 A 
ATOM      8  C   UNL     1       2.072  10.304  18.035  0.00  0.00    +0.000 A 
ATOM      9  C   UNL     1       1.825  11.489  18.736  0.00  0.00    +0.000 A 
ATOM     10  C   UNL     1       0.519  11.898  19.080  0.00  0.00    +0.000 A 
ATOM     11  N   UNL     1       0.231  13.174  19.708  0.00  0.00    +0.000 N 
ATOM     12  C   UNL     1      -1.133  13.435  20.039  0.00  0.00    +0.000 A 
ATOM     13  C   UNL     1      -1.640  14.587  20.503  0.00  0.00    +0.000 A 
ATOM     14  C   UNL     1      -3.045  14.873  20.889  0.00  0.00    +0.000 A 
ATOM     15  N   UNL     1      -3.466  15.979  21.427  0.00  0.00    +0.000 NA
ENDROOT
BRANCH  11  16
ATOM     16  C   UNL     1       1.246  14.183  19.929  0.00  0.00    +0.000 A 
ATOM     17  C   UNL     1       1.936  14.273  21.154  0.00  0.00    +0.000 A 
ATOM     18  C   UNL     1       2.864  15.292  21.402  0.00  0.00    +0.000 A 
ATOM     19  C   UNL     1       3.208  16.173  20.385  0.00  0.00    +0.000 A 
ATOM     20 BR   UNL     1       4.486  17.527  20.702  0.00  0.00    +0.000 Br
ATOM     21  C   UNL     1       2.605  16.068  19.137  0.00  0.00    +0.000 A 
ATOM     22  C   UNL     1       1.594  15.119  18.934  0.00  0.00    +0.000 A 
ENDBRANCH  11  16
BRANCH  15  23
ATOM     23  C   UNL     1      -2.506  17.065  21.713  0.00  0.00    +0.000 C 
ATOM     24  C   UNL     1      -2.803  18.271  20.821  0.00  0.00    +0.000 C 
ATOM     25  C   UNL     1      -2.606  17.462  23.181  0.00  0.00    +0.000 C 
ENDBRANCH  15  23
BRANCH   1  26
ATOM     26  N   UNL     1      -5.389  14.067  20.737  0.00  0.00    +0.000 N 
ATOM     27  H   UNL     1      -5.848  13.912  19.825  0.00  0.00    +0.000 HD
BRANCH  26  34
ATOM     28  C   UNL     1      -7.224  11.817  19.980  0.00  0.00    +0.000 C 
ATOM     29  C   UNL     1      -6.995  12.271  21.392  0.00  0.00    +0.000 A 
ATOM     30  N   UNL     1      -7.690  11.566  22.331  0.00  0.00    +0.000 NA
ATOM     31  C   UNL     1      -7.539  11.913  23.624  0.00  0.00    +0.000 A 
ATOM     32  C   UNL     1      -6.705  12.929  24.046  0.00  0.00    +0.000 A 
ATOM     33  C   UNL     1      -6.008  13.641  23.076  0.00  0.00    +0.000 A 
ATOM     34  C   UNL     1      -6.163  13.358  21.714  0.00  0.00    +0.000 A 
ENDBRANCH  26  34
ENDBRANCH   1  26
TORSDOF 4
ENDMDL
MODEL 3
REMARK VINA RESULT:      -6.2      7.296     10.673
REMARK  Name = 
REMARK  7 active torsions:
REMARK  status: ('A' for Active; 'I' for Inactive)
REMARK    1  A    between atoms: C_1  and  C_2
REMARK    2  A    between atoms: C_7  and  N_8
REMARK    3  A    between atoms: N_8  and  C_9
REMARK    4  A    between atoms: N_19  and  C_20
REMARK    5  A    between atoms: N_30  and  C_31
REMARK    6  A    between atoms: C_31  and  C_32
REMARK    7  A    between atoms: C_31  and  C_33
REMARK                            x       y       z     vdW  Elec       q    Type
REMARK                         _______ _______ _______ _____ _____    ______ ____
ROOT
ATOM      1  C   UNL     1       6.230  15.775  19.712  0.00  0.00    +0.000 A 
ATOM      2  C   UNL     1       5.577  16.498  18.786  0.00  0.00    +0.000 A 
ATOM      3  C   UNL     1       4.104  16.655  18.731  0.00  0.00    +0.000 A 
ATOM      4  N   UNL     1       3.617  17.287  17.706  0.00  0.00    +0.000 NA
ATOM      5  C   UNL     1       2.222  17.390  17.604  0.00  0.00    +0.000 A 
ATOM      6  C   UNL     1       1.718  18.023  16.458  0.00  0.00    +0.000 A 
ATOM      7  C   UNL     1       0.348  18.194  16.270  0.00  0.00    +0.000 A 
ATOM      8  C   UNL     1      -0.531  17.766  17.252  0.00  0.00    +0.000 A 
ATOM      9  C   UNL     1      -0.037  17.162  18.412  0.00  0.00    +0.000 A 
ATOM     10  C   UNL     1       1.338  16.898  18.592  0.00  0.00    +0.000 A 
ATOM     11  N   UNL     1       1.860  16.174  19.736  0.00  0.00    +0.000 N 
ATOM     12  C   UNL     1       3.277  16.019  19.809  0.00  0.00    +0.000 A 
ATOM     13  C   UNL     1       3.960  15.286  20.699  0.00  0.00    +0.000 A 
ATOM     14  C   UNL     1       5.433  15.137  20.818  0.00  0.00    +0.000 A 
ATOM     15  N   UNL     1       6.048  14.490  21.763  0.00  0.00    +0.000 NA
ENDROOT
BRANCH  11  16
ATOM     16  C   UNL     1       1.003  15.561  20.731  0.00  0.00    +0.000 A 
ATOM     17  C   UNL     1       0.524  14.246  20.575  0.00  0.00    +0.000 A 
ATOM     18  C   UNL     1      -0.365  13.674  21.494  0.00  0.00    +0.000 A 
ATOM     19  C   UNL     1      -0.699  14.366  22.651  0.00  0.00    +0.000 A 
ATOM     20 BR   UNL     1      -1.869  13.585  23.912  0.00  0.00    +0.000 Br
ATOM     21  C   UNL     1      -0.184  15.637  22.878  0.00  0.00    +0.000 A 
ATOM     22  C   UNL     1       0.610  16.247  21.899  0.00  0.00    +0.000 A 
ENDBRANCH  11  16
BRANCH  15  23
ATOM     23  C   UNL     1       5.266  13.846  22.838  0.00  0.00    +0.000 C 
ATOM     24  C   UNL     1       5.958  12.556  23.284  0.00  0.00    +0.000 C 
ATOM     25  C   UNL     1       5.134  14.802  24.017  0.00  0.00    +0.000 C 
ENDBRANCH  15  23
BRANCH   1  26
ATOM     26  N   UNL     1       7.603  15.499  19.666  0.00  0.00    +0.000 N 
ATOM     27  H   UNL     1       7.951  15.488  20.638  0.00  0.00    +0.000 HD
BRANCH  26  34
ATOM     28  C   UNL     1       9.548  13.665  21.027  0.00  0.00    +0.000 C 
ATOM     29  C   UNL     1       8.944  13.393  19.681  0.00  0.00    +0.000 A 
ATOM     30  N   UNL     1       9.344  12.220  19.110  0.00  0.00    +0.000 NA
ATOM     31  C   UNL     1       8.846  11.903  17.899  0.00  0.00    +0.000 A 
ATOM     32  C   UNL     1       7.940  12.693  17.219  0.00  0.00    +0.000 A 
ATOM     33  C   UNL     1       7.546  13.887  17.813  0.00  0.00    +0.000 A 
ATOM     34  C   UNL     1       8.068  14.292  19.047  0.00  0.00    +0.000 A 
ENDBRANCH  26  34
ENDBRANCH   1  26
TORSDOF 4
ENDMDL
MODEL 4
REMARK VINA RESULT:      -6.2      9.209     11.462
REMARK  Name = 
REMARK  7 active torsions:
REMARK  status: ('A' for Active; 'I' for Inactive)
REMARK    1  A    between atoms: C_1  and  C_2
REMARK    2  A    between atoms: C_7  and  N_8
REMARK    3  A    between atoms: N_8  and  C_9
REMARK    4  A    between atoms: N_19  and  C_20
REMARK    5  A    between atoms: N_30  and  C_31
REMARK    6  A    between atoms: C_31  and  C_32
REMARK    7  A    between atoms: C_31  and  C_33
REMARK                            x       y       z     vdW  Elec       q    Type
REMARK                         _______ _______ _______ _____ _____    ______ ____
ROOT
ATOM      1  C   UNL     1       5.104  15.261  18.417  0.00  0.00    +0.000 A 
ATOM      2  C   UNL     1       6.026  14.450  17.869  0.00  0.00    +0.000 A 
ATOM      3  C   UNL     1       7.343  14.147  18.478  0.00  0.00    +0.000 A 
ATOM      4  N   UNL     1       8.171  13.440  17.770  0.00  0.00    +0.000 NA
ATOM      5  C   UNL     1       9.445  13.197  18.302  0.00  0.00    +0.000 A 
ATOM      6  C   UNL     1      10.342  12.483  17.494  0.00  0.00    +0.000 A 
ATOM      7  C   UNL     1      11.626  12.173  17.937  0.00  0.00    +0.000 A 
ATOM      8  C   UNL     1      12.011  12.542  19.216  0.00  0.00    +0.000 A 
ATOM      9  C   UNL     1      11.113  13.226  20.041  0.00  0.00    +0.000 A 
ATOM     10  C   UNL     1       9.838  13.629  19.591  0.00  0.00    +0.000 A 
ATOM     11  N   UNL     1       8.936  14.436  20.391  0.00  0.00    +0.000 N 
ATOM     12  C   UNL     1       7.660  14.731  19.823  0.00  0.00    +0.000 A 
ATOM     13  C   UNL     1       6.729  15.555  20.325  0.00  0.00    +0.000 A 
ATOM     14  C   UNL     1       5.382  15.851  19.773  0.00  0.00    +0.000 A 
ATOM     15  N   UNL     1       4.478  16.584  20.352  0.00  0.00    +0.000 NA
ENDROOT
BRANCH  11  16
ATOM     16  C   UNL     1       9.314  14.991  21.675  0.00  0.00    +0.000 A 
ATOM     17  C   UNL     1       8.891  14.402  22.881  0.00  0.00    +0.000 A 
ATOM     18  C   UNL     1       9.189  14.976  24.124  0.00  0.00    +0.000 A 
ATOM     19  C   UNL     1      10.019  16.088  24.187  0.00  0.00    +0.000 A 
ATOM     20 BR   UNL     1      10.454  16.845  25.862  0.00  0.00    +0.000 Br
ATOM     21  C   UNL     1      10.520  16.652  23.020  0.00  0.00    +0.000 A 
ATOM     22  C   UNL     1      10.122  16.142  21.778  0.00  0.00    +0.000 A 
ENDBRANCH  11  16
BRANCH  15  23
ATOM     23  C   UNL     1       4.757  17.181  21.675  0.00  0.00    +0.000 C 
ATOM     24  C   UNL     1       4.263  18.628  21.708  0.00  0.00    +0.000 C 
ATOM     25  C   UNL     1       4.062  16.366  22.760  0.00  0.00    +0.000 C 
ENDBRANCH  15  23
BRANCH   1  26
ATOM     26  N   UNL     1       3.934  15.670  17.764  0.00  0.00    +0.000 N 
ATOM     27  H   UNL     1       4.046  15.454  16.760  0.00  0.00    +0.000 HD
BRANCH  26  34
ATOM     28  C   UNL     1       1.580  17.426  18.376  0.00  0.00    +0.000 C 
ATOM     29  C   UNL     1       1.537  15.927  18.412  0.00  0.00    +0.000 A 
ATOM     30  N   UNL     1       0.319  15.406  18.742  0.00  0.00    +0.000 NA
ATOM     31  C   UNL     1       0.198  14.065  18.797  0.00  0.00    +0.000 A 
ATOM     32  C   UNL     1       1.234  13.196  18.517  0.00  0.00    +0.000 A 
ATOM     33  C   UNL     1       2.469  13.744  18.187  0.00  0.00    +0.000 A 
ATOM     34  C   UNL     1       2.668  15.129  18.164  0.00  0.00    +0.000 A 
ENDBRANCH  26  34
ENDBRANCH   1  26
TORSDOF 4
ENDMDL
MODEL 5
REMARK VINA RESULT:      -6.1      0.801      1.214
REMARK  Name = 
REMARK  7 active torsions:
REMARK  status: ('A' for Active; 'I' for Inactive)
REMARK    1  A    between atoms: C_1  and  C_2
REMARK    2  A    between atoms: C_7  and  N_8
REMARK    3  A    between atoms: N_8  and  C_9
REMARK    4  A    between atoms: N_19  and  C_20
REMARK    5  A    between atoms: N_30  and  C_31
REMARK    6  A    between atoms: C_31  and  C_32
REMARK    7  A    between atoms: C_31  and  C_33
REMARK                            x       y       z     vdW  Elec       q    Type
REMARK                         _______ _______ _______ _____ _____    ______ ____
ROOT
ATOM      1  C   UNL     1      -4.424  13.695  22.693  0.00  0.00    +0.000 A 
ATOM      2  C   UNL     1      -3.302  13.099  23.132  0.00  0.00    +0.000 A 
ATOM      3  C   UNL     1      -2.437  12.226  22.303  0.00  0.00    +0.000 A 
ATOM      4  N   UNL     1      -1.454  11.629  22.905  0.00  0.00    +0.000 NA
ATOM      5  C   UNL     1      -0.663  10.749  22.152  0.00  0.00    +0.000 A 
ATOM      6  C   UNL     1       0.354  10.069  22.837  0.00  0.00    +0.000 A 
ATOM      7  C   UNL     1       1.207   9.188  22.177  0.00  0.00    +0.000 A 
ATOM      8  C   UNL     1       1.073   9.009  20.810  0.00  0.00    +0.000 A 
ATOM      9  C   UNL     1       0.082   9.705  20.112  0.00  0.00    +0.000 A 
ATOM     10  C   UNL     1      -0.850  10.538  20.766  0.00  0.00    +0.000 A 
ATOM     11  N   UNL     1      -1.954  11.182  20.077  0.00  0.00    +0.000 N 
ATOM     12  C   UNL     1      -2.793  12.032  20.859  0.00  0.00    +0.000 A 
ATOM     13  C   UNL     1      -3.931  12.620  20.464  0.00  0.00    +0.000 A 
ATOM     14  C   UNL     1      -4.801  13.536  21.244  0.00  0.00    +0.000 A 
ATOM     15  N   UNL     1      -5.845  14.157  20.780  0.00  0.00    +0.000 NA
ENDROOT
BRANCH  11  16
ATOM     16  C   UNL     1      -2.258  10.931  18.683  0.00  0.00    +0.000 A 
ATOM     17  C   UNL     1      -1.866  11.832  17.674  0.00  0.00    +0.000 A 
ATOM     18  C   UNL     1      -2.222  11.635  16.334  0.00  0.00    +0.000 A 
ATOM     19  C   UNL     1      -2.877  10.469  15.960  0.00  0.00    +0.000 A 
ATOM     20 BR   UNL     1      -3.327  10.181  14.148  0.00  0.00    +0.000 Br
ATOM     21  C   UNL     1      -3.212   9.519  16.917  0.00  0.00    +0.000 A 
ATOM     22  C   UNL     1      -2.955   9.778  18.269  0.00  0.00    +0.000 A 
ENDBRANCH  11  16
BRANCH  15  23
ATOM     23  C   UNL     1      -6.229  13.986  19.364  0.00  0.00    +0.000 C 
ATOM     24  C   UNL     1      -7.437  13.055  19.261  0.00  0.00    +0.000 C 
ATOM     25  C   UNL     1      -6.562  15.344  18.757  0.00  0.00    +0.000 C 
ENDBRANCH  15  23
BRANCH   1  26
ATOM     26  N   UNL     1      -5.320  14.385  23.520  0.00  0.00    +0.000 N 
ATOM     27  H   UNL     1      -5.453  13.820  24.374  0.00  0.00    +0.000 HD
BRANCH  26  34
ATOM     28  C   UNL     1      -7.112  16.708  22.893  0.00  0.00    +0.000 C 
ATOM     29  C   UNL     1      -5.858  16.816  23.709  0.00  0.00    +0.000 A 
ATOM     30  N   UNL     1      -5.588  18.073  24.166  0.00  0.00    +0.000 NA
ATOM     31  C   UNL     1      -4.478  18.253  24.907  0.00  0.00    +0.000 A 
ATOM     32  C   UNL     1      -3.614  17.230  25.243  0.00  0.00    +0.000 A 
ATOM     33  C   UNL     1      -3.901  15.955  24.766  0.00  0.00    +0.000 A 
ATOM     34  C   UNL     1      -5.013  15.718  23.950  0.00  0.00    +0.000 A 
ENDBRANCH  26  34
ENDBRANCH   1  26
TORSDOF 4
ENDMDL
MODEL 6
REMARK VINA RESULT:      -6.1      3.893      5.463
REMARK  Name = 
REMARK  7 active torsions:
REMARK  status: ('A' for Active; 'I' for Inactive)
REMARK    1  A    between atoms: C_1  and  C_2
REMARK    2  A    between atoms: C_7  and  N_8
REMARK    3  A    between atoms: N_8  and  C_9
REMARK    4  A    between atoms: N_19  and  C_20
REMARK    5  A    between atoms: N_30  and  C_31
REMARK    6  A    between atoms: C_31  and  C_32
REMARK    7  A    between atoms: C_31  and  C_33
REMARK                            x       y       z     vdW  Elec       q    Type
REMARK                         _______ _______ _______ _____ _____    ______ ____
ROOT
ATOM      1  C   UNL     1      -3.737  13.990  20.706  0.00  0.00    +0.000 A 
ATOM      2  C   UNL     1      -3.344  12.795  20.231  0.00  0.00    +0.000 A 
ATOM      3  C   UNL     1      -1.954  12.465  19.838  0.00  0.00    +0.000 A 
ATOM      4  N   UNL     1      -1.757  11.307  19.285  0.00  0.00    +0.000 NA
ATOM      5  C   UNL     1      -0.460  11.002  18.848  0.00  0.00    +0.000 A 
ATOM      6  C   UNL     1      -0.284   9.770  18.200  0.00  0.00    +0.000 A 
ATOM      7  C   UNL     1       0.969   9.365  17.746  0.00  0.00    +0.000 A 
ATOM      8  C   UNL     1       2.069  10.174  17.974  0.00  0.00    +0.000 A 
ATOM      9  C   UNL     1       1.910  11.389  18.647  0.00  0.00    +0.000 A 
ATOM     10  C   UNL     1       0.643  11.866  19.043  0.00  0.00    +0.000 A 
ATOM     11  N   UNL     1       0.442  13.172  19.643  0.00  0.00    +0.000 N 
ATOM     12  C   UNL     1      -0.890  13.504  20.033  0.00  0.00    +0.000 A 
ATOM     13  C   UNL     1      -1.323  14.691  20.484  0.00  0.00    +0.000 A 
ATOM     14  C   UNL     1      -2.693  15.051  20.931  0.00  0.00    +0.000 A 
ATOM     15  N   UNL     1      -3.037  16.191  21.452  0.00  0.00    +0.000 NA
ENDROOT
BRANCH  11  16
ATOM     16  C   UNL     1       1.510  14.142  19.780  0.00  0.00    +0.000 A 
ATOM     17  C   UNL     1       2.284  14.218  20.954  0.00  0.00    +0.000 A 
ATOM     18  C   UNL     1       3.267  15.201  21.123  0.00  0.00    +0.000 A 
ATOM     19  C   UNL     1       3.577  16.054  20.072  0.00  0.00    +0.000 A 
ATOM     20 BR   UNL     1       4.927  17.358  20.282  0.00  0.00    +0.000 Br
ATOM     21  C   UNL     1       2.887  15.958  18.869  0.00  0.00    +0.000 A 
ATOM     22  C   UNL     1       1.828  15.050  18.749  0.00  0.00    +0.000 A 
ENDBRANCH  11  16
BRANCH  15  23
ATOM     23  C   UNL     1      -2.017  17.241  21.655  0.00  0.00    +0.000 C 
ATOM     24  C   UNL     1      -2.151  18.312  20.571  0.00  0.00    +0.000 C 
ATOM     25  C   UNL     1      -2.195  17.867  23.033  0.00  0.00    +0.000 C 
ENDBRANCH  15  23
BRANCH   1  26
ATOM     26  N   UNL     1      -5.074  14.347  20.922  0.00  0.00    +0.000 N 
ATOM     27  H   UNL     1      -5.536  14.394  20.000  0.00  0.00    +0.000 HD
BRANCH  26  34
ATOM     28  C   UNL     1      -4.953  14.504  23.916  0.00  0.00    +0.000 C 
ATOM     29  C   UNL     1      -5.900  13.617  23.162  0.00  0.00    +0.000 A 
ATOM     30  N   UNL     1      -6.729  12.876  23.953  0.00  0.00    +0.000 NA
ATOM     31  C   UNL     1      -7.609  12.052  23.352  0.00  0.00    +0.000 A 
ATOM     32  C   UNL     1      -7.728  11.937  21.982  0.00  0.00    +0.000 A 
ATOM     33  C   UNL     1      -6.873  12.696  21.189  0.00  0.00    +0.000 A 
ATOM     34  C   UNL     1      -5.904  13.531  21.759  0.00  0.00    +0.000 A 
ENDBRANCH  26  34
ENDBRANCH   1  26
TORSDOF 4
ENDMDL
MODEL 7
REMARK VINA RESULT:      -6.1      3.338      8.192
REMARK  Name = 
REMARK  7 active torsions:
REMARK  status: ('A' for Active; 'I' for Inactive)
REMARK    1  A    between atoms: C_1  and  C_2
REMARK    2  A    between atoms: C_7  and  N_8
REMARK    3  A    between atoms: N_8  and  C_9
REMARK    4  A    between atoms: N_19  and  C_20
REMARK    5  A    between atoms: N_30  and  C_31
REMARK    6  A    between atoms: C_31  and  C_32
REMARK    7  A    between atoms: C_31  and  C_33
REMARK                            x       y       z     vdW  Elec       q    Type
REMARK                         _______ _______ _______ _____ _____    ______ ____
ROOT
ATOM      1  C   UNL     1      -0.033  11.986  18.859  0.00  0.00    +0.000 A 
ATOM      2  C   UNL     1      -1.182  11.482  18.375  0.00  0.00    +0.000 A 
ATOM      3  C   UNL     1      -2.532  11.860  18.857  0.00  0.00    +0.000 A 
ATOM      4  N   UNL     1      -3.538  11.198  18.371  0.00  0.00    +0.000 NA
ATOM      5  C   UNL     1      -4.816  11.497  18.862  0.00  0.00    +0.000 A 
ATOM      6  C   UNL     1      -5.880  10.727  18.367  0.00  0.00    +0.000 A 
ATOM      7  C   UNL     1      -7.191  10.958  18.776  0.00  0.00    +0.000 A 
ATOM      8  C   UNL     1      -7.456  11.994  19.657  0.00  0.00    +0.000 A 
ATOM      9  C   UNL     1      -6.407  12.787  20.132  0.00  0.00    +0.000 A 
ATOM     10  C   UNL     1      -5.060  12.524  19.804  0.00  0.00    +0.000 A 
ATOM     11  N   UNL     1      -3.949  13.265  20.372  0.00  0.00    +0.000 N 
ATOM     12  C   UNL     1      -2.642  12.918  19.914  0.00  0.00    +0.000 A 
ATOM     13  C   UNL     1      -1.477  13.378  20.391  0.00  0.00    +0.000 A 
ATOM     14  C   UNL     1      -0.108  13.062  19.909  0.00  0.00    +0.000 A 
ATOM     15  N   UNL     1       0.987  13.611  20.344  0.00  0.00    +0.000 NA
ENDROOT
BRANCH  11  16
ATOM     16  C   UNL     1      -4.123  14.259  21.412  0.00  0.00    +0.000 A 
ATOM     17  C   UNL     1      -4.222  15.630  21.105  0.00  0.00    +0.000 A 
ATOM     18  C   UNL     1      -4.314  16.603  22.108  0.00  0.00    +0.000 A 
ATOM     19  C   UNL     1      -4.428  16.213  23.437  0.00  0.00    +0.000 A 
ATOM     20 BR   UNL     1      -4.589  17.520  24.791  0.00  0.00    +0.000 Br
ATOM     21  C   UNL     1      -4.412  14.865  23.772  0.00  0.00    +0.000 A 
ATOM     22  C   UNL     1      -4.204  13.905  22.774  0.00  0.00    +0.000 A 
ENDBRANCH  11  16
BRANCH  15  23
ATOM     23  C   UNL     1       0.918  14.653  21.390  0.00  0.00    +0.000 C 
ATOM     24  C   UNL     1       2.311  14.901  21.971  0.00  0.00    +0.000 C 
ATOM     25  C   UNL     1       0.363  15.941  20.793  0.00  0.00    +0.000 C 
ENDBRANCH  15  23
BRANCH   1  26
ATOM     26  N   UNL     1       1.238  11.509  18.514  0.00  0.00    +0.000 N 
ATOM     27  H   UNL     1       1.933  12.080  19.023  0.00  0.00    +0.000 HD
BRANCH  26  34
ATOM     28  C   UNL     1       0.867  10.229  21.201  0.00  0.00    +0.000 C 
ATOM     29  C   UNL     1       1.370   9.500  19.990  0.00  0.00    +0.000 A 
ATOM     30  N   UNL     1       1.645   8.180  20.199  0.00  0.00    +0.000 NA
ATOM     31  C   UNL     1       2.102   7.455  19.159  0.00  0.00    +0.000 A 
ATOM     32  C   UNL     1       2.286   7.975  17.894  0.00  0.00    +0.000 A 
ATOM     33  C   UNL     1       2.006   9.324  17.698  0.00  0.00    +0.000 A 
ATOM     34  C   UNL     1       1.576  10.137  18.753  0.00  0.00    +0.000 A 
ENDBRANCH  26  34
ENDBRANCH   1  26
TORSDOF 4
ENDMDL
MODEL 8
REMARK VINA RESULT:      -6.1      5.437      7.637
REMARK  Name = 
REMARK  7 active torsions:
REMARK  status: ('A' for Active; 'I' for Inactive)
REMARK    1  A    between atoms: C_1  and  C_2
REMARK    2  A    between atoms: C_7  and  N_8
REMARK    3  A    between atoms: N_8  and  C_9
REMARK    4  A    between atoms: N_19  and  C_20
REMARK    5  A    between atoms: N_30  and  C_31
REMARK    6  A    between atoms: C_31  and  C_32
REMARK    7  A    between atoms: C_31  and  C_33
REMARK                            x       y       z     vdW  Elec       q    Type
REMARK                         _______ _______ _______ _____ _____    ______ ____
ROOT
ATOM      1  C   UNL     1       2.303  14.757  18.574  0.00  0.00    +0.000 A 
ATOM      2  C   UNL     1       2.327  13.460  18.928  0.00  0.00    +0.000 A 
ATOM      3  C   UNL     1       1.405  12.842  19.911  0.00  0.00    +0.000 A 
ATOM      4  N   UNL     1       1.632  11.605  20.234  0.00  0.00    +0.000 NA
ATOM      5  C   UNL     1       0.810  11.023  21.209  0.00  0.00    +0.000 A 
ATOM      6  C   UNL     1       1.112   9.706  21.587  0.00  0.00    +0.000 A 
ATOM      7  C   UNL     1       0.344   9.031  22.533  0.00  0.00    +0.000 A 
ATOM      8  C   UNL     1      -0.762   9.657  23.082  0.00  0.00    +0.000 A 
ATOM      9  C   UNL     1      -1.090  10.958  22.690  0.00  0.00    +0.000 A 
ATOM     10  C   UNL     1      -0.284  11.698  21.799  0.00  0.00    +0.000 A 
ATOM     11  N   UNL     1      -0.545  13.086  21.465  0.00  0.00    +0.000 N 
ATOM     12  C   UNL     1       0.330  13.695  20.515  0.00  0.00    +0.000 A 
ATOM     13  C   UNL     1       0.353  14.988  20.159  0.00  0.00    +0.000 A 
ATOM     14  C   UNL     1       1.227  15.638  19.149  0.00  0.00    +0.000 A 
ATOM     15  N   UNL     1       1.142  16.879  18.771  0.00  0.00    +0.000 NA
ENDROOT
BRANCH  11  16
ATOM     16  C   UNL     1      -1.587  13.862  22.106  0.00  0.00    +0.000 A 
ATOM     17  C   UNL     1      -1.359  14.528  23.326  0.00  0.00    +0.000 A 
ATOM     18  C   UNL     1      -2.382  15.217  23.989  0.00  0.00    +0.000 A 
ATOM     19  C   UNL     1      -3.625  15.354  23.385  0.00  0.00    +0.000 A 
ATOM     20 BR   UNL     1      -4.998  16.313  24.258  0.00  0.00    +0.000 Br
ATOM     21  C   UNL     1      -3.865  14.776  22.144  0.00  0.00    +0.000 A 
ATOM     22  C   UNL     1      -2.872  13.991  21.542  0.00  0.00    +0.000 A 
ENDBRANCH  11  16
BRANCH  15  23
ATOM     23  C   UNL     1       0.099  17.751  19.349  0.00  0.00    +0.000 C 
ATOM     24  C   UNL     1       0.703  18.631  20.444  0.00  0.00    +0.000 C 
ATOM     25  C   UNL     1      -0.506  18.621  18.253  0.00  0.00    +0.000 C 
ENDBRANCH  15  23
BRANCH   1  26
ATOM     26  N   UNL     1       3.275  15.368  17.771  0.00  0.00    +0.000 N 
ATOM     27  H   UNL     1       2.990  16.351  17.632  0.00  0.00    +0.000 HD
BRANCH  26  34
ATOM     28  C   UNL     1       4.250  17.273  19.873  0.00  0.00    +0.000 C 
ATOM     29  C   UNL     1       5.117  16.242  19.212  0.00  0.00    +0.000 A 
ATOM     30  N   UNL     1       6.409  16.225  19.651  0.00  0.00    +0.000 NA
ATOM     31  C   UNL     1       7.252  15.327  19.106  0.00  0.00    +0.000 A 
ATOM     32  C   UNL     1       6.870  14.414  18.143  0.00  0.00    +0.000 A 
ATOM     33  C   UNL     1       5.551  14.448  17.703  0.00  0.00    +0.000 A 
ATOM     34  C   UNL     1       4.643  15.391  18.198  0.00  0.00    +0.000 A 
ENDBRANCH  26  34
ENDBRANCH   1  26
TORSDOF 4
ENDMDL
MODEL 9
REMARK VINA RESULT:      -6.0      4.680      8.238
REMARK  Name = 
REMARK  7 active torsions:
REMARK  status: ('A' for Active; 'I' for Inactive)
REMARK    1  A    between atoms: C_1  and  C_2
REMARK    2  A    between atoms: C_7  and  N_8
REMARK    3  A    between atoms: N_8  and  C_9
REMARK    4  A    between atoms: N_19  and  C_20
REMARK    5  A    between atoms: N_30  and  C_31
REMARK    6  A    between atoms: C_31  and  C_32
REMARK    7  A    between atoms: C_31  and  C_33
REMARK                            x       y       z     vdW  Elec       q    Type
REMARK                         _______ _______ _______ _____ _____    ______ ____
ROOT
ATOM      1  C   UNL     1       1.175  11.420  18.602  0.00  0.00    +0.000 A 
ATOM      2  C   UNL     1       2.208  12.148  19.061  0.00  0.00    +0.000 A 
ATOM      3  C   UNL     1       2.124  13.579  19.437  0.00  0.00    +0.000 A 
ATOM      4  N   UNL     1       3.236  14.173  19.748  0.00  0.00    +0.000 NA
ATOM      5  C   UNL     1       3.185  15.542  20.045  0.00  0.00    +0.000 A 
ATOM      6  C   UNL     1       4.407  16.175  20.319  0.00  0.00    +0.000 A 
ATOM      7  C   UNL     1       4.463  17.529  20.644  0.00  0.00    +0.000 A 
ATOM      8  C   UNL     1       3.287  18.254  20.738  0.00  0.00    +0.000 A 
ATOM      9  C   UNL     1       2.062  17.626  20.497  0.00  0.00    +0.000 A 
ATOM     10  C   UNL     1       1.978  16.279  20.083  0.00  0.00    +0.000 A 
ATOM     11  N   UNL     1       0.727  15.640  19.721  0.00  0.00    +0.000 N 
ATOM     12  C   UNL     1       0.789  14.260  19.362  0.00  0.00    +0.000 A 
ATOM     13  C   UNL     1      -0.211  13.510  18.877  0.00  0.00    +0.000 A 
ATOM     14  C   UNL     1      -0.183  12.066  18.531  0.00  0.00    +0.000 A 
ATOM     15  N   UNL     1      -1.210  11.364  18.155  0.00  0.00    +0.000 NA
ENDROOT
BRANCH  11  16
ATOM     16  C   UNL     1      -0.527  16.362  19.644  0.00  0.00    +0.000 A 
ATOM     17  C   UNL     1      -1.509  16.233  20.645  0.00  0.00    +0.000 A 
ATOM     18  C   UNL     1      -2.752  16.869  20.541  0.00  0.00    +0.000 A 
ATOM     19  C   UNL     1      -2.993  17.743  19.488  0.00  0.00    +0.000 A 
ATOM     20 BR   UNL     1      -4.655  18.631  19.362  0.00  0.00    +0.000 Br
ATOM     21  C   UNL     1      -2.018  17.956  18.521  0.00  0.00    +0.000 A 
ATOM     22  C   UNL     1      -0.822  17.228  18.572  0.00  0.00    +0.000 A 
ENDBRANCH  11  16
BRANCH  15  23
ATOM     23  C   UNL     1      -2.540  12.001  18.065  0.00  0.00    +0.000 C 
ATOM     24  C   UNL     1      -3.379  11.306  16.992  0.00  0.00    +0.000 C 
ATOM     25  C   UNL     1      -3.241  11.915  19.415  0.00  0.00    +0.000 C 
ENDBRANCH  15  23
BRANCH   1  26
ATOM     26  N   UNL     1       1.296  10.118  18.098  0.00  0.00    +0.000 N 
ATOM     27  H   UNL     1       2.130  10.098  17.488  0.00  0.00    +0.000 HD
BRANCH  26  34
ATOM     28  C   UNL     1       3.044   7.758  17.489  0.00  0.00    +0.000 C 
ATOM     29  C   UNL     1       2.263   7.914  18.760  0.00  0.00    +0.000 A 
ATOM     30  N   UNL     1       2.414   6.886  19.645  0.00  0.00    +0.000 NA
ATOM     31  C   UNL     1       1.744   6.952  20.812  0.00  0.00    +0.000 A 
ATOM     32  C   UNL     1       0.931   8.011  21.164  0.00  0.00    +0.000 A 
ATOM     33  C   UNL     1       0.784   9.048  20.249  0.00  0.00    +0.000 A 
ATOM     34  C   UNL     1       1.416   9.011  19.000  0.00  0.00    +0.000 A 
ENDBRANCH  26  34
ENDBRANCH   1  26
TORSDOF 4
ENDMDL
