MODEL 1
REMARK VINA RESULT:      -6.5      0.000      0.000
REMARK  Name = 
REMARK  12 active torsions:
REMARK  status: ('A' for Active; 'I' for Inactive)
REMARK    1  A    between atoms: CB_1  and  CA_2
REMARK    2  A    between atoms: CA_2  and  N_3
REMARK    3  A    between atoms: CA_2  and  C_20
REMARK    4  A    between atoms: C_4  and  CA_6
REMARK    5  A    between atoms: CA_6  and  CB_7
REMARK    6  A    between atoms: CA_6  and  N_11
REMARK    7  A    between atoms: CB_7  and  CG_8
REMARK    8  A    between atoms: C_12  and  CA_14
REMARK    9  A    between atoms: CA_14  and  N_15
REMARK   10  A    between atoms: CA_14  and  CB_16
REMARK   11  A    between atoms: CB_16  and  CG_17
REMARK   12  A    between atoms: C_20  and  OXT_22
REMARK                            x       y       z     vdW  Elec       q    Type
REMARK                         _______ _______ _______ _____ _____    ______ ____
ROOT
ATOM      1  CA  ASN A   2       3.750   3.016  17.398  0.00  0.00    +0.000 C 
ENDROOT
BRANCH   1   3
ATOM      2  N   ALA A   3       3.229   5.290  18.229  0.00  0.00    +0.000 N 
ATOM      3  C   ASN A   2       2.730   4.148  17.659  0.00  0.00    +0.000 C 
ATOM      4  O   ASN A   2       1.566   4.066  17.269  0.00  0.00    +0.000 OA
ATOM      5  H   ALA A   3       4.212   5.351  18.492  0.00  0.00    +0.000 HD
BRANCH   2   7
ATOM      6  CB  ALA A   3       2.266   6.841  19.905  0.00  0.00    +0.000 C 
ATOM      7  CA  ALA A   3       2.432   6.505  18.426  0.00  0.00    +0.000 C 
BRANCH   7   8
ATOM      8  C   ALA A   3       3.123   7.646  17.669  0.00  0.00    +0.000 C 
ATOM      9  O   ALA A   3       2.574   8.713  17.418  0.00  0.00    +0.000 OA
BRANCH   8  10
ATOM     10  OXT ALA A   3       4.408   7.405  17.325  0.00  0.00    +0.000 OA
ATOM     11  HXT ALA A   3       4.785   6.575  17.673  0.00  0.00    +0.000 HD
ENDBRANCH   8  10
ENDBRANCH   7   8
ENDBRANCH   2   7
ENDBRANCH   1   3
BRANCH   1  12
ATOM     12  N   ASN A   2       5.119   3.520  17.359  0.00  0.00    +0.000 N 
ATOM     13  C   ASN A   1       5.631   4.160  16.250  0.00  0.00    +0.000 C 
ATOM     14  O   ASN A   1       5.020   4.250  15.191  0.00  0.00    +0.000 OA
ATOM     15  H   ASN A   2       5.566   3.702  18.252  0.00  0.00    +0.000 HD
BRANCH  13  16
ATOM     16  CA  ASN A   1       7.100   4.596  16.435  0.00  0.00    +0.000 C 
BRANCH  16  17
ATOM     17  N   ASN A   1       7.223   6.001  15.961  0.00  0.00    +0.000 NA
ATOM     18  H1  ASN A   1       6.649   6.587  16.579  0.00  0.00    +0.000 HD
ATOM     19  H2  ASN A   1       6.770   6.078  15.048  0.00  0.00    +0.000 HD
ENDBRANCH  16  17
BRANCH  16  20
ATOM     20  CB  ASN A   1       7.527   4.444  17.894  0.00  0.00    +0.000 C 
BRANCH  20  21
ATOM     21  CG  ASN A   1       7.168   5.592  18.815  0.00  0.00    +0.000 C 
ATOM     22  ND2 ASN A   1       8.114   6.542  19.046  0.00  0.00    +0.000 N 
ATOM     23  OD1 ASN A   1       6.060   5.687  19.339  0.00  0.00    +0.000 OA
ATOM     24 HD21 ASN A   1       8.833   6.684  18.339  0.00  0.00    +0.000 HD
ATOM     25 HD22 ASN A   1       7.801   7.363  19.548  0.00  0.00    +0.000 HD
ENDBRANCH  20  21
ENDBRANCH  16  20
ENDBRANCH  13  16
ENDBRANCH   1  12
BRANCH   1  26
ATOM     26  CB  ASN A   2       3.614   1.928  18.465  0.00  0.00    +0.000 C 
BRANCH  26  27
ATOM     27  CG  ASN A   2       4.000   2.286  19.894  0.00  0.00    +0.000 C 
ATOM     28  ND2 ASN A   2       3.032   2.607  20.796  0.00  0.00    +0.000 N 
ATOM     29  OD1 ASN A   2       5.178   2.331  20.243  0.00  0.00    +0.000 OA
ATOM     30 HD21 ASN A   2       2.102   2.190  20.749  0.00  0.00    +0.000 HD
ATOM     31 HD22 ASN A   2       3.373   2.735  21.742  0.00  0.00    +0.000 HD
ENDBRANCH  26  27
ENDBRANCH   1  26
TORSDOF 11
ENDMDL
MODEL 2
REMARK VINA RESULT:      -6.5      2.454      4.610
REMARK  Name = 
REMARK  12 active torsions:
REMARK  status: ('A' for Active; 'I' for Inactive)
REMARK    1  A    between atoms: CB_1  and  CA_2
REMARK    2  A    between atoms: CA_2  and  N_3
REMARK    3  A    between atoms: CA_2  and  C_20
REMARK    4  A    between atoms: C_4  and  CA_6
REMARK    5  A    between atoms: CA_6  and  CB_7
REMARK    6  A    between atoms: CA_6  and  N_11
REMARK    7  A    between atoms: CB_7  and  CG_8
REMARK    8  A    between atoms: C_12  and  CA_14
REMARK    9  A    between atoms: CA_14  and  N_15
REMARK   10  A    between atoms: CA_14  and  CB_16
REMARK   11  A    between atoms: CB_16  and  CG_17
REMARK   12  A    between atoms: C_20  and  OXT_22
REMARK                            x       y       z     vdW  Elec       q    Type
REMARK                         _______ _______ _______ _____ _____    ______ ____
ROOT
ATOM      1  CA  ASN A   2       5.692   4.113  18.632  0.00  0.00    +0.000 C 
ENDROOT
BRANCH   1   3
ATOM      2  N   ALA A   3       3.296   3.834  19.194  0.00  0.00    +0.000 N 
ATOM      3  C   ASN A   2       4.565   3.343  19.358  0.00  0.00    +0.000 C 
ATOM      4  O   ASN A   2       4.788   2.288  19.951  0.00  0.00    +0.000 OA
ATOM      5  H   ALA A   3       3.135   4.681  18.651  0.00  0.00    +0.000 HD
BRANCH   2   7
ATOM      6  CB  ALA A   3       1.411   3.966  20.798  0.00  0.00    +0.000 C 
ATOM      7  CA  ALA A   3       2.100   3.156  19.704  0.00  0.00    +0.000 C 
BRANCH   7   8
ATOM      8  C   ALA A   3       1.161   2.910  18.517  0.00  0.00    +0.000 C 
ATOM      9  O   ALA A   3       0.269   2.068  18.532  0.00  0.00    +0.000 OA
BRANCH   8  10
ATOM     10  OXT ALA A   3       1.363   3.718  17.453  0.00  0.00    +0.000 OA
ATOM     11  HXT ALA A   3       0.569   3.918  16.923  0.00  0.00    +0.000 HD
ENDBRANCH   8  10
ENDBRANCH   7   8
ENDBRANCH   2   7
ENDBRANCH   1   3
BRANCH   1  12
ATOM     12  N   ASN A   2       5.337   4.413  17.249  0.00  0.00    +0.000 N 
ATOM     13  C   ASN A   1       6.282   4.464  16.245  0.00  0.00    +0.000 C 
ATOM     14  O   ASN A   1       7.486   4.376  16.458  0.00  0.00    +0.000 OA
ATOM     15  H   ASN A   2       4.373   4.243  16.976  0.00  0.00    +0.000 HD
BRANCH  13  16
ATOM     16  CA  ASN A   1       5.675   4.809  14.868  0.00  0.00    +0.000 C 
BRANCH  16  17
ATOM     17  N   ASN A   1       5.458   6.279  14.819  0.00  0.00    +0.000 NA
ATOM     18  H1  ASN A   1       4.543   6.443  14.381  0.00  0.00    +0.000 HD
ATOM     19  H2  ASN A   1       6.128   6.686  14.163  0.00  0.00    +0.000 HD
ENDBRANCH  16  17
BRANCH  16  20
ATOM     20  CB  ASN A   1       6.589   4.328  13.742  0.00  0.00    +0.000 C 
BRANCH  20  21
ATOM     21  CG  ASN A   1       5.931   3.492  12.662  0.00  0.00    +0.000 C 
ATOM     22  ND2 ASN A   1       6.687   2.549  12.039  0.00  0.00    +0.000 N 
ATOM     23  OD1 ASN A   1       4.751   3.639  12.351  0.00  0.00    +0.000 OA
ATOM     24 HD21 ASN A   1       7.485   2.164  12.544  0.00  0.00    +0.000 HD
ATOM     25 HD22 ASN A   1       6.188   1.917  11.428  0.00  0.00    +0.000 HD
ENDBRANCH  20  21
ENDBRANCH  16  20
ENDBRANCH  13  16
ENDBRANCH   1  12
BRANCH   1  26
ATOM     26  CB  ASN A   2       6.022   5.401  19.388  0.00  0.00    +0.000 C 
BRANCH  26  27
ATOM     27  CG  ASN A   2       7.489   5.705  19.662  0.00  0.00    +0.000 C 
ATOM     28  ND2 ASN A   2       8.177   6.525  18.821  0.00  0.00    +0.000 N 
ATOM     29  OD1 ASN A   2       8.079   5.191  20.610  0.00  0.00    +0.000 OA
ATOM     30 HD21 ASN A   2       7.718   7.294  18.332  0.00  0.00    +0.000 HD
ATOM     31 HD22 ASN A   2       9.116   6.747  19.136  0.00  0.00    +0.000 HD
ENDBRANCH  26  27
ENDBRANCH   1  26
TORSDOF 11
ENDMDL
MODEL 3
REMARK VINA RESULT:      -6.3      1.842      5.244
REMARK  Name = 
REMARK  12 active torsions:
REMARK  status: ('A' for Active; 'I' for Inactive)
REMARK    1  A    between atoms: CB_1  and  CA_2
REMARK    2  A    between atoms: CA_2  and  N_3
REMARK    3  A    between atoms: CA_2  and  C_20
REMARK    4  A    between atoms: C_4  and  CA_6
REMARK    5  A    between atoms: CA_6  and  CB_7
REMARK    6  A    between atoms: CA_6  and  N_11
REMARK    7  A    between atoms: CB_7  and  CG_8
REMARK    8  A    between atoms: C_12  and  CA_14
REMARK    9  A    between atoms: CA_14  and  N_15
REMARK   10  A    between atoms: CA_14  and  CB_16
REMARK   11  A    between atoms: CB_16  and  CG_17
REMARK   12  A    between atoms: C_20  and  OXT_22
REMARK                            x       y       z     vdW  Elec       q    Type
REMARK                         _______ _______ _______ _____ _____    ______ ____
ROOT
ATOM      1  CA  ASN A   2       2.952   6.294  17.990  0.00  0.00    +0.000 C 
ENDROOT
BRANCH   1   3
ATOM      2  N   ALA A   3       5.409   6.006  18.108  0.00  0.00    +0.000 N 
ATOM      3  C   ASN A   2       4.362   6.548  17.409  0.00  0.00    +0.000 C 
ATOM      4  O   ASN A   2       4.518   7.107  16.324  0.00  0.00    +0.000 OA
ATOM      5  H   ALA A   3       5.245   5.500  18.977  0.00  0.00    +0.000 HD
BRANCH   2   7
ATOM      6  CB  ALA A   3       7.793   5.950  18.785  0.00  0.00    +0.000 C 
ATOM      7  CA  ALA A   3       6.796   6.040  17.633  0.00  0.00    +0.000 C 
BRANCH   7   8
ATOM      8  C   ALA A   3       6.980   4.883  16.644  0.00  0.00    +0.000 C 
ATOM      9  O   ALA A   3       7.665   4.970  15.630  0.00  0.00    +0.000 OA
BRANCH   8  10
ATOM     10  OXT ALA A   3       6.358   3.734  16.989  0.00  0.00    +0.000 OA
ATOM     11  HXT ALA A   3       5.784   3.790  17.777  0.00  0.00    +0.000 HD
ENDBRANCH   8  10
ENDBRANCH   7   8
ENDBRANCH   2   7
ENDBRANCH   1   3
BRANCH   1  12
ATOM     12  N   ASN A   2       2.860   4.985  18.629  0.00  0.00    +0.000 N 
ATOM     13  C   ASN A   1       2.014   4.001  18.161  0.00  0.00    +0.000 C 
ATOM     14  O   ASN A   1       1.208   4.189  17.257  0.00  0.00    +0.000 OA
ATOM     15  H   ASN A   2       3.653   4.692  19.191  0.00  0.00    +0.000 HD
BRANCH  13  16
ATOM     16  CA  ASN A   1       2.078   2.707  19.001  0.00  0.00    +0.000 C 
BRANCH  16  17
ATOM     17  N   ASN A   1       0.866   1.901  18.691  0.00  0.00    +0.000 NA
ATOM     18  H1  ASN A   1       0.340   2.400  17.964  0.00  0.00    +0.000 HD
ATOM     19  H2  ASN A   1       0.248   1.918  19.506  0.00  0.00    +0.000 HD
ENDBRANCH  16  17
BRANCH  16  20
ATOM     20  CB  ASN A   1       3.366   1.939  18.709  0.00  0.00    +0.000 C 
BRANCH  20  21
ATOM     21  CG  ASN A   1       4.564   2.299  19.563  0.00  0.00    +0.000 C 
ATOM     22  ND2 ASN A   1       5.123   1.318  20.321  0.00  0.00    +0.000 N 
ATOM     23  OD1 ASN A   1       5.038   3.433  19.578  0.00  0.00    +0.000 OA
ATOM     24 HD21 ASN A   1       5.006   0.352  20.017  0.00  0.00    +0.000 HD
ATOM     25 HD22 ASN A   1       5.999   1.551  20.768  0.00  0.00    +0.000 HD
ENDBRANCH  20  21
ENDBRANCH  16  20
ENDBRANCH  13  16
ENDBRANCH   1  12
BRANCH   1  26
ATOM     26  CB  ASN A   2       2.583   7.398  18.982  0.00  0.00    +0.000 C 
BRANCH  26  27
ATOM     27  CG  ASN A   2       1.904   8.645  18.433  0.00  0.00    +0.000 C 
ATOM     28  ND2 ASN A   2       1.077   9.372  19.233  0.00  0.00    +0.000 N 
ATOM     29  OD1 ASN A   2       2.056   8.990  17.262  0.00  0.00    +0.000 OA
ATOM     30 HD21 ASN A   2       1.232   9.439  20.239  0.00  0.00    +0.000 HD
ATOM     31 HD22 ASN A   2       0.748  10.235  18.814  0.00  0.00    +0.000 HD
ENDBRANCH  26  27
ENDBRANCH   1  26
TORSDOF 11
ENDMDL
MODEL 4
REMARK VINA RESULT:      -6.3      2.494      5.453
REMARK  Name = 
REMARK  12 active torsions:
REMARK  status: ('A' for Active; 'I' for Inactive)
REMARK    1  A    between atoms: CB_1  and  CA_2
REMARK    2  A    between atoms: CA_2  and  N_3
REMARK    3  A    between atoms: CA_2  and  C_20
REMARK    4  A    between atoms: C_4  and  CA_6
REMARK    5  A    between atoms: CA_6  and  CB_7
REMARK    6  A    between atoms: CA_6  and  N_11
REMARK    7  A    between atoms: CB_7  and  CG_8
REMARK    8  A    between atoms: C_12  and  CA_14
REMARK    9  A    between atoms: CA_14  and  N_15
REMARK   10  A    between atoms: CA_14  and  CB_16
REMARK   11  A    between atoms: CB_16  and  CG_17
REMARK   12  A    between atoms: C_20  and  OXT_22
REMARK                            x       y       z     vdW  Elec       q    Type
REMARK                         _______ _______ _______ _____ _____    ______ ____
ROOT
ATOM      1  CA  ASN A   2       4.190   4.611  16.727  0.00  0.00    +0.000 C 
ENDROOT
BRANCH   1   3
ATOM      2  N   ALA A   3       5.404   4.228  14.602  0.00  0.00    +0.000 N 
ATOM      3  C   ASN A   2       5.434   4.095  15.966  0.00  0.00    +0.000 C 
ATOM      4  O   ASN A   2       6.432   3.697  16.565  0.00  0.00    +0.000 OA
ATOM      5  H   ALA A   3       4.584   4.612  14.137  0.00  0.00    +0.000 HD
BRANCH   2   7
ATOM      6  CB  ALA A   3       6.104   3.499  12.339  0.00  0.00    +0.000 C 
ATOM      7  CA  ALA A   3       6.547   3.911  13.739  0.00  0.00    +0.000 C 
BRANCH   7   8
ATOM      8  C   ALA A   3       7.456   5.145  13.696  0.00  0.00    +0.000 C 
ATOM      9  O   ALA A   3       7.885   5.625  12.652  0.00  0.00    +0.000 OA
BRANCH   8  10
ATOM     10  OXT ALA A   3       7.725   5.697  14.899  0.00  0.00    +0.000 OA
ATOM     11  HXT ALA A   3       7.775   5.070  15.645  0.00  0.00    +0.000 HD
ENDBRANCH   8  10
ENDBRANCH   7   8
ENDBRANCH   2   7
ENDBRANCH   1   3
BRANCH   1  12
ATOM     12  N   ASN A   2       3.512   3.536  17.443  0.00  0.00    +0.000 N 
ATOM     13  C   ASN A   1       2.139   3.496  17.572  0.00  0.00    +0.000 C 
ATOM     14  O   ASN A   1       1.407   4.405  17.198  0.00  0.00    +0.000 OA
ATOM     15  H   ASN A   2       4.017   2.661  17.543  0.00  0.00    +0.000 HD
BRANCH  13  16
ATOM     16  CA  ASN A   1       1.648   2.274  18.379  0.00  0.00    +0.000 C 
BRANCH  16  17
ATOM     17  N   ASN A   1       2.845   1.548  18.881  0.00  0.00    +0.000 NA
ATOM     18  H1  ASN A   1       2.860   1.644  19.904  0.00  0.00    +0.000 HD
ATOM     19  H2  ASN A   1       3.683   2.045  18.569  0.00  0.00    +0.000 HD
ENDBRANCH  16  17
BRANCH  16  20
ATOM     20  CB  ASN A   1       0.727   2.713  19.515  0.00  0.00    +0.000 C 
BRANCH  20  21
ATOM     21  CG  ASN A   1       1.346   3.615  20.563  0.00  0.00    +0.000 C 
ATOM     22  ND2 ASN A   1       2.283   3.079  21.389  0.00  0.00    +0.000 N 
ATOM     23  OD1 ASN A   1       1.033   4.799  20.674  0.00  0.00    +0.000 OA
ATOM     24 HD21 ASN A   1       2.812   2.274  21.056  0.00  0.00    +0.000 HD
ATOM     25 HD22 ASN A   1       2.777   3.735  21.981  0.00  0.00    +0.000 HD
ENDBRANCH  20  21
ENDBRANCH  16  20
ENDBRANCH  13  16
ENDBRANCH   1  12
BRANCH   1  26
ATOM     26  CB  ASN A   2       4.589   5.727  17.694  0.00  0.00    +0.000 C 
BRANCH  26  27
ATOM     27  CG  ASN A   2       5.014   5.326  19.100  0.00  0.00    +0.000 C 
ATOM     28  ND2 ASN A   2       6.329   5.096  19.369  0.00  0.00    +0.000 N 
ATOM     29  OD1 ASN A   2       4.186   5.166  19.995  0.00  0.00    +0.000 OA
ATOM     30 HD21 ASN A   2       7.069   5.602  18.880  0.00  0.00    +0.000 HD
ATOM     31 HD22 ASN A   2       6.529   4.931  20.349  0.00  0.00    +0.000 HD
ENDBRANCH  26  27
ENDBRANCH   1  26
TORSDOF 11
ENDMDL
MODEL 5
REMARK VINA RESULT:      -6.3      2.429      5.593
REMARK  Name = 
REMARK  12 active torsions:
REMARK  status: ('A' for Active; 'I' for Inactive)
REMARK    1  A    between atoms: CB_1  and  CA_2
REMARK    2  A    between atoms: CA_2  and  N_3
REMARK    3  A    between atoms: CA_2  and  C_20
REMARK    4  A    between atoms: C_4  and  CA_6
REMARK    5  A    between atoms: CA_6  and  CB_7
REMARK    6  A    between atoms: CA_6  and  N_11
REMARK    7  A    between atoms: CB_7  and  CG_8
REMARK    8  A    between atoms: C_12  and  CA_14
REMARK    9  A    between atoms: CA_14  and  N_15
REMARK   10  A    between atoms: CA_14  and  CB_16
REMARK   11  A    between atoms: CB_16  and  CG_17
REMARK   12  A    between atoms: C_20  and  OXT_22
REMARK                            x       y       z     vdW  Elec       q    Type
REMARK                         _______ _______ _______ _____ _____    ______ ____
ROOT
ATOM      1  CA  ASN A   2       3.593   5.071  17.378  0.00  0.00    +0.000 C 
ENDROOT
BRANCH   1   3
ATOM      2  N   ALA A   3       5.126   4.572  15.498  0.00  0.00    +0.000 N 
ATOM      3  C   ASN A   2       4.896   4.435  16.842  0.00  0.00    +0.000 C 
ATOM      4  O   ASN A   2       5.727   3.938  17.601  0.00  0.00    +0.000 OA
ATOM      5  H   ALA A   3       4.444   5.037  14.901  0.00  0.00    +0.000 HD
BRANCH   2   7
ATOM      6  CB  ALA A   3       6.125   3.658  13.422  0.00  0.00    +0.000 C 
ATOM      7  CA  ALA A   3       6.369   4.144  14.847  0.00  0.00    +0.000 C 
BRANCH   7   8
ATOM      8  C   ALA A   3       7.342   5.329  14.873  0.00  0.00    +0.000 C 
ATOM      9  O   ALA A   3       7.551   6.002  15.877  0.00  0.00    +0.000 OA
BRANCH   8  10
ATOM     10  OXT ALA A   3       7.989   5.561  13.710  0.00  0.00    +0.000 OA
ATOM     11  HXT ALA A   3       7.546   6.184  13.103  0.00  0.00    +0.000 HD
ENDBRANCH   8  10
ENDBRANCH   7   8
ENDBRANCH   2   7
ENDBRANCH   1   3
BRANCH   1  12
ATOM     12  N   ASN A   2       2.823   4.127  18.182  0.00  0.00    +0.000 N 
ATOM     13  C   ASN A   1       1.522   3.793  17.870  0.00  0.00    +0.000 C 
ATOM     14  O   ASN A   1       0.888   4.341  16.975  0.00  0.00    +0.000 OA
ATOM     15  H   ASN A   2       3.350   3.474  18.752  0.00  0.00    +0.000 HD
BRANCH  13  16
ATOM     16  CA  ASN A   1       0.907   2.787  18.867  0.00  0.00    +0.000 C 
BRANCH  16  17
ATOM     17  N   ASN A   1       1.714   1.538  18.812  0.00  0.00    +0.000 NA
ATOM     18  H1  ASN A   1       1.071   0.763  18.608  0.00  0.00    +0.000 HD
ATOM     19  H2  ASN A   1       2.064   1.335  19.751  0.00  0.00    +0.000 HD
ENDBRANCH  16  17
BRANCH  16  20
ATOM     20  CB  ASN A   1       0.865   3.380  20.274  0.00  0.00    +0.000 C 
BRANCH  20  21
ATOM     21  CG  ASN A   1       1.863   2.815  21.265  0.00  0.00    +0.000 C 
ATOM     22  ND2 ASN A   1       1.378   2.232  22.394  0.00  0.00    +0.000 N 
ATOM     23  OD1 ASN A   1       3.076   2.861  21.068  0.00  0.00    +0.000 OA
ATOM     24 HD21 ASN A   1       0.436   1.845  22.366  0.00  0.00    +0.000 HD
ATOM     25 HD22 ASN A   1       2.056   1.743  22.963  0.00  0.00    +0.000 HD
ENDBRANCH  20  21
ENDBRANCH  16  20
ENDBRANCH  13  16
ENDBRANCH   1  12
BRANCH   1  26
ATOM     26  CB  ASN A   2       3.914   6.326  18.191  0.00  0.00    +0.000 C 
BRANCH  26  27
ATOM     27  CG  ASN A   2       2.746   7.111  18.772  0.00  0.00    +0.000 C 
ATOM     28  ND2 ASN A   2       2.296   8.225  18.131  0.00  0.00    +0.000 N 
ATOM     29  OD1 ASN A   2       2.223   6.782  19.835  0.00  0.00    +0.000 OA
ATOM     30 HD21 ASN A   2       2.340   8.309  17.115  0.00  0.00    +0.000 HD
ATOM     31 HD22 ASN A   2       1.456   8.625  18.536  0.00  0.00    +0.000 HD
ENDBRANCH  26  27
ENDBRANCH   1  26
TORSDOF 11
ENDMDL
MODEL 6
REMARK VINA RESULT:      -6.2      2.433      5.497
REMARK  Name = 
REMARK  12 active torsions:
REMARK  status: ('A' for Active; 'I' for Inactive)
REMARK    1  A    between atoms: CB_1  and  CA_2
REMARK    2  A    between atoms: CA_2  and  N_3
REMARK    3  A    between atoms: CA_2  and  C_20
REMARK    4  A    between atoms: C_4  and  CA_6
REMARK    5  A    between atoms: CA_6  and  CB_7
REMARK    6  A    between atoms: CA_6  and  N_11
REMARK    7  A    between atoms: CB_7  and  CG_8
REMARK    8  A    between atoms: C_12  and  CA_14
REMARK    9  A    between atoms: CA_14  and  N_15
REMARK   10  A    between atoms: CA_14  and  CB_16
REMARK   11  A    between atoms: CB_16  and  CG_17
REMARK   12  A    between atoms: C_20  and  OXT_22
REMARK                            x       y       z     vdW  Elec       q    Type
REMARK                         _______ _______ _______ _____ _____    ______ ____
ROOT
ATOM      1  CA  ASN A   2       4.049   4.989  16.988  0.00  0.00    +0.000 C 
ENDROOT
BRANCH   1   3
ATOM      2  N   ALA A   3       5.296   4.401  14.930  0.00  0.00    +0.000 N 
ATOM      3  C   ASN A   2       5.300   4.394  16.300  0.00  0.00    +0.000 C 
ATOM      4  O   ASN A   2       6.284   4.044  16.951  0.00  0.00    +0.000 OA
ATOM      5  H   ALA A   3       4.488   4.749  14.416  0.00  0.00    +0.000 HD
BRANCH   2   7
ATOM      6  CB  ALA A   3       6.031   3.518  12.734  0.00  0.00    +0.000 C 
ATOM      7  CA  ALA A   3       6.450   3.997  14.120  0.00  0.00    +0.000 C 
BRANCH   7   8
ATOM      8  C   ALA A   3       7.403   5.194  14.032  0.00  0.00    +0.000 C 
ATOM      9  O   ALA A   3       7.850   5.619  12.972  0.00  0.00    +0.000 OA
BRANCH   8  10
ATOM     10  OXT ALA A   3       7.691   5.781  15.215  0.00  0.00    +0.000 OA
ATOM     11  HXT ALA A   3       7.229   5.409  15.990  0.00  0.00    +0.000 HD
ENDBRANCH   8  10
ENDBRANCH   7   8
ENDBRANCH   2   7
ENDBRANCH   1   3
BRANCH   1  12
ATOM     12  N   ASN A   2       3.570   4.134  18.069  0.00  0.00    +0.000 N 
ATOM     13  C   ASN A   1       2.656   3.124  17.851  0.00  0.00    +0.000 C 
ATOM     14  O   ASN A   1       2.102   2.947  16.772  0.00  0.00    +0.000 OA
ATOM     15  H   ASN A   2       4.158   4.063  18.893  0.00  0.00    +0.000 HD
BRANCH  13  16
ATOM     16  CA  ASN A   1       2.288   2.361  19.142  0.00  0.00    +0.000 C 
BRANCH  16  17
ATOM     17  N   ASN A   1       3.551   2.054  19.866  0.00  0.00    +0.000 NA
ATOM     18  H1  ASN A   1       4.054   1.342  19.323  0.00  0.00    +0.000 HD
ATOM     19  H2  ASN A   1       3.317   1.583  20.743  0.00  0.00    +0.000 HD
ENDBRANCH  16  17
BRANCH  16  20
ATOM     20  CB  ASN A   1       1.323   3.181  19.996  0.00  0.00    +0.000 C 
BRANCH  20  21
ATOM     21  CG  ASN A   1       1.877   3.712  21.302  0.00  0.00    +0.000 C 
ATOM     22  ND2 ASN A   1       2.390   4.971  21.310  0.00  0.00    +0.000 N 
ATOM     23  OD1 ASN A   1       1.864   3.047  22.336  0.00  0.00    +0.000 OA
ATOM     24 HD21 ASN A   1       2.048   5.632  20.614  0.00  0.00    +0.000 HD
ATOM     25 HD22 ASN A   1       2.621   5.348  22.220  0.00  0.00    +0.000 HD
ENDBRANCH  20  21
ENDBRANCH  16  20
ENDBRANCH  13  16
ENDBRANCH   1  12
BRANCH   1  26
ATOM     26  CB  ASN A   2       4.355   6.392  17.514  0.00  0.00    +0.000 C 
BRANCH  26  27
ATOM     27  CG  ASN A   2       3.214   7.172  18.153  0.00  0.00    +0.000 C 
ATOM     28  ND2 ASN A   2       2.772   8.322  17.572  0.00  0.00    +0.000 N 
ATOM     29  OD1 ASN A   2       2.704   6.805  19.210  0.00  0.00    +0.000 OA
ATOM     30 HD21 ASN A   2       2.799   8.451  16.560  0.00  0.00    +0.000 HD
ATOM     31 HD22 ASN A   2       1.949   8.718  18.011  0.00  0.00    +0.000 HD
ENDBRANCH  26  27
ENDBRANCH   1  26
TORSDOF 11
ENDMDL
MODEL 7
REMARK VINA RESULT:      -6.2      2.173      5.155
REMARK  Name = 
REMARK  12 active torsions:
REMARK  status: ('A' for Active; 'I' for Inactive)
REMARK    1  A    between atoms: CB_1  and  CA_2
REMARK    2  A    between atoms: CA_2  and  N_3
REMARK    3  A    between atoms: CA_2  and  C_20
REMARK    4  A    between atoms: C_4  and  CA_6
REMARK    5  A    between atoms: CA_6  and  CB_7
REMARK    6  A    between atoms: CA_6  and  N_11
REMARK    7  A    between atoms: CB_7  and  CG_8
REMARK    8  A    between atoms: C_12  and  CA_14
REMARK    9  A    between atoms: CA_14  and  N_15
REMARK   10  A    between atoms: CA_14  and  CB_16
REMARK   11  A    between atoms: CB_16  and  CG_17
REMARK   12  A    between atoms: C_20  and  OXT_22
REMARK                            x       y       z     vdW  Elec       q    Type
REMARK                         _______ _______ _______ _____ _____    ______ ____
ROOT
ATOM      1  CA  ASN A   2       3.388   5.661  17.405  0.00  0.00    +0.000 C 
ENDROOT
BRANCH   1   3
ATOM      2  N   ALA A   3       5.803   5.949  17.877  0.00  0.00    +0.000 N 
ATOM      3  C   ASN A   2       4.808   6.061  16.941  0.00  0.00    +0.000 C 
ATOM      4  O   ASN A   2       5.041   6.352  15.769  0.00  0.00    +0.000 OA
ATOM      5  H   ALA A   3       5.588   5.652  18.828  0.00  0.00    +0.000 HD
BRANCH   2   7
ATOM      6  CB  ALA A   3       7.663   7.587  17.894  0.00  0.00    +0.000 C 
ATOM      7  CA  ALA A   3       7.221   6.162  17.573  0.00  0.00    +0.000 C 
BRANCH   7   8
ATOM      8  C   ALA A   3       8.031   5.133  18.370  0.00  0.00    +0.000 C 
ATOM      9  O   ALA A   3       8.469   4.098  17.879  0.00  0.00    +0.000 OA
BRANCH   8  10
ATOM     10  OXT ALA A   3       8.262   5.467  19.659  0.00  0.00    +0.000 OA
ATOM     11  HXT ALA A   3       8.896   6.197  19.795  0.00  0.00    +0.000 HD
ENDBRANCH   8  10
ENDBRANCH   7   8
ENDBRANCH   2   7
ENDBRANCH   1   3
BRANCH   1  12
ATOM     12  N   ASN A   2       3.408   4.450  18.219  0.00  0.00    +0.000 N 
ATOM     13  C   ASN A   1       2.800   3.282  17.807  0.00  0.00    +0.000 C 
ATOM     14  O   ASN A   1       2.112   3.210  16.795  0.00  0.00    +0.000 OA
ATOM     15  H   ASN A   2       4.148   4.373  18.910  0.00  0.00    +0.000 HD
BRANCH  13  16
ATOM     16  CA  ASN A   1       2.942   2.138  18.834  0.00  0.00    +0.000 C 
BRANCH  16  17
ATOM     17  N   ASN A   1       4.019   2.513  19.789  0.00  0.00    +0.000 NA
ATOM     18  H1  ASN A   1       4.425   1.643  20.155  0.00  0.00    +0.000 HD
ATOM     19  H2  ASN A   1       3.591   2.954  20.606  0.00  0.00    +0.000 HD
ENDBRANCH  16  17
BRANCH  16  20
ATOM     20  CB  ASN A   1       1.612   1.883  19.543  0.00  0.00    +0.000 C 
BRANCH  20  21
ATOM     21  CG  ASN A   1       1.298   2.790  20.715  0.00  0.00    +0.000 C 
ATOM     22  ND2 ASN A   1       0.576   3.916  20.472  0.00  0.00    +0.000 N 
ATOM     23  OD1 ASN A   1       1.666   2.529  21.859  0.00  0.00    +0.000 OA
ATOM     24 HD21 ASN A   1      -0.044   3.923  19.663  0.00  0.00    +0.000 HD
ATOM     25 HD22 ASN A   1       0.264   4.425  21.289  0.00  0.00    +0.000 HD
ENDBRANCH  20  21
ENDBRANCH  16  20
ENDBRANCH  13  16
ENDBRANCH   1  12
BRANCH   1  26
ATOM     26  CB  ASN A   2       2.743   6.812  18.179  0.00  0.00    +0.000 C 
BRANCH  26  27
ATOM     27  CG  ASN A   2       2.618   6.667  19.689  0.00  0.00    +0.000 C 
ATOM     28  ND2 ASN A   2       1.991   7.635  20.411  0.00  0.00    +0.000 N 
ATOM     29  OD1 ASN A   2       3.110   5.707  20.280  0.00  0.00    +0.000 OA
ATOM     30 HD21 ASN A   2       1.220   8.177  20.019  0.00  0.00    +0.000 HD
ATOM     31 HD22 ASN A   2       1.870   7.408  21.392  0.00  0.00    +0.000 HD
ENDBRANCH  26  27
ENDBRANCH   1  26
TORSDOF 11
ENDMDL
MODEL 8
REMARK VINA RESULT:      -6.2      1.833      4.911
REMARK  Name = 
REMARK  12 active torsions:
REMARK  status: ('A' for Active; 'I' for Inactive)
REMARK    1  A    between atoms: CB_1  and  CA_2
REMARK    2  A    between atoms: CA_2  and  N_3
REMARK    3  A    between atoms: CA_2  and  C_20
REMARK    4  A    between atoms: C_4  and  CA_6
REMARK    5  A    between atoms: CA_6  and  CB_7
REMARK    6  A    between atoms: CA_6  and  N_11
REMARK    7  A    between atoms: CB_7  and  CG_8
REMARK    8  A    between atoms: C_12  and  CA_14
REMARK    9  A    between atoms: CA_14  and  N_15
REMARK   10  A    between atoms: CA_14  and  CB_16
REMARK   11  A    between atoms: CB_16  and  CG_17
REMARK   12  A    between atoms: C_20  and  OXT_22
REMARK                            x       y       z     vdW  Elec       q    Type
REMARK                         _______ _______ _______ _____ _____    ______ ____
ROOT
ATOM      1  CA  ASN A   2       5.253   4.576  16.878  0.00  0.00    +0.000 C 
ENDROOT
BRANCH   1   3
ATOM      2  N   ALA A   3       3.596   6.021  18.018  0.00  0.00    +0.000 N 
ATOM      3  C   ASN A   2       4.749   5.982  17.278  0.00  0.00    +0.000 C 
ATOM      4  O   ASN A   2       5.410   6.992  17.041  0.00  0.00    +0.000 OA
ATOM      5  H   ALA A   3       3.098   5.163  18.247  0.00  0.00    +0.000 HD
BRANCH   2   7
ATOM      6  CB  ALA A   3       2.124   7.974  17.612  0.00  0.00    +0.000 C 
ATOM      7  CA  ALA A   3       3.049   7.257  18.590  0.00  0.00    +0.000 C 
BRANCH   7   8
ATOM      8  C   ALA A   3       2.316   6.888  19.885  0.00  0.00    +0.000 C 
ATOM      9  O   ALA A   3       2.091   5.730  20.222  0.00  0.00    +0.000 OA
BRANCH   8  10
ATOM     10  OXT ALA A   3       1.960   7.938  20.657  0.00  0.00    +0.000 OA
ATOM     11  HXT ALA A   3       1.150   8.407  20.379  0.00  0.00    +0.000 HD
ENDBRANCH   8  10
ENDBRANCH   7   8
ENDBRANCH   2   7
ENDBRANCH   1   3
BRANCH   1  12
ATOM     12  N   ASN A   2       4.495   3.521  17.544  0.00  0.00    +0.000 N 
ATOM     13  C   ASN A   1       4.624   3.268  18.893  0.00  0.00    +0.000 C 
ATOM     14  O   ASN A   1       5.456   3.826  19.600  0.00  0.00    +0.000 OA
ATOM     15  H   ASN A   2       3.640   3.215  17.090  0.00  0.00    +0.000 HD
BRANCH  13  16
ATOM     16  CA  ASN A   1       3.733   2.102  19.372  0.00  0.00    +0.000 C 
BRANCH  16  17
ATOM     17  N   ASN A   1       3.297   2.401  20.762  0.00  0.00    +0.000 NA
ATOM     18  H1  ASN A   1       3.875   1.838  21.397  0.00  0.00    +0.000 HD
ATOM     19  H2  ASN A   1       2.350   2.035  20.892  0.00  0.00    +0.000 HD
ENDBRANCH  16  17
BRANCH  16  20
ATOM     20  CB  ASN A   1       2.547   1.908  18.429  0.00  0.00    +0.000 C 
BRANCH  20  21
ATOM     21  CG  ASN A   1       1.451   2.950  18.515  0.00  0.00    +0.000 C 
ATOM     22  ND2 ASN A   1       0.632   2.923  19.601  0.00  0.00    +0.000 N 
ATOM     23  OD1 ASN A   1       1.295   3.808  17.648  0.00  0.00    +0.000 OA
ATOM     24 HD21 ASN A   1       0.991   2.511  20.461  0.00  0.00    +0.000 HD
ATOM     25 HD22 ASN A   1       0.005   3.710  19.700  0.00  0.00    +0.000 HD
ENDBRANCH  20  21
ENDBRANCH  16  20
ENDBRANCH  13  16
ENDBRANCH   1  12
BRANCH   1  26
ATOM     26  CB  ASN A   2       5.185   4.404  15.360  0.00  0.00    +0.000 C 
BRANCH  26  27
ATOM     27  CG  ASN A   2       6.469   4.606  14.567  0.00  0.00    +0.000 C 
ATOM     28  ND2 ASN A   2       7.454   5.401  15.067  0.00  0.00    +0.000 N 
ATOM     29  OD1 ASN A   2       6.620   4.095  13.458  0.00  0.00    +0.000 OA
ATOM     30 HD21 ASN A   2       7.614   5.483  16.071  0.00  0.00    +0.000 HD
ATOM     31 HD22 ASN A   2       8.307   5.399  14.518  0.00  0.00    +0.000 HD
ENDBRANCH  26  27
ENDBRANCH   1  26
TORSDOF 11
ENDMDL
MODEL 9
REMARK VINA RESULT:      -6.1      1.941      4.986
REMARK  Name = 
REMARK  12 active torsions:
REMARK  status: ('A' for Active; 'I' for Inactive)
REMARK    1  A    between atoms: CB_1  and  CA_2
REMARK    2  A    between atoms: CA_2  and  N_3
REMARK    3  A    between atoms: CA_2  and  C_20
REMARK    4  A    between atoms: C_4  and  CA_6
REMARK    5  A    between atoms: CA_6  and  CB_7
REMARK    6  A    between atoms: CA_6  and  N_11
REMARK    7  A    between atoms: CB_7  and  CG_8
REMARK    8  A    between atoms: C_12  and  CA_14
REMARK    9  A    between atoms: CA_14  and  N_15
REMARK   10  A    between atoms: CA_14  and  CB_16
REMARK   11  A    between atoms: CB_16  and  CG_17
REMARK   12  A    between atoms: C_20  and  OXT_22
REMARK                            x       y       z     vdW  Elec       q    Type
REMARK                         _______ _______ _______ _____ _____    ______ ____
ROOT
ATOM      1  CA  ASN A   2       3.270   5.885  18.247  0.00  0.00    +0.000 C 
ENDROOT
BRANCH   1   3
ATOM      2  N   ALA A   3       5.739   6.014  18.101  0.00  0.00    +0.000 N 
ATOM      3  C   ASN A   2       4.549   6.310  17.489  0.00  0.00    +0.000 C 
ATOM      4  O   ASN A   2       4.495   6.781  16.354  0.00  0.00    +0.000 OA
ATOM      5  H   ALA A   3       5.754   5.573  19.019  0.00  0.00    +0.000 HD
BRANCH   2   7
ATOM      6  CB  ALA A   3       8.067   6.791  18.449  0.00  0.00    +0.000 C 
ATOM      7  CA  ALA A   3       7.044   6.228  17.467  0.00  0.00    +0.000 C 
BRANCH   7   8
ATOM      8  C   ALA A   3       7.508   4.887  16.886  0.00  0.00    +0.000 C 
ATOM      9  O   ALA A   3       7.316   4.560  15.719  0.00  0.00    +0.000 OA
BRANCH   8  10
ATOM     10  OXT ALA A   3       8.182   4.095  17.748  0.00  0.00    +0.000 OA
ATOM     11  HXT ALA A   3       9.138   4.006  17.573  0.00  0.00    +0.000 HD
ENDBRANCH   8  10
ENDBRANCH   7   8
ENDBRANCH   2   7
ENDBRANCH   1   3
BRANCH   1  12
ATOM     12  N   ASN A   2       3.193   4.437  18.407  0.00  0.00    +0.000 N 
ATOM     13  C   ASN A   1       2.166   3.695  17.862  0.00  0.00    +0.000 C 
ATOM     14  O   ASN A   1       1.197   4.203  17.309  0.00  0.00    +0.000 OA
ATOM     15  H   ASN A   2       4.060   3.952  18.617  0.00  0.00    +0.000 HD
BRANCH  13  16
ATOM     16  CA  ASN A   1       2.288   2.187  18.170  0.00  0.00    +0.000 C 
BRANCH  16  17
ATOM     17  N   ASN A   1       3.703   1.788  17.944  0.00  0.00    +0.000 NA
ATOM     18  H1  ASN A   1       4.084   1.474  18.844  0.00  0.00    +0.000 HD
ATOM     19  H2  ASN A   1       4.246   2.625  17.718  0.00  0.00    +0.000 HD
ENDBRANCH  16  17
BRANCH  16  20
ATOM     20  CB  ASN A   1       1.831   1.889  19.597  0.00  0.00    +0.000 C 
BRANCH  20  21
ATOM     21  CG  ASN A   1       2.717   2.422  20.704  0.00  0.00    +0.000 C 
ATOM     22  ND2 ASN A   1       2.114   2.925  21.814  0.00  0.00    +0.000 N 
ATOM     23  OD1 ASN A   1       3.944   2.400  20.626  0.00  0.00    +0.000 OA
ATOM     24 HD21 ASN A   1       1.181   2.587  22.048  0.00  0.00    +0.000 HD
ATOM     25 HD22 ASN A   1       2.727   3.142  22.589  0.00  0.00    +0.000 HD
ENDBRANCH  20  21
ENDBRANCH  16  20
ENDBRANCH  13  16
ENDBRANCH   1  12
BRANCH   1  26
ATOM     26  CB  ASN A   2       3.212   6.575  19.611  0.00  0.00    +0.000 C 
BRANCH  26  27
ATOM     27  CG  ASN A   2       1.905   6.500  20.387  0.00  0.00    +0.000 C 
ATOM     28  ND2 ASN A   2       1.423   7.611  21.010  0.00  0.00    +0.000 N 
ATOM     29  OD1 ASN A   2       1.289   5.441  20.498  0.00  0.00    +0.000 OA
ATOM     30 HD21 ASN A   2       1.585   8.545  20.632  0.00  0.00    +0.000 HD
ATOM     31 HD22 ASN A   2       0.502   7.492  21.417  0.00  0.00    +0.000 HD
ENDBRANCH  26  27
ENDBRANCH   1  26
TORSDOF 11
ENDMDL
