MODEL 1
REMARK VINA RESULT:      -9.0      0.000      0.000
REMARK  Name = 
REMARK  5 active torsions:
REMARK  status: ('A' for Active; 'I' for Inactive)
REMARK    1  A    between atoms: C_1  and  O_2
REMARK    2  A    between atoms: O_2  and  C_3
REMARK    3  A    between atoms: N_5  and  C_6
REMARK    4  A    between atoms: C_14  and  N_15
REMARK    5  A    between atoms: N_18  and  C_19
REMARK                            x       y       z     vdW  Elec       q    Type
REMARK                         _______ _______ _______ _____ _____    ______ ____
ROOT
ATOM      1  C   UNL     1      -1.162  11.572  21.457  0.00  0.00    +0.000 A 
ATOM      2  N   UNL     1      -1.840  11.926  20.372  0.00  0.00    +0.000 NA
ATOM      3  N   UNL     1      -1.515  10.970  19.460  0.00  0.00    +0.000 N 
ATOM      4  C   UNL     1      -0.472  10.157  19.895  0.00  0.00    +0.000 A 
ATOM      5  C   UNL     1       0.357   9.210  19.255  0.00  0.00    +0.000 A 
ATOM      6  C   UNL     1       1.355   8.580  20.014  0.00  0.00    +0.000 A 
ATOM      7  C   UNL     1       1.476   8.892  21.379  0.00  0.00    +0.000 A 
ATOM      8  C   UNL     1       0.663   9.829  22.010  0.00  0.00    +0.000 A 
ATOM      9  C   UNL     1      -0.287  10.500  21.236  0.00  0.00    +0.000 A 
ENDROOT
BRANCH   3  10
ATOM     10  C   UNL     1      -2.245  10.916  18.243  0.00  0.00    +0.000 A 
ATOM     11  C   UNL     1      -3.490  11.561  18.179  0.00  0.00    +0.000 A 
ATOM     12  C   UNL     1      -4.245  11.510  17.008  0.00  0.00    +0.000 A 
ATOM     13  C   UNL     1      -3.783  10.779  15.916  0.00  0.00    +0.000 A 
ATOM     14  C   UNL     1      -2.561  10.107  15.989  0.00  0.00    +0.000 A 
ATOM     15  C   UNL     1      -1.780  10.184  17.146  0.00  0.00    +0.000 A 
ENDBRANCH   3  10
BRANCH   6  16
ATOM     16  N   UNL     1       2.246   7.635  19.507  0.00  0.00    +0.000 N 
ATOM     17  C   UNL     1       2.635   7.620  18.086  0.00  0.00    +0.000 C 
ATOM     18  C   UNL     1       3.824   6.632  17.869  0.00  0.00    +0.000 C 
ATOM     19  N   UNL     1       3.660   5.292  18.472  0.00  0.00    +0.000 NA
ATOM     20  C   UNL     1       3.266   5.434  19.879  0.00  0.00    +0.000 C 
ATOM     21  C   UNL     1       2.019   6.300  20.083  0.00  0.00    +0.000 C 
BRANCH  19  22
ATOM     22  C   UNL     1       3.051   4.239  17.645  0.00  0.00    +0.000 C 
ATOM     23  C   UNL     1       1.543   3.936  17.782  0.00  0.00    +0.000 C 
ATOM     24  C   UNL     1       1.204   2.917  18.865  0.00  0.00    +0.000 C 
ATOM     25  N   UNL     1       1.960   1.675  18.729  0.00  0.00    +0.000 NA
ATOM     26  C   UNL     1       3.405   1.904  18.679  0.00  0.00    +0.000 C 
ATOM     27  C   UNL     1       3.804   2.887  17.580  0.00  0.00    +0.000 C 
ATOM     28  H   UNL     1       1.671   1.207  17.868  0.00  0.00    +0.000 HD
ENDBRANCH  19  22
ENDBRANCH   6  16
BRANCH   1  30
ATOM     29  C   UNL     1      -2.540  12.103  23.255  0.00  0.00    +0.000 C 
ATOM     30  O   UNL     1      -1.278  12.254  22.617  0.00  0.00    +0.000 OA
ENDBRANCH   1  30
TORSDOF 4
ENDMDL
MODEL 2
REMARK VINA RESULT:      -8.8      0.456      1.012
REMARK  Name = 
REMARK  5 active torsions:
REMARK  status: ('A' for Active; 'I' for Inactive)
REMARK    1  A    between atoms: C_1  and  O_2
REMARK    2  A    between atoms: O_2  and  C_3
REMARK    3  A    between atoms: N_5  and  C_6
REMARK    4  A    between atoms: C_14  and  N_15
REMARK    5  A    between atoms: N_18  and  C_19
REMARK                            x       y       z     vdW  Elec       q    Type
REMARK                         _______ _______ _______ _____ _____    ______ ____
ROOT
ATOM      1  C   UNL     1      -1.163  11.628  21.527  0.00  0.00    +0.000 A 
ATOM      2  N   UNL     1      -1.865  11.972  20.454  0.00  0.00    +0.000 NA
ATOM      3  N   UNL     1      -1.561  11.006  19.545  0.00  0.00    +0.000 N 
ATOM      4  C   UNL     1      -0.510  10.195  19.966  0.00  0.00    +0.000 A 
ATOM      5  C   UNL     1       0.303   9.240  19.318  0.00  0.00    +0.000 A 
ATOM      6  C   UNL     1       1.317   8.617  20.061  0.00  0.00    +0.000 A 
ATOM      7  C   UNL     1       1.468   8.944  21.420  0.00  0.00    +0.000 A 
ATOM      8  C   UNL     1       0.671   9.888  22.059  0.00  0.00    +0.000 A 
ATOM      9  C   UNL     1      -0.295  10.552  21.299  0.00  0.00    +0.000 A 
ENDROOT
BRANCH   3  10
ATOM     10  C   UNL     1      -2.317  10.940  18.346  0.00  0.00    +0.000 A 
ATOM     11  C   UNL     1      -1.769  10.265  17.244  0.00  0.00    +0.000 A 
ATOM     12  C   UNL     1      -2.473  10.199  16.042  0.00  0.00    +0.000 A 
ATOM     13  C   UNL     1      -3.703  10.842  15.922  0.00  0.00    +0.000 A 
ATOM     14  C   UNL     1      -4.235  11.544  17.006  0.00  0.00    +0.000 A 
ATOM     15  C   UNL     1      -3.552  11.584  18.226  0.00  0.00    +0.000 A 
ENDBRANCH   3  10
BRANCH   6  16
ATOM     16  N   UNL     1       2.195   7.665  19.545  0.00  0.00    +0.000 N 
ATOM     17  C   UNL     1       2.580   7.655  18.124  0.00  0.00    +0.000 C 
ATOM     18  C   UNL     1       3.756   6.655  17.896  0.00  0.00    +0.000 C 
ATOM     19  N   UNL     1       3.578   5.312  18.489  0.00  0.00    +0.000 NA
ATOM     20  C   UNL     1       3.189   5.449  19.899  0.00  0.00    +0.000 C 
ATOM     21  C   UNL     1       1.954   6.329  20.113  0.00  0.00    +0.000 C 
BRANCH  19  22
ATOM     22  C   UNL     1       2.954   4.272  17.656  0.00  0.00    +0.000 C 
ATOM     23  C   UNL     1       1.457   3.944  17.839  0.00  0.00    +0.000 C 
ATOM     24  C   UNL     1       1.170   2.893  18.905  0.00  0.00    +0.000 C 
ATOM     25  N   UNL     1       1.937   1.666  18.709  0.00  0.00    +0.000 NA
ATOM     26  C   UNL     1       3.376   1.917  18.615  0.00  0.00    +0.000 C 
ATOM     27  C   UNL     1       3.723   2.934  17.529  0.00  0.00    +0.000 C 
ATOM     28  H   UNL     1       1.624   1.217  17.847  0.00  0.00    +0.000 HD
ENDBRANCH  19  22
ENDBRANCH   6  16
BRANCH   1  30
ATOM     29  C   UNL     1      -0.734  13.645  22.607  0.00  0.00    +0.000 C 
ATOM     30  O   UNL     1      -1.253  12.323  22.682  0.00  0.00    +0.000 OA
ENDBRANCH   1  30
TORSDOF 4
ENDMDL
MODEL 3
REMARK VINA RESULT:      -8.5      2.535      3.136
REMARK  Name = 
REMARK  5 active torsions:
REMARK  status: ('A' for Active; 'I' for Inactive)
REMARK    1  A    between atoms: C_1  and  O_2
REMARK    2  A    between atoms: O_2  and  C_3
REMARK    3  A    between atoms: N_5  and  C_6
REMARK    4  A    between atoms: C_14  and  N_15
REMARK    5  A    between atoms: N_18  and  C_19
REMARK                            x       y       z     vdW  Elec       q    Type
REMARK                         _______ _______ _______ _____ _____    ______ ____
ROOT
ATOM      1  C   UNL     1      -0.873  11.172  22.494  0.00  0.00    +0.000 A 
ATOM      2  N   UNL     1      -0.355  12.336  22.120  0.00  0.00    +0.000 NA
ATOM      3  N   UNL     1       0.469  12.008  21.087  0.00  0.00    +0.000 N 
ATOM      4  C   UNL     1       0.639  10.632  20.962  0.00  0.00    +0.000 A 
ATOM      5  C   UNL     1       1.536   9.823  20.232  0.00  0.00    +0.000 A 
ATOM      6  C   UNL     1       1.438   8.431  20.369  0.00  0.00    +0.000 A 
ATOM      7  C   UNL     1       0.440   7.893  21.201  0.00  0.00    +0.000 A 
ATOM      8  C   UNL     1      -0.442   8.689  21.925  0.00  0.00    +0.000 A 
ATOM      9  C   UNL     1      -0.299  10.075  21.835  0.00  0.00    +0.000 A 
ENDROOT
BRANCH   3  10
ATOM     10  C   UNL     1       1.019  13.053  20.300  0.00  0.00    +0.000 A 
ATOM     11  C   UNL     1       2.394  13.317  20.404  0.00  0.00    +0.000 A 
ATOM     12  C   UNL     1       2.965  14.350  19.662  0.00  0.00    +0.000 A 
ATOM     13  C   UNL     1       2.163  15.150  18.852  0.00  0.00    +0.000 A 
ATOM     14  C   UNL     1       0.789  14.912  18.774  0.00  0.00    +0.000 A 
ATOM     15  C   UNL     1       0.214  13.855  19.486  0.00  0.00    +0.000 A 
ENDBRANCH   3  10
BRANCH   6  16
ATOM     16  N   UNL     1       2.265   7.518  19.714  0.00  0.00    +0.000 N 
ATOM     17  C   UNL     1       2.480   7.573  18.258  0.00  0.00    +0.000 C 
ATOM     18  C   UNL     1       3.637   6.607  17.853  0.00  0.00    +0.000 C 
ATOM     19  N   UNL     1       3.551   5.238  18.407  0.00  0.00    +0.000 NA
ATOM     20  C   UNL     1       3.329   5.312  19.857  0.00  0.00    +0.000 C 
ATOM     21  C   UNL     1       2.113   6.156  20.250  0.00  0.00    +0.000 C 
BRANCH  19  22
ATOM     22  C   UNL     1       2.850   4.219  17.610  0.00  0.00    +0.000 C 
ATOM     23  C   UNL     1       1.363   3.917  17.895  0.00  0.00    +0.000 C 
ATOM     24  C   UNL     1       1.132   2.859  18.969  0.00  0.00    +0.000 C 
ATOM     25  N   UNL     1       1.860   1.620  18.708  0.00  0.00    +0.000 NA
ATOM     26  C   UNL     1       3.293   1.846  18.514  0.00  0.00    +0.000 C 
ATOM     27  C   UNL     1       3.582   2.868  17.416  0.00  0.00    +0.000 C 
ATOM     28  H   UNL     1       1.478   1.186  17.865  0.00  0.00    +0.000 HD
ENDBRANCH  19  22
ENDBRANCH   6  16
BRANCH   1  30
ATOM     29  C   UNL     1      -2.796  12.109  23.407  0.00  0.00    +0.000 C 
ATOM     30  O   UNL     1      -1.803  11.093  23.469  0.00  0.00    +0.000 OA
ENDBRANCH   1  30
TORSDOF 4
ENDMDL
MODEL 4
REMARK VINA RESULT:      -8.3      2.902      8.728
REMARK  Name = 
REMARK  5 active torsions:
REMARK  status: ('A' for Active; 'I' for Inactive)
REMARK    1  A    between atoms: C_1  and  O_2
REMARK    2  A    between atoms: O_2  and  C_3
REMARK    3  A    between atoms: N_5  and  C_6
REMARK    4  A    between atoms: C_14  and  N_15
REMARK    5  A    between atoms: N_18  and  C_19
REMARK                            x       y       z     vdW  Elec       q    Type
REMARK                         _______ _______ _______ _____ _____    ______ ____
ROOT
ATOM      1  C   UNL     1       3.076   3.502  19.163  0.00  0.00    +0.000 A 
ATOM      2  N   UNL     1       4.177   3.843  18.504  0.00  0.00    +0.000 NA
ATOM      3  N   UNL     1       4.344   5.159  18.810  0.00  0.00    +0.000 N 
ATOM      4  C   UNL     1       3.238   5.693  19.467  0.00  0.00    +0.000 A 
ATOM      5  C   UNL     1       2.832   7.009  19.779  0.00  0.00    +0.000 A 
ATOM      6  C   UNL     1       1.610   7.187  20.443  0.00  0.00    +0.000 A 
ATOM      7  C   UNL     1       0.852   6.057  20.797  0.00  0.00    +0.000 A 
ATOM      8  C   UNL     1       1.249   4.760  20.487  0.00  0.00    +0.000 A 
ATOM      9  C   UNL     1       2.435   4.591  19.769  0.00  0.00    +0.000 A 
ENDROOT
BRANCH   3  10
ATOM     10  C   UNL     1       5.562   5.791  18.448  0.00  0.00    +0.000 A 
ATOM     11  C   UNL     1       6.704   5.538  19.223  0.00  0.00    +0.000 A 
ATOM     12  C   UNL     1       7.913   6.159  18.910  0.00  0.00    +0.000 A 
ATOM     13  C   UNL     1       7.975   7.067  17.856  0.00  0.00    +0.000 A 
ATOM     14  C   UNL     1       6.831   7.348  17.105  0.00  0.00    +0.000 A 
ATOM     15  C   UNL     1       5.624   6.701  17.388  0.00  0.00    +0.000 A 
ENDBRANCH   3  10
BRANCH   6  16
ATOM     16  N   UNL     1       1.086   8.429  20.802  0.00  0.00    +0.000 N 
ATOM     17  C   UNL     1      -0.164   8.549  21.572  0.00  0.00    +0.000 C 
ATOM     18  C   UNL     1      -0.361  10.025  22.041  0.00  0.00    +0.000 C 
ATOM     19  N   UNL     1      -0.185  11.057  20.997  0.00  0.00    +0.000 NA
ATOM     20  C   UNL     1       1.085  10.830  20.295  0.00  0.00    +0.000 C 
ATOM     21  C   UNL     1       1.225   9.417  19.720  0.00  0.00    +0.000 C 
BRANCH  19  22
ATOM     22  C   UNL     1      -1.374  11.476  20.239  0.00  0.00    +0.000 C 
ATOM     23  C   UNL     1      -1.857  10.625  19.045  0.00  0.00    +0.000 C 
ATOM     24  C   UNL     1      -1.206  10.985  17.714  0.00  0.00    +0.000 C 
ATOM     25  N   UNL     1      -1.313  12.407  17.399  0.00  0.00    +0.000 NA
ATOM     26  C   UNL     1      -0.788  13.256  18.470  0.00  0.00    +0.000 C 
ATOM     27  C   UNL     1      -1.440  12.965  19.820  0.00  0.00    +0.000 C 
ATOM     28  H   UNL     1      -2.297  12.637  17.249  0.00  0.00    +0.000 HD
ENDBRANCH  19  22
ENDBRANCH   6  16
BRANCH   1  30
ATOM     29  C   UNL     1       3.456   1.312  18.475  0.00  0.00    +0.000 C 
ATOM     30  O   UNL     1       2.615   2.233  19.159  0.00  0.00    +0.000 OA
ENDBRANCH   1  30
TORSDOF 4
ENDMDL
MODEL 5
REMARK VINA RESULT:      -8.3      3.199      8.960
REMARK  Name = 
REMARK  5 active torsions:
REMARK  status: ('A' for Active; 'I' for Inactive)
REMARK    1  A    between atoms: C_1  and  O_2
REMARK    2  A    between atoms: O_2  and  C_3
REMARK    3  A    between atoms: N_5  and  C_6
REMARK    4  A    between atoms: C_14  and  N_15
REMARK    5  A    between atoms: N_18  and  C_19
REMARK                            x       y       z     vdW  Elec       q    Type
REMARK                         _______ _______ _______ _____ _____    ______ ____
ROOT
ATOM      1  C   UNL     1       3.398   7.050  17.437  0.00  0.00    +0.000 A 
ATOM      2  N   UNL     1       3.403   5.861  18.027  0.00  0.00    +0.000 NA
ATOM      3  N   UNL     1       2.507   5.998  19.042  0.00  0.00    +0.000 N 
ATOM      4  C   UNL     1       2.115   7.322  19.226  0.00  0.00    +0.000 A 
ATOM      5  C   UNL     1       1.415   7.998  20.249  0.00  0.00    +0.000 A 
ATOM      6  C   UNL     1       1.217   9.380  20.117  0.00  0.00    +0.000 A 
ATOM      7  C   UNL     1       1.695  10.033  18.968  0.00  0.00    +0.000 A 
ATOM      8  C   UNL     1       2.390   9.370  17.961  0.00  0.00    +0.000 A 
ATOM      9  C   UNL     1       2.640   8.006  18.127  0.00  0.00    +0.000 A 
ENDROOT
BRANCH   3  10
ATOM     10  C   UNL     1       2.095   4.837  19.747  0.00  0.00    +0.000 A 
ATOM     11  C   UNL     1       2.569   4.644  21.054  0.00  0.00    +0.000 A 
ATOM     12  C   UNL     1       2.205   3.504  21.770  0.00  0.00    +0.000 A 
ATOM     13  C   UNL     1       1.405   2.534  21.170  0.00  0.00    +0.000 A 
ATOM     14  C   UNL     1       0.962   2.707  19.856  0.00  0.00    +0.000 A 
ATOM     15  C   UNL     1       1.292   3.864  19.145  0.00  0.00    +0.000 A 
ENDBRANCH   3  10
BRANCH   6  16
ATOM     16  N   UNL     1       0.553  10.170  21.055  0.00  0.00    +0.000 N 
ATOM     17  C   UNL     1      -0.422   9.598  21.999  0.00  0.00    +0.000 C 
ATOM     18  C   UNL     1      -0.801  10.657  23.081  0.00  0.00    +0.000 C 
ATOM     19  N   UNL     1      -1.162  11.995  22.567  0.00  0.00    +0.000 NA
ATOM     20  C   UNL     1      -0.126  12.456  21.634  0.00  0.00    +0.000 C 
ATOM     21  C   UNL     1       0.156  11.472  20.495  0.00  0.00    +0.000 C 
BRANCH  19  22
ATOM     22  C   UNL     1      -2.580  12.257  22.273  0.00  0.00    +0.000 C 
ATOM     23  C   UNL     1      -2.958  13.362  21.263  0.00  0.00    +0.000 C 
ATOM     24  C   UNL     1      -3.100  14.751  21.877  0.00  0.00    +0.000 C 
ATOM     25  N   UNL     1      -4.011  14.774  23.018  0.00  0.00    +0.000 NA
ATOM     26  C   UNL     1      -3.642  13.798  24.045  0.00  0.00    +0.000 C 
ATOM     27  C   UNL     1      -3.529  12.379  23.490  0.00  0.00    +0.000 C 
ATOM     28  H   UNL     1      -4.955  14.565  22.689  0.00  0.00    +0.000 HD
ENDBRANCH  19  22
ENDBRANCH   6  16
BRANCH   1  30
ATOM     29  C   UNL     1       5.136   6.320  16.073  0.00  0.00    +0.000 C 
ATOM     30  O   UNL     1       4.128   7.291  16.327  0.00  0.00    +0.000 OA
ENDBRANCH   1  30
TORSDOF 4
ENDMDL
MODEL 6
REMARK VINA RESULT:      -8.2      3.024      8.836
REMARK  Name = 
REMARK  5 active torsions:
REMARK  status: ('A' for Active; 'I' for Inactive)
REMARK    1  A    between atoms: C_1  and  O_2
REMARK    2  A    between atoms: O_2  and  C_3
REMARK    3  A    between atoms: N_5  and  C_6
REMARK    4  A    between atoms: C_14  and  N_15
REMARK    5  A    between atoms: N_18  and  C_19
REMARK                            x       y       z     vdW  Elec       q    Type
REMARK                         _______ _______ _______ _____ _____    ______ ____
ROOT
ATOM      1  C   UNL     1       2.601   3.216  19.597  0.00  0.00    +0.000 A 
ATOM      2  N   UNL     1       3.452   3.064  18.590  0.00  0.00    +0.000 NA
ATOM      3  N   UNL     1       3.867   4.332  18.321  0.00  0.00    +0.000 N 
ATOM      4  C   UNL     1       3.117   5.289  19.000  0.00  0.00    +0.000 A 
ATOM      5  C   UNL     1       2.999   6.692  18.891  0.00  0.00    +0.000 A 
ATOM      6  C   UNL     1       2.099   7.351  19.741  0.00  0.00    +0.000 A 
ATOM      7  C   UNL     1       1.372   6.601  20.682  0.00  0.00    +0.000 A 
ATOM      8  C   UNL     1       1.484   5.218  20.788  0.00  0.00    +0.000 A 
ATOM      9  C   UNL     1       2.333   4.559  19.897  0.00  0.00    +0.000 A 
ENDROOT
BRANCH   3  10
ATOM     10  C   UNL     1       4.961   4.516  17.436  0.00  0.00    +0.000 A 
ATOM     11  C   UNL     1       4.764   4.277  16.067  0.00  0.00    +0.000 A 
ATOM     12  C   UNL     1       5.821   4.425  15.171  0.00  0.00    +0.000 A 
ATOM     13  C   UNL     1       7.087   4.767  15.642  0.00  0.00    +0.000 A 
ATOM     14  C   UNL     1       7.295   4.970  17.008  0.00  0.00    +0.000 A 
ATOM     15  C   UNL     1       6.232   4.859  17.909  0.00  0.00    +0.000 A 
ENDBRANCH   3  10
BRANCH   6  16
ATOM     16  N   UNL     1       1.877   8.728  19.732  0.00  0.00    +0.000 N 
ATOM     17  C   UNL     1       1.070   9.389  20.772  0.00  0.00    +0.000 C 
ATOM     18  C   UNL     1       1.211  10.939  20.652  0.00  0.00    +0.000 C 
ATOM     19  N   UNL     1       1.029  11.493  19.293  0.00  0.00    +0.000 NA
ATOM     20  C   UNL     1       1.873  10.752  18.346  0.00  0.00    +0.000 C 
ATOM     21  C   UNL     1       1.642   9.239  18.373  0.00  0.00    +0.000 C 
BRANCH  19  22
ATOM     22  C   UNL     1      -0.326  11.906  18.896  0.00  0.00    +0.000 C 
ATOM     23  C   UNL     1      -0.522  13.209  18.091  0.00  0.00    +0.000 C 
ATOM     24  C   UNL     1      -0.675  14.460  18.949  0.00  0.00    +0.000 C 
ATOM     25  N   UNL     1      -1.721  14.327  19.960  0.00  0.00    +0.000 NA
ATOM     26  C   UNL     1      -1.531  13.148  20.807  0.00  0.00    +0.000 C 
ATOM     27  C   UNL     1      -1.415  11.858  19.997  0.00  0.00    +0.000 C 
ATOM     28  H   UNL     1      -2.625  14.253  19.490  0.00  0.00    +0.000 HD
ENDBRANCH  19  22
ENDBRANCH   6  16
BRANCH   1  30
ATOM     29  C   UNL     1       2.020   2.214  21.615  0.00  0.00    +0.000 C 
ATOM     30  O   UNL     1       2.016   2.156  20.194  0.00  0.00    +0.000 OA
ENDBRANCH   1  30
TORSDOF 4
ENDMDL
MODEL 7
REMARK VINA RESULT:      -8.2      2.997      8.818
REMARK  Name = 
REMARK  5 active torsions:
REMARK  status: ('A' for Active; 'I' for Inactive)
REMARK    1  A    between atoms: C_1  and  O_2
REMARK    2  A    between atoms: O_2  and  C_3
REMARK    3  A    between atoms: N_5  and  C_6
REMARK    4  A    between atoms: C_14  and  N_15
REMARK    5  A    between atoms: N_18  and  C_19
REMARK                            x       y       z     vdW  Elec       q    Type
REMARK                         _______ _______ _______ _____ _____    ______ ____
ROOT
ATOM      1  C   UNL     1       2.632   3.202  19.184  0.00  0.00    +0.000 A 
ATOM      2  N   UNL     1       3.481   3.121  18.167  0.00  0.00    +0.000 NA
ATOM      3  N   UNL     1       3.881   4.407  17.975  0.00  0.00    +0.000 N 
ATOM      4  C   UNL     1       3.122   5.313  18.711  0.00  0.00    +0.000 A 
ATOM      5  C   UNL     1       2.987   6.718  18.687  0.00  0.00    +0.000 A 
ATOM      6  C   UNL     1       2.083   7.314  19.578  0.00  0.00    +0.000 A 
ATOM      7  C   UNL     1       1.368   6.501  20.474  0.00  0.00    +0.000 A 
ATOM      8  C   UNL     1       1.496   5.115  20.496  0.00  0.00    +0.000 A 
ATOM      9  C   UNL     1       2.350   4.521  19.565  0.00  0.00    +0.000 A 
ENDROOT
BRANCH   3  10
ATOM     10  C   UNL     1       4.970   4.656  17.100  0.00  0.00    +0.000 A 
ATOM     11  C   UNL     1       6.046   5.426  17.570  0.00  0.00    +0.000 A 
ATOM     12  C   UNL     1       7.123   5.710  16.732  0.00  0.00    +0.000 A 
ATOM     13  C   UNL     1       7.110   5.268  15.411  0.00  0.00    +0.000 A 
ATOM     14  C   UNL     1       6.025   4.532  14.929  0.00  0.00    +0.000 A 
ATOM     15  C   UNL     1       4.958   4.211  15.774  0.00  0.00    +0.000 A 
ENDBRANCH   3  10
BRANCH   6  16
ATOM     16  N   UNL     1       1.845   8.686  19.653  0.00  0.00    +0.000 N 
ATOM     17  C   UNL     1       0.915   9.259  20.641  0.00  0.00    +0.000 C 
ATOM     18  C   UNL     1       1.048  10.814  20.661  0.00  0.00    +0.000 C 
ATOM     19  N   UNL     1       1.016  11.475  19.338  0.00  0.00    +0.000 NA
ATOM     20  C   UNL     1       1.973  10.816  18.440  0.00  0.00    +0.000 C 
ATOM     21  C   UNL     1       1.761   9.304  18.320  0.00  0.00    +0.000 C 
BRANCH  19  22
ATOM     22  C   UNL     1      -0.290  11.912  18.822  0.00  0.00    +0.000 C 
ATOM     23  C   UNL     1      -0.439  13.328  18.225  0.00  0.00    +0.000 C 
ATOM     24  C   UNL     1      -0.775  14.408  19.248  0.00  0.00    +0.000 C 
ATOM     25  N   UNL     1      -1.943  14.074  20.058  0.00  0.00    +0.000 NA
ATOM     26  C   UNL     1      -1.813  12.773  20.715  0.00  0.00    +0.000 C 
ATOM     27  C   UNL     1      -1.518  11.646  19.728  0.00  0.00    +0.000 C 
ATOM     28  H   UNL     1      -2.768  14.057  19.455  0.00  0.00    +0.000 HD
ENDBRANCH  19  22
ENDBRANCH   6  16
BRANCH   1  30
ATOM     29  C   UNL     1       0.853   1.705  19.082  0.00  0.00    +0.000 C 
ATOM     30  O   UNL     1       2.062   2.100  19.718  0.00  0.00    +0.000 OA
ENDBRANCH   1  30
TORSDOF 4
ENDMDL
MODEL 8
REMARK VINA RESULT:      -8.1      2.643      8.361
REMARK  Name = 
REMARK  5 active torsions:
REMARK  status: ('A' for Active; 'I' for Inactive)
REMARK    1  A    between atoms: C_1  and  O_2
REMARK    2  A    between atoms: O_2  and  C_3
REMARK    3  A    between atoms: N_5  and  C_6
REMARK    4  A    between atoms: C_14  and  N_15
REMARK    5  A    between atoms: N_18  and  C_19
REMARK                            x       y       z     vdW  Elec       q    Type
REMARK                         _______ _______ _______ _____ _____    ______ ____
ROOT
ATOM      1  C   UNL     1       2.467   5.015  20.488  0.00  0.00    +0.000 A 
ATOM      2  N   UNL     1       3.058   4.562  19.390  0.00  0.00    +0.000 NA
ATOM      3  N   UNL     1       3.181   5.668  18.607  0.00  0.00    +0.000 N 
ATOM      4  C   UNL     1       2.474   6.755  19.114  0.00  0.00    +0.000 A 
ATOM      5  C   UNL     1       2.104   8.010  18.583  0.00  0.00    +0.000 A 
ATOM      6  C   UNL     1       1.345   8.874  19.386  0.00  0.00    +0.000 A 
ATOM      7  C   UNL     1       1.004   8.474  20.690  0.00  0.00    +0.000 A 
ATOM      8  C   UNL     1       1.364   7.236  21.213  0.00  0.00    +0.000 A 
ATOM      9  C   UNL     1       2.065   6.354  20.388  0.00  0.00    +0.000 A 
ENDROOT
BRANCH   3  10
ATOM     10  C   UNL     1       3.980   5.587  17.436  0.00  0.00    +0.000 A 
ATOM     11  C   UNL     1       4.297   4.318  16.928  0.00  0.00    +0.000 A 
ATOM     12  C   UNL     1       5.097   4.199  15.793  0.00  0.00    +0.000 A 
ATOM     13  C   UNL     1       5.620   5.340  15.189  0.00  0.00    +0.000 A 
ATOM     14  C   UNL     1       5.336   6.602  15.714  0.00  0.00    +0.000 A 
ATOM     15  C   UNL     1       4.504   6.733  16.830  0.00  0.00    +0.000 A 
ENDBRANCH   3  10
BRANCH   6  16
ATOM     16  N   UNL     1       0.905  10.135  18.983  0.00  0.00    +0.000 N 
ATOM     17  C   UNL     1       1.671  11.356  19.286  0.00  0.00    +0.000 C 
ATOM     18  C   UNL     1       1.079  12.567  18.499  0.00  0.00    +0.000 C 
ATOM     19  N   UNL     1      -0.388  12.729  18.586  0.00  0.00    +0.000 NA
ATOM     20  C   UNL     1      -1.040  11.451  18.273  0.00  0.00    +0.000 C 
ATOM     21  C   UNL     1      -0.551  10.284  19.136  0.00  0.00    +0.000 C 
BRANCH  19  22
ATOM     22  C   UNL     1      -0.922  13.578  19.662  0.00  0.00    +0.000 C 
ATOM     23  C   UNL     1      -0.093  14.778  20.169  0.00  0.00    +0.000 C 
ATOM     24  C   UNL     1       0.890  14.436  21.282  0.00  0.00    +0.000 C 
ATOM     25  N   UNL     1       0.257  13.749  22.404  0.00  0.00    +0.000 NA
ATOM     26  C   UNL     1      -0.473  12.552  21.984  0.00  0.00    +0.000 C 
ATOM     27  C   UNL     1      -1.505  12.847  20.897  0.00  0.00    +0.000 C 
ATOM     28  H   UNL     1      -0.396  14.391  22.857  0.00  0.00    +0.000 HD
ENDBRANCH  19  22
ENDBRANCH   6  16
BRANCH   1  30
ATOM     29  C   UNL     1       1.470   3.049  21.233  0.00  0.00    +0.000 C 
ATOM     30  O   UNL     1       2.229   4.210  21.546  0.00  0.00    +0.000 OA
ENDBRANCH   1  30
TORSDOF 4
ENDMDL
MODEL 9
REMARK VINA RESULT:      -8.1      2.879      8.618
REMARK  Name = 
REMARK  5 active torsions:
REMARK  status: ('A' for Active; 'I' for Inactive)
REMARK    1  A    between atoms: C_1  and  O_2
REMARK    2  A    between atoms: O_2  and  C_3
REMARK    3  A    between atoms: N_5  and  C_6
REMARK    4  A    between atoms: C_14  and  N_15
REMARK    5  A    between atoms: N_18  and  C_19
REMARK                            x       y       z     vdW  Elec       q    Type
REMARK                         _______ _______ _______ _____ _____    ______ ____
ROOT
ATOM      1  C   UNL     1       2.957   3.512  19.317  0.00  0.00    +0.000 A 
ATOM      2  N   UNL     1       4.061   3.821  18.649  0.00  0.00    +0.000 NA
ATOM      3  N   UNL     1       4.247   5.141  18.921  0.00  0.00    +0.000 N 
ATOM      4  C   UNL     1       3.152   5.707  19.567  0.00  0.00    +0.000 A 
ATOM      5  C   UNL     1       2.765   7.036  19.848  0.00  0.00    +0.000 A 
ATOM      6  C   UNL     1       1.547   7.248  20.510  0.00  0.00    +0.000 A 
ATOM      7  C   UNL     1       0.774   6.138  20.893  0.00  0.00    +0.000 A 
ATOM      8  C   UNL     1       1.151   4.828  20.613  0.00  0.00    +0.000 A 
ATOM      9  C   UNL     1       2.333   4.625  19.897  0.00  0.00    +0.000 A 
ENDROOT
BRANCH   3  10
ATOM     10  C   UNL     1       5.474   5.747  18.542  0.00  0.00    +0.000 A 
ATOM     11  C   UNL     1       5.500   6.536  17.381  0.00  0.00    +0.000 A 
ATOM     12  C   UNL     1       6.692   7.129  16.965  0.00  0.00    +0.000 A 
ATOM     13  C   UNL     1       7.867   6.900  17.678  0.00  0.00    +0.000 A 
ATOM     14  C   UNL     1       7.850   6.087  18.813  0.00  0.00    +0.000 A 
ATOM     15  C   UNL     1       6.653   5.519  19.258  0.00  0.00    +0.000 A 
ENDBRANCH   3  10
BRANCH   6  16
ATOM     16  N   UNL     1       1.041   8.505  20.839  0.00  0.00    +0.000 N 
ATOM     17  C   UNL     1      -0.203   8.662  21.612  0.00  0.00    +0.000 C 
ATOM     18  C   UNL     1      -0.378  10.152  22.044  0.00  0.00    +0.000 C 
ATOM     19  N   UNL     1      -0.193  11.154  20.973  0.00  0.00    +0.000 NA
ATOM     20  C   UNL     1       1.070  10.892  20.271  0.00  0.00    +0.000 C 
ATOM     21  C   UNL     1       1.188   9.463  19.732  0.00  0.00    +0.000 C 
BRANCH  19  22
ATOM     22  C   UNL     1      -1.381  11.570  20.211  0.00  0.00    +0.000 C 
ATOM     23  C   UNL     1      -1.905  10.675  19.067  0.00  0.00    +0.000 C 
ATOM     24  C   UNL     1      -1.262  10.950  17.711  0.00  0.00    +0.000 C 
ATOM     25  N   UNL     1      -1.333  12.357  17.327  0.00  0.00    +0.000 NA
ATOM     26  C   UNL     1      -0.769  13.242  18.347  0.00  0.00    +0.000 C 
ATOM     27  C   UNL     1      -1.410  13.038  19.719  0.00  0.00    +0.000 C 
ATOM     28  H   UNL     1      -2.312  12.608  17.178  0.00  0.00    +0.000 HD
ENDBRANCH  19  22
ENDBRANCH   6  16
BRANCH   1  30
ATOM     29  C   UNL     1       1.327   2.047  18.535  0.00  0.00    +0.000 C 
ATOM     30  O   UNL     1       2.478   2.250  19.346  0.00  0.00    +0.000 OA
ENDBRANCH   1  30
TORSDOF 4
ENDMDL
