MODEL 1
REMARK VINA RESULT:      -8.5      0.000      0.000
REMARK  Name = 
REMARK  9 active torsions:
REMARK  status: ('A' for Active; 'I' for Inactive)
REMARK    1  A    between atoms: C_1  and  O_2
REMARK    2  A    between atoms: O_2  and  C_3
REMARK    3  A    between atoms: C_7  and  C_8
REMARK    4  A    between atoms: C_9  and  C_10
REMARK    5  A    between atoms: C_13  and  C_14
REMARK    6  A    between atoms: C_15  and  C_16
REMARK    7  A    between atoms: C_19  and  C_21
REMARK    8  A    between atoms: C_27  and  C_28
REMARK    9  A    between atoms: C_28  and  O_29
REMARK                            x       y       z     vdW  Elec       q    Type
REMARK                         _______ _______ _______ _____ _____    ______ ____
ROOT
ATOM      1  C   UNL     1       4.151   6.662  18.066  0.00  0.00    +0.000 C 
ATOM      2  C   UNL     1       3.900   5.699  16.887  0.00  0.00    +0.000 C 
ATOM      3  N   UNL     1       3.961   4.588  17.862  0.00  0.00    +0.000 N 
ATOM      4  C   UNL     1       3.152   3.487  17.758  0.00  0.00    +0.000 C 
ATOM      5  O   UNL     1       2.484   3.364  16.723  0.00  0.00    +0.000 OA
ATOM      6  C   UNL     1       4.445   5.423  18.961  0.00  0.00    +0.000 C 
ENDROOT
BRANCH   1  10
ATOM      7  C   UNL     1       0.956   9.429  19.464  0.00  0.00    +0.000 A 
ATOM      8  C   UNL     1       1.557   9.640  18.227  0.00  0.00    +0.000 A 
ATOM      9  C   UNL     1       2.559   8.770  17.772  0.00  0.00    +0.000 A 
ATOM     10  C   UNL     1       2.999   7.673  18.540  0.00  0.00    +0.000 A 
ATOM     11  C   UNL     1       2.368   7.496  19.789  0.00  0.00    +0.000 A 
ATOM     12  C   UNL     1       1.363   8.354  20.249  0.00  0.00    +0.000 A 
BRANCH   7  14
ATOM     13  C   UNL     1      -0.942  11.029  20.338  0.00  0.00    +0.000 C 
ATOM     14  C   UNL     1      -0.072  10.299  19.935  0.00  0.00    +0.000 C 
BRANCH  13  19
ATOM     15  C   UNL     1      -3.185  12.967  22.615  0.00  0.00    +0.000 A 
ATOM     16  C   UNL     1      -4.063  13.531  21.689  0.00  0.00    +0.000 A 
ATOM     17  C   UNL     1      -3.907  13.276  20.325  0.00  0.00    +0.000 A 
ATOM     18  C   UNL     1      -2.874  12.453  19.881  0.00  0.00    +0.000 A 
ATOM     19  C   UNL     1      -1.993  11.881  20.803  0.00  0.00    +0.000 A 
ATOM     20  C   UNL     1      -2.149  12.137  22.165  0.00  0.00    +0.000 A 
BRANCH  15  22
ATOM     21  C   UNL     1      -4.283  12.488  24.671  0.00  0.00    +0.000 C 
ATOM     22  O   UNL     1      -3.230  13.145  23.973  0.00  0.00    +0.000 OA
ENDBRANCH  15  22
ENDBRANCH  13  19
ENDBRANCH   7  14
ENDBRANCH   1  10
BRANCH   4  23
ATOM     23  C   UNL     1       3.171   2.342  18.791  0.00  0.00    +0.000 C 
ATOM     24  C   UNL     1       3.507   2.674  20.241  0.00  0.00    +0.000 C 
ATOM     25  C   UNL     1       2.458   3.575  20.882  0.00  0.00    +0.000 C 
ATOM     26  C   UNL     1       1.039   3.022  20.776  0.00  0.00    +0.000 C 
ATOM     27  C   UNL     1       0.690   2.459  19.401  0.00  0.00    +0.000 C 
ATOM     28  C   UNL     1       1.807   1.605  18.796  0.00  0.00    +0.000 C 
ENDBRANCH   4  23
BRANCH   2  29
ATOM     29  C   UNL     1       4.964   5.602  15.905  0.00  0.00    +0.000 C 
ATOM     30  N   UNL     1       5.850   5.536  15.159  0.00  0.00    +0.000 NA
ENDBRANCH   2  29
BRANCH   6  31
ATOM     31  C   UNL     1       5.930   5.255  19.274  0.00  0.00    +0.000 C 
BRANCH  31  32
ATOM     32  O   UNL     1       6.401   4.017  18.737  0.00  0.00    +0.000 OA
ATOM     33  H   UNL     1       5.997   3.861  17.867  0.00  0.00    +0.000 HD
ENDBRANCH  31  32
ENDBRANCH   6  31
TORSDOF 8
ENDMDL
MODEL 2
REMARK VINA RESULT:      -8.5      3.819     11.275
REMARK  Name = 
REMARK  9 active torsions:
REMARK  status: ('A' for Active; 'I' for Inactive)
REMARK    1  A    between atoms: C_1  and  O_2
REMARK    2  A    between atoms: O_2  and  C_3
REMARK    3  A    between atoms: C_7  and  C_8
REMARK    4  A    between atoms: C_9  and  C_10
REMARK    5  A    between atoms: C_13  and  C_14
REMARK    6  A    between atoms: C_15  and  C_16
REMARK    7  A    between atoms: C_19  and  C_21
REMARK    8  A    between atoms: C_27  and  C_28
REMARK    9  A    between atoms: C_28  and  O_29
REMARK                            x       y       z     vdW  Elec       q    Type
REMARK                         _______ _______ _______ _____ _____    ______ ____
ROOT
ATOM      1  C   UNL     1      -0.950  12.895  22.107  0.00  0.00    +0.000 C 
ATOM      2  C   UNL     1      -1.712  13.113  23.432  0.00  0.00    +0.000 C 
ATOM      3  N   UNL     1      -2.931  13.329  22.623  0.00  0.00    +0.000 N 
ATOM      4  C   UNL     1      -4.162  12.887  23.034  0.00  0.00    +0.000 C 
ATOM      5  O   UNL     1      -4.256  12.451  24.189  0.00  0.00    +0.000 OA
ATOM      6  C   UNL     1      -2.219  13.381  21.347  0.00  0.00    +0.000 C 
ENDROOT
BRANCH   1  10
ATOM      7  C   UNL     1       0.629   8.841  21.168  0.00  0.00    +0.000 A 
ATOM      8  C   UNL     1       0.776   9.869  20.242  0.00  0.00    +0.000 A 
ATOM      9  C   UNL     1       0.291  11.153  20.531  0.00  0.00    +0.000 A 
ATOM     10  C   UNL     1      -0.366  11.448  21.743  0.00  0.00    +0.000 A 
ATOM     11  C   UNL     1      -0.499  10.377  22.653  0.00  0.00    +0.000 A 
ATOM     12  C   UNL     1      -0.012   9.095  22.378  0.00  0.00    +0.000 A 
BRANCH   7  14
ATOM     13  C   UNL     1       1.543   6.425  20.660  0.00  0.00    +0.000 C 
ATOM     14  C   UNL     1       1.128   7.533  20.893  0.00  0.00    +0.000 C 
BRANCH  13  19
ATOM     15  C   UNL     1       3.816   3.599  19.756  0.00  0.00    +0.000 A 
ATOM     16  C   UNL     1       2.948   2.517  19.904  0.00  0.00    +0.000 A 
ATOM     17  C   UNL     1       1.626   2.724  20.305  0.00  0.00    +0.000 A 
ATOM     18  C   UNL     1       1.166   4.014  20.558  0.00  0.00    +0.000 A 
ATOM     19  C   UNL     1       2.028   5.104  20.408  0.00  0.00    +0.000 A 
ATOM     20  C   UNL     1       3.348   4.896  20.009  0.00  0.00    +0.000 A 
BRANCH  15  22
ATOM     21  C   UNL     1       5.556   4.431  18.364  0.00  0.00    +0.000 C 
ATOM     22  O   UNL     1       5.130   3.526  19.377  0.00  0.00    +0.000 OA
ENDBRANCH  15  22
ENDBRANCH  13  19
ENDBRANCH   7  14
ENDBRANCH   1  10
BRANCH   4  23
ATOM     23  C   UNL     1      -5.436  13.065  22.182  0.00  0.00    +0.000 C 
ATOM     24  C   UNL     1      -6.739  12.454  22.686  0.00  0.00    +0.000 C 
ATOM     25  C   UNL     1      -7.212  13.099  23.984  0.00  0.00    +0.000 C 
ATOM     26  C   UNL     1      -7.332  14.618  23.896  0.00  0.00    +0.000 C 
ATOM     27  C   UNL     1      -6.156  15.297  23.199  0.00  0.00    +0.000 C 
ATOM     28  C   UNL     1      -5.703  14.570  21.930  0.00  0.00    +0.000 C 
ENDBRANCH   4  23
BRANCH   2  29
ATOM     29  C   UNL     1      -1.356  14.301  24.184  0.00  0.00    +0.000 C 
ATOM     30  N   UNL     1      -1.057  15.221  24.827  0.00  0.00    +0.000 NA
ENDBRANCH   2  29
BRANCH   6  31
ATOM     31  C   UNL     1      -2.063  14.786  20.768  0.00  0.00    +0.000 C 
BRANCH  31  32
ATOM     32  O   UNL     1      -1.535  14.706  19.442  0.00  0.00    +0.000 OA
ATOM     33  H   UNL     1      -1.231  15.584  19.155  0.00  0.00    +0.000 HD
ENDBRANCH  31  32
ENDBRANCH   6  31
TORSDOF 8
ENDMDL
MODEL 3
REMARK VINA RESULT:      -8.5      3.500      5.321
REMARK  Name = 
REMARK  9 active torsions:
REMARK  status: ('A' for Active; 'I' for Inactive)
REMARK    1  A    between atoms: C_1  and  O_2
REMARK    2  A    between atoms: O_2  and  C_3
REMARK    3  A    between atoms: C_7  and  C_8
REMARK    4  A    between atoms: C_9  and  C_10
REMARK    5  A    between atoms: C_13  and  C_14
REMARK    6  A    between atoms: C_15  and  C_16
REMARK    7  A    between atoms: C_19  and  C_21
REMARK    8  A    between atoms: C_27  and  C_28
REMARK    9  A    between atoms: C_28  and  O_29
REMARK                            x       y       z     vdW  Elec       q    Type
REMARK                         _______ _______ _______ _____ _____    ______ ____
ROOT
ATOM      1  C   UNL     1       1.884   5.813  19.473  0.00  0.00    +0.000 C 
ATOM      2  C   UNL     1       2.994   5.192  20.346  0.00  0.00    +0.000 C 
ATOM      3  N   UNL     1       3.620   4.707  19.097  0.00  0.00    +0.000 N 
ATOM      4  C   UNL     1       4.980   4.675  18.932  0.00  0.00    +0.000 C 
ATOM      5  O   UNL     1       5.682   4.903  19.926  0.00  0.00    +0.000 OA
ATOM      6  C   UNL     1       2.478   5.053  18.251  0.00  0.00    +0.000 C 
ENDROOT
BRANCH   1  10
ATOM      7  C   UNL     1       1.498  10.231  19.088  0.00  0.00    +0.000 A 
ATOM      8  C   UNL     1       1.155   9.612  20.285  0.00  0.00    +0.000 A 
ATOM      9  C   UNL     1       1.280   8.221  20.422  0.00  0.00    +0.000 A 
ATOM     10  C   UNL     1       1.739   7.407  19.367  0.00  0.00    +0.000 A 
ATOM     11  C   UNL     1       2.073   8.072  18.168  0.00  0.00    +0.000 A 
ATOM     12  C   UNL     1       1.957   9.459  18.024  0.00  0.00    +0.000 A 
BRANCH   7  14
ATOM     13  C   UNL     1       1.290  12.841  18.820  0.00  0.00    +0.000 C 
ATOM     14  C   UNL     1       1.386  11.646  18.939  0.00  0.00    +0.000 C 
BRANCH  13  19
ATOM     15  C   UNL     1       2.122  16.452  18.327  0.00  0.00    +0.000 A 
ATOM     16  C   UNL     1       0.851  17.021  18.419  0.00  0.00    +0.000 A 
ATOM     17  C   UNL     1      -0.268  16.214  18.636  0.00  0.00    +0.000 A 
ATOM     18  C   UNL     1      -0.121  14.834  18.764  0.00  0.00    +0.000 A 
ATOM     19  C   UNL     1       1.149  14.257  18.677  0.00  0.00    +0.000 A 
ATOM     20  C   UNL     1       2.266  15.064  18.459  0.00  0.00    +0.000 A 
BRANCH  15  22
ATOM     21  C   UNL     1       4.446  16.654  18.792  0.00  0.00    +0.000 C 
ATOM     22  O   UNL     1       3.291  17.133  18.112  0.00  0.00    +0.000 OA
ENDBRANCH  15  22
ENDBRANCH  13  19
ENDBRANCH   7  14
ENDBRANCH   1  10
BRANCH   4  23
ATOM     23  C   UNL     1       5.647   4.215  17.619  0.00  0.00    +0.000 C 
ATOM     24  C   UNL     1       5.104   4.751  16.300  0.00  0.00    +0.000 C 
ATOM     25  C   UNL     1       5.298   6.258  16.167  0.00  0.00    +0.000 C 
ATOM     26  C   UNL     1       6.745   6.700  16.369  0.00  0.00    +0.000 C 
ATOM     27  C   UNL     1       7.442   6.035  17.553  0.00  0.00    +0.000 C 
ATOM     28  C   UNL     1       7.164   4.533  17.652  0.00  0.00    +0.000 C 
ENDBRANCH   4  23
BRANCH   2  29
ATOM     29  C   UNL     1       2.592   4.091  21.201  0.00  0.00    +0.000 C 
ATOM     30  N   UNL     1       2.245   3.245  21.916  0.00  0.00    +0.000 NA
ENDBRANCH   2  29
BRANCH   6  31
ATOM     31  C   UNL     1       1.626   3.861  17.822  0.00  0.00    +0.000 C 
BRANCH  31  32
ATOM     32  O   UNL     1       2.303   3.126  16.800  0.00  0.00    +0.000 OA
ATOM     33  H   UNL     1       1.787   2.337  16.565  0.00  0.00    +0.000 HD
ENDBRANCH  31  32
ENDBRANCH   6  31
TORSDOF 8
ENDMDL
MODEL 4
REMARK VINA RESULT:      -8.3      3.867     10.978
REMARK  Name = 
REMARK  9 active torsions:
REMARK  status: ('A' for Active; 'I' for Inactive)
REMARK    1  A    between atoms: C_1  and  O_2
REMARK    2  A    between atoms: O_2  and  C_3
REMARK    3  A    between atoms: C_7  and  C_8
REMARK    4  A    between atoms: C_9  and  C_10
REMARK    5  A    between atoms: C_13  and  C_14
REMARK    6  A    between atoms: C_15  and  C_16
REMARK    7  A    between atoms: C_19  and  C_21
REMARK    8  A    between atoms: C_27  and  C_28
REMARK    9  A    between atoms: C_28  and  O_29
REMARK                            x       y       z     vdW  Elec       q    Type
REMARK                         _______ _______ _______ _____ _____    ______ ____
ROOT
ATOM      1  C   UNL     1      -1.183  12.782  22.112  0.00  0.00    +0.000 C 
ATOM      2  C   UNL     1      -2.354  12.973  23.098  0.00  0.00    +0.000 C 
ATOM      3  N   UNL     1      -3.187  13.360  21.938  0.00  0.00    +0.000 N 
ATOM      4  C   UNL     1      -4.508  13.006  21.844  0.00  0.00    +0.000 C 
ATOM      5  O   UNL     1      -5.036  12.498  22.842  0.00  0.00    +0.000 OA
ATOM      6  C   UNL     1      -2.063  13.438  21.007  0.00  0.00    +0.000 C 
ENDROOT
BRANCH   1  10
ATOM      7  C   UNL     1       0.493   8.747  21.264  0.00  0.00    +0.000 A 
ATOM      8  C   UNL     1      -0.213   8.966  22.442  0.00  0.00    +0.000 A 
ATOM      9  C   UNL     1      -0.754  10.231  22.716  0.00  0.00    +0.000 A 
ATOM     10  C   UNL     1      -0.596  11.317  21.832  0.00  0.00    +0.000 A 
ATOM     11  C   UNL     1       0.130  11.055  20.650  0.00  0.00    +0.000 A 
ATOM     12  C   UNL     1       0.667   9.796  20.364  0.00  0.00    +0.000 A 
BRANCH   7  14
ATOM     13  C   UNL     1       1.496   6.377  20.708  0.00  0.00    +0.000 C 
ATOM     14  C   UNL     1       1.039   7.462  20.966  0.00  0.00    +0.000 C 
BRANCH  13  19
ATOM     15  C   UNL     1       3.844   3.643  19.717  0.00  0.00    +0.000 A 
ATOM     16  C   UNL     1       3.001   2.535  19.815  0.00  0.00    +0.000 A 
ATOM     17  C   UNL     1       1.672   2.695  20.212  0.00  0.00    +0.000 A 
ATOM     18  C   UNL     1       1.178   3.964  20.510  0.00  0.00    +0.000 A 
ATOM     19  C   UNL     1       2.015   5.079  20.410  0.00  0.00    +0.000 A 
ATOM     20  C   UNL     1       3.343   4.918  20.015  0.00  0.00    +0.000 A 
BRANCH  15  22
ATOM     21  C   UNL     1       5.713   4.830  18.847  0.00  0.00    +0.000 C 
ATOM     22  O   UNL     1       5.163   3.616  19.347  0.00  0.00    +0.000 OA
ENDBRANCH  15  22
ENDBRANCH  13  19
ENDBRANCH   7  14
ENDBRANCH   1  10
BRANCH   4  23
ATOM     23  C   UNL     1      -5.378  13.362  20.621  0.00  0.00    +0.000 C 
ATOM     24  C   UNL     1      -5.514  12.336  19.501  0.00  0.00    +0.000 C 
ATOM     25  C   UNL     1      -6.231  11.073  19.962  0.00  0.00    +0.000 C 
ATOM     26  C   UNL     1      -7.590  11.349  20.602  0.00  0.00    +0.000 C 
ATOM     27  C   UNL     1      -7.591  12.517  21.584  0.00  0.00    +0.000 C 
ATOM     28  C   UNL     1      -6.812  13.734  21.077  0.00  0.00    +0.000 C 
ENDBRANCH   4  23
BRANCH   2  29
ATOM     29  C   UNL     1      -2.220  14.066  24.043  0.00  0.00    +0.000 C 
ATOM     30  N   UNL     1      -2.060  14.938  24.793  0.00  0.00    +0.000 NA
ENDBRANCH   2  29
BRANCH   6  31
ATOM     31  C   UNL     1      -1.624  14.860  20.665  0.00  0.00    +0.000 C 
BRANCH  31  32
ATOM     32  O   UNL     1      -1.100  14.897  19.335  0.00  0.00    +0.000 OA
ATOM     33  H   UNL     1      -0.168  14.624  19.341  0.00  0.00    +0.000 HD
ENDBRANCH  31  32
ENDBRANCH   6  31
TORSDOF 8
ENDMDL
MODEL 5
REMARK VINA RESULT:      -8.3      3.931     10.995
REMARK  Name = 
REMARK  9 active torsions:
REMARK  status: ('A' for Active; 'I' for Inactive)
REMARK    1  A    between atoms: C_1  and  O_2
REMARK    2  A    between atoms: O_2  and  C_3
REMARK    3  A    between atoms: C_7  and  C_8
REMARK    4  A    between atoms: C_9  and  C_10
REMARK    5  A    between atoms: C_13  and  C_14
REMARK    6  A    between atoms: C_15  and  C_16
REMARK    7  A    between atoms: C_19  and  C_21
REMARK    8  A    between atoms: C_27  and  C_28
REMARK    9  A    between atoms: C_28  and  O_29
REMARK                            x       y       z     vdW  Elec       q    Type
REMARK                         _______ _______ _______ _____ _____    ______ ____
ROOT
ATOM      1  C   UNL     1      -1.858  12.699  22.174  0.00  0.00    +0.000 C 
ATOM      2  C   UNL     1      -3.167  12.671  22.991  0.00  0.00    +0.000 C 
ATOM      3  N   UNL     1      -3.866  13.128  21.770  0.00  0.00    +0.000 N 
ATOM      4  C   UNL     1      -5.120  12.682  21.442  0.00  0.00    +0.000 C 
ATOM      5  O   UNL     1      -5.728  12.015  22.289  0.00  0.00    +0.000 OA
ATOM      6  C   UNL     1      -2.637  13.411  21.029  0.00  0.00    +0.000 C 
ENDROOT
BRANCH   1  10
ATOM      7  C   UNL     1       0.237   8.872  21.292  0.00  0.00    +0.000 A 
ATOM      8  C   UNL     1      -0.050   9.754  20.256  0.00  0.00    +0.000 A 
ATOM      9  C   UNL     1      -0.702  10.968  20.523  0.00  0.00    +0.000 A 
ATOM     10  C   UNL     1      -1.098  11.331  21.826  0.00  0.00    +0.000 A 
ATOM     11  C   UNL     1      -0.792  10.407  22.848  0.00  0.00    +0.000 A 
ATOM     12  C   UNL     1      -0.137   9.197  22.593  0.00  0.00    +0.000 A 
BRANCH   7  14
ATOM     13  C   UNL     1       1.484   6.602  20.819  0.00  0.00    +0.000 C 
ATOM     14  C   UNL     1       0.910   7.639  21.037  0.00  0.00    +0.000 C 
BRANCH  13  19
ATOM     15  C   UNL     1       3.848   4.125  19.320  0.00  0.00    +0.000 A 
ATOM     16  C   UNL     1       3.453   2.962  19.984  0.00  0.00    +0.000 A 
ATOM     17  C   UNL     1       2.420   3.004  20.922  0.00  0.00    +0.000 A 
ATOM     18  C   UNL     1       1.774   4.207  21.199  0.00  0.00    +0.000 A 
ATOM     19  C   UNL     1       2.161   5.375  20.535  0.00  0.00    +0.000 A 
ATOM     20  C   UNL     1       3.194   5.333  19.600  0.00  0.00    +0.000 A 
BRANCH  15  22
ATOM     21  C   UNL     1       4.446   4.273  17.023  0.00  0.00    +0.000 C 
ATOM     22  O   UNL     1       4.847   4.215  18.388  0.00  0.00    +0.000 OA
ENDBRANCH  15  22
ENDBRANCH  13  19
ENDBRANCH   7  14
ENDBRANCH   1  10
BRANCH   4  23
ATOM     23  C   UNL     1      -5.844  13.114  20.150  0.00  0.00    +0.000 C 
ATOM     24  C   UNL     1      -5.286  12.643  18.812  0.00  0.00    +0.000 C 
ATOM     25  C   UNL     1      -5.369  11.129  18.654  0.00  0.00    +0.000 C 
ATOM     26  C   UNL     1      -6.774  10.575  18.872  0.00  0.00    +0.000 C 
ATOM     27  C   UNL     1      -7.497  11.165  20.080  0.00  0.00    +0.000 C 
ATOM     28  C   UNL     1      -7.331  12.682  20.202  0.00  0.00    +0.000 C 
ENDBRANCH   4  23
BRANCH   2  29
ATOM     29  C   UNL     1      -3.272  13.647  24.060  0.00  0.00    +0.000 C 
ATOM     30  N   UNL     1      -3.309  14.447  24.900  0.00  0.00    +0.000 NA
ENDBRANCH   2  29
BRANCH   6  31
ATOM     31  C   UNL     1      -2.297  14.895  20.914  0.00  0.00    +0.000 C 
BRANCH  31  32
ATOM     32  O   UNL     1      -3.273  15.553  20.104  0.00  0.00    +0.000 OA
ATOM     33  H   UNL     1      -3.036  16.489  19.997  0.00  0.00    +0.000 HD
ENDBRANCH  31  32
ENDBRANCH   6  31
TORSDOF 8
ENDMDL
MODEL 6
REMARK VINA RESULT:      -8.3      1.184      1.742
REMARK  Name = 
REMARK  9 active torsions:
REMARK  status: ('A' for Active; 'I' for Inactive)
REMARK    1  A    between atoms: C_1  and  O_2
REMARK    2  A    between atoms: O_2  and  C_3
REMARK    3  A    between atoms: C_7  and  C_8
REMARK    4  A    between atoms: C_9  and  C_10
REMARK    5  A    between atoms: C_13  and  C_14
REMARK    6  A    between atoms: C_15  and  C_16
REMARK    7  A    between atoms: C_19  and  C_21
REMARK    8  A    between atoms: C_27  and  C_28
REMARK    9  A    between atoms: C_28  and  O_29
REMARK                            x       y       z     vdW  Elec       q    Type
REMARK                         _______ _______ _______ _____ _____    ______ ____
ROOT
ATOM      1  C   UNL     1       4.210   6.634  17.986  0.00  0.00    +0.000 C 
ATOM      2  C   UNL     1       3.997   5.622  16.841  0.00  0.00    +0.000 C 
ATOM      3  N   UNL     1       4.011   4.554  17.865  0.00  0.00    +0.000 N 
ATOM      4  C   UNL     1       3.196   3.455  17.777  0.00  0.00    +0.000 C 
ATOM      5  O   UNL     1       2.567   3.292  16.724  0.00  0.00    +0.000 OA
ATOM      6  C   UNL     1       4.460   5.432  18.944  0.00  0.00    +0.000 C 
ENDROOT
BRANCH   1  10
ATOM      7  C   UNL     1       0.987   9.479  19.137  0.00  0.00    +0.000 A 
ATOM      8  C   UNL     1       1.671   9.662  17.940  0.00  0.00    +0.000 A 
ATOM      9  C   UNL     1       2.683   8.767  17.562  0.00  0.00    +0.000 A 
ATOM     10  C   UNL     1       3.051   7.672  18.370  0.00  0.00    +0.000 A 
ATOM     11  C   UNL     1       2.335   7.523  19.578  0.00  0.00    +0.000 A 
ATOM     12  C   UNL     1       1.320   8.407  19.960  0.00  0.00    +0.000 A 
BRANCH   7  14
ATOM     13  C   UNL     1      -0.930  11.129  19.867  0.00  0.00    +0.000 C 
ATOM     14  C   UNL     1      -0.053  10.374  19.528  0.00  0.00    +0.000 C 
BRANCH  13  19
ATOM     15  C   UNL     1      -4.240  12.862  19.990  0.00  0.00    +0.000 A 
ATOM     16  C   UNL     1      -4.031  13.733  21.060  0.00  0.00    +0.000 A 
ATOM     17  C   UNL     1      -2.809  13.739  21.736  0.00  0.00    +0.000 A 
ATOM     18  C   UNL     1      -1.788  12.876  21.343  0.00  0.00    +0.000 A 
ATOM     19  C   UNL     1      -1.988  12.003  20.269  0.00  0.00    +0.000 A 
ATOM     20  C   UNL     1      -3.209  11.997  19.596  0.00  0.00    +0.000 A 
BRANCH  15  22
ATOM     21  C   UNL     1      -5.293  12.086  18.004  0.00  0.00    +0.000 C 
ATOM     22  O   UNL     1      -5.390  12.758  19.255  0.00  0.00    +0.000 OA
ENDBRANCH  15  22
ENDBRANCH  13  19
ENDBRANCH   7  14
ENDBRANCH   1  10
BRANCH   4  23
ATOM     23  C   UNL     1       3.166   2.356  18.859  0.00  0.00    +0.000 C 
ATOM     24  C   UNL     1       3.458   2.748  20.303  0.00  0.00    +0.000 C 
ATOM     25  C   UNL     1       2.400   3.688  20.869  0.00  0.00    +0.000 C 
ATOM     26  C   UNL     1       0.979   3.147  20.739  0.00  0.00    +0.000 C 
ATOM     27  C   UNL     1       0.668   2.529  19.378  0.00  0.00    +0.000 C 
ATOM     28  C   UNL     1       1.794   1.636  18.850  0.00  0.00    +0.000 C 
ENDBRANCH   4  23
BRANCH   2  29
ATOM     29  C   UNL     1       5.097   5.475  15.906  0.00  0.00    +0.000 C 
ATOM     30  N   UNL     1       5.950   5.388  15.123  0.00  0.00    +0.000 NA
ENDBRANCH   2  29
BRANCH   6  31
ATOM     31  C   UNL     1       5.930   5.268  19.321  0.00  0.00    +0.000 C 
BRANCH  31  32
ATOM     32  O   UNL     1       6.430   4.038  18.793  0.00  0.00    +0.000 OA
ATOM     33  H   UNL     1       6.013   3.289  19.250  0.00  0.00    +0.000 HD
ENDBRANCH  31  32
ENDBRANCH   6  31
TORSDOF 8
ENDMDL
MODEL 7
REMARK VINA RESULT:      -8.0      4.025     11.005
REMARK  Name = 
REMARK  9 active torsions:
REMARK  status: ('A' for Active; 'I' for Inactive)
REMARK    1  A    between atoms: C_1  and  O_2
REMARK    2  A    between atoms: O_2  and  C_3
REMARK    3  A    between atoms: C_7  and  C_8
REMARK    4  A    between atoms: C_9  and  C_10
REMARK    5  A    between atoms: C_13  and  C_14
REMARK    6  A    between atoms: C_15  and  C_16
REMARK    7  A    between atoms: C_19  and  C_21
REMARK    8  A    between atoms: C_27  and  C_28
REMARK    9  A    between atoms: C_28  and  O_29
REMARK                            x       y       z     vdW  Elec       q    Type
REMARK                         _______ _______ _______ _____ _____    ______ ____
ROOT
ATOM      1  C   UNL     1      -1.982  13.181  22.419  0.00  0.00    +0.000 C 
ATOM      2  C   UNL     1      -3.169  13.032  23.394  0.00  0.00    +0.000 C 
ATOM      3  N   UNL     1      -4.051  13.462  22.288  0.00  0.00    +0.000 N 
ATOM      4  C   UNL     1      -5.301  12.927  22.107  0.00  0.00    +0.000 C 
ATOM      5  O   UNL     1      -5.743  12.194  23.001  0.00  0.00    +0.000 OA
ATOM      6  C   UNL     1      -2.953  13.858  21.407  0.00  0.00    +0.000 C 
ENDROOT
BRANCH   1  10
ATOM      7  C   UNL     1       0.247   9.545  21.145  0.00  0.00    +0.000 A 
ATOM      8  C   UNL     1      -0.049  10.534  20.213  0.00  0.00    +0.000 A 
ATOM      9  C   UNL     1      -0.743  11.688  20.604  0.00  0.00    +0.000 A 
ATOM     10  C   UNL     1      -1.173  11.886  21.931  0.00  0.00    +0.000 A 
ATOM     11  C   UNL     1      -0.858  10.859  22.846  0.00  0.00    +0.000 A 
ATOM     12  C   UNL     1      -0.160   9.706  22.467  0.00  0.00    +0.000 A 
BRANCH   7  14
ATOM     13  C   UNL     1       1.560   7.376  20.439  0.00  0.00    +0.000 C 
ATOM     14  C   UNL     1       0.962   8.371  20.764  0.00  0.00    +0.000 C 
BRANCH  13  19
ATOM     15  C   UNL     1       2.450   3.764  20.069  0.00  0.00    +0.000 A 
ATOM     16  C   UNL     1       3.649   3.868  19.363  0.00  0.00    +0.000 A 
ATOM     17  C   UNL     1       4.152   5.122  19.010  0.00  0.00    +0.000 A 
ATOM     18  C   UNL     1       3.459   6.279  19.362  0.00  0.00    +0.000 A 
ATOM     19  C   UNL     1       2.259   6.183  20.073  0.00  0.00    +0.000 A 
ATOM     20  C   UNL     1       1.756   4.930  20.424  0.00  0.00    +0.000 A 
BRANCH  15  22
ATOM     21  C   UNL     1       1.521   2.485  21.846  0.00  0.00    +0.000 C 
ATOM     22  O   UNL     1       1.853   2.597  20.466  0.00  0.00    +0.000 OA
ENDBRANCH  15  22
ENDBRANCH  13  19
ENDBRANCH   7  14
ENDBRANCH   1  10
BRANCH   4  23
ATOM     23  C   UNL     1      -6.215  13.331  20.932  0.00  0.00    +0.000 C 
ATOM     24  C   UNL     1      -5.672  13.212  19.513  0.00  0.00    +0.000 C 
ATOM     25  C   UNL     1      -5.388  11.766  19.125  0.00  0.00    +0.000 C 
ATOM     26  C   UNL     1      -6.587  10.842  19.318  0.00  0.00    +0.000 C 
ATOM     27  C   UNL     1      -7.330  11.050  20.635  0.00  0.00    +0.000 C 
ATOM     28  C   UNL     1      -7.538  12.526  20.985  0.00  0.00    +0.000 C 
ENDBRANCH   4  23
BRANCH   2  29
ATOM     29  C   UNL     1      -3.208  13.971  24.500  0.00  0.00    +0.000 C 
ATOM     30  N   UNL     1      -3.188  14.734  25.374  0.00  0.00    +0.000 NA
ENDBRANCH   2  29
BRANCH   6  31
ATOM     31  C   UNL     1      -2.742  15.366  21.300  0.00  0.00    +0.000 C 
BRANCH  31  32
ATOM     32  O   UNL     1      -3.453  15.874  20.169  0.00  0.00    +0.000 OA
ATOM     33  H   UNL     1      -3.245  15.342  19.383  0.00  0.00    +0.000 HD
ENDBRANCH  31  32
ENDBRANCH   6  31
TORSDOF 8
ENDMDL
MODEL 8
REMARK VINA RESULT:      -8.0      3.096      4.931
REMARK  Name = 
REMARK  9 active torsions:
REMARK  status: ('A' for Active; 'I' for Inactive)
REMARK    1  A    between atoms: C_1  and  O_2
REMARK    2  A    between atoms: O_2  and  C_3
REMARK    3  A    between atoms: C_7  and  C_8
REMARK    4  A    between atoms: C_9  and  C_10
REMARK    5  A    between atoms: C_13  and  C_14
REMARK    6  A    between atoms: C_15  and  C_16
REMARK    7  A    between atoms: C_19  and  C_21
REMARK    8  A    between atoms: C_27  and  C_28
REMARK    9  A    between atoms: C_28  and  O_29
REMARK                            x       y       z     vdW  Elec       q    Type
REMARK                         _______ _______ _______ _____ _____    ______ ____
ROOT
ATOM      1  C   UNL     1       1.826   5.921  19.460  0.00  0.00    +0.000 C 
ATOM      2  C   UNL     1       2.917   5.281  20.344  0.00  0.00    +0.000 C 
ATOM      3  N   UNL     1       3.555   4.798  19.101  0.00  0.00    +0.000 N 
ATOM      4  C   UNL     1       4.918   4.752  18.956  0.00  0.00    +0.000 C 
ATOM      5  O   UNL     1       5.607   4.965  19.962  0.00  0.00    +0.000 OA
ATOM      6  C   UNL     1       2.430   5.162  18.241  0.00  0.00    +0.000 C 
ENDROOT
BRANCH   1  10
ATOM      7  C   UNL     1       1.494  10.345  19.102  0.00  0.00    +0.000 A 
ATOM      8  C   UNL     1       1.130   9.721  20.291  0.00  0.00    +0.000 A 
ATOM      9  C   UNL     1       1.239   8.328  20.419  0.00  0.00    +0.000 A 
ATOM     10  C   UNL     1       1.701   7.516  19.363  0.00  0.00    +0.000 A 
ATOM     11  C   UNL     1       2.055   8.186  18.173  0.00  0.00    +0.000 A 
ATOM     12  C   UNL     1       1.957   9.575  18.038  0.00  0.00    +0.000 A 
BRANCH   7  14
ATOM     13  C   UNL     1       1.322  12.959  18.850  0.00  0.00    +0.000 C 
ATOM     14  C   UNL     1       1.399  11.762  18.961  0.00  0.00    +0.000 C 
BRANCH  13  19
ATOM     15  C   UNL     1      -0.118  16.409  18.840  0.00  0.00    +0.000 A 
ATOM     16  C   UNL     1       1.005  17.152  18.474  0.00  0.00    +0.000 A 
ATOM     17  C   UNL     1       2.225  16.516  18.240  0.00  0.00    +0.000 A 
ATOM     18  C   UNL     1       2.329  15.132  18.368  0.00  0.00    +0.000 A 
ATOM     19  C   UNL     1       1.208  14.380  18.731  0.00  0.00    +0.000 A 
ATOM     20  C   UNL     1      -0.011  15.016  18.966  0.00  0.00    +0.000 A 
BRANCH  15  22
ATOM     21  C   UNL     1      -1.984  16.497  20.313  0.00  0.00    +0.000 C 
ATOM     22  O   UNL     1      -1.364  16.915  19.101  0.00  0.00    +0.000 OA
ENDBRANCH  15  22
ENDBRANCH  13  19
ENDBRANCH   7  14
ENDBRANCH   1  10
BRANCH   4  23
ATOM     23  C   UNL     1       5.599   4.295  17.650  0.00  0.00    +0.000 C 
ATOM     24  C   UNL     1       5.102   4.870  16.329  0.00  0.00    +0.000 C 
ATOM     25  C   UNL     1       5.346   6.372  16.228  0.00  0.00    +0.000 C 
ATOM     26  C   UNL     1       6.801   6.765  16.468  0.00  0.00    +0.000 C 
ATOM     27  C   UNL     1       7.450   6.059  17.655  0.00  0.00    +0.000 C 
ATOM     28  C   UNL     1       7.124   4.564  17.721  0.00  0.00    +0.000 C 
ENDBRANCH   4  23
BRANCH   2  29
ATOM     29  C   UNL     1       2.490   4.178  21.185  0.00  0.00    +0.000 C 
ATOM     30  N   UNL     1       2.191   3.268  21.841  0.00  0.00    +0.000 NA
ENDBRANCH   2  29
BRANCH   6  31
ATOM     31  C   UNL     1       1.572   3.983  17.791  0.00  0.00    +0.000 C 
BRANCH  31  32
ATOM     32  O   UNL     1       2.360   3.082  17.009  0.00  0.00    +0.000 OA
ATOM     33  H   UNL     1       1.871   2.255  16.867  0.00  0.00    +0.000 HD
ENDBRANCH  31  32
ENDBRANCH   6  31
TORSDOF 8
ENDMDL
MODEL 9
REMARK VINA RESULT:      -8.0      4.015     10.932
REMARK  Name = 
REMARK  9 active torsions:
REMARK  status: ('A' for Active; 'I' for Inactive)
REMARK    1  A    between atoms: C_1  and  O_2
REMARK    2  A    between atoms: O_2  and  C_3
REMARK    3  A    between atoms: C_7  and  C_8
REMARK    4  A    between atoms: C_9  and  C_10
REMARK    5  A    between atoms: C_13  and  C_14
REMARK    6  A    between atoms: C_15  and  C_16
REMARK    7  A    between atoms: C_19  and  C_21
REMARK    8  A    between atoms: C_27  and  C_28
REMARK    9  A    between atoms: C_28  and  O_29
REMARK                            x       y       z     vdW  Elec       q    Type
REMARK                         _______ _______ _______ _____ _____    ______ ____
ROOT
ATOM      1  C   UNL     1      -0.711  10.922  20.314  0.00  0.00    +0.000 C 
ATOM      2  C   UNL     1      -1.327  12.049  19.459  0.00  0.00    +0.000 C 
ATOM      3  N   UNL     1      -0.625  13.013  20.334  0.00  0.00    +0.000 N 
ATOM      4  C   UNL     1      -0.078  14.171  19.846  0.00  0.00    +0.000 C 
ATOM      5  O   UNL     1      -0.338  14.476  18.675  0.00  0.00    +0.000 OA
ATOM      6  C   UNL     1      -0.224  12.008  21.318  0.00  0.00    +0.000 C 
ENDROOT
BRANCH   1  10
ATOM      7  C   UNL     1       2.344   8.250  18.487  0.00  0.00    +0.000 A 
ATOM      8  C   UNL     1       1.931   8.029  19.797  0.00  0.00    +0.000 A 
ATOM      9  C   UNL     1       0.962   8.859  20.381  0.00  0.00    +0.000 A 
ATOM     10  C   UNL     1       0.386   9.939  19.682  0.00  0.00    +0.000 A 
ATOM     11  C   UNL     1       0.835  10.132  18.358  0.00  0.00    +0.000 A 
ATOM     12  C   UNL     1       1.795   9.306  17.764  0.00  0.00    +0.000 A 
BRANCH   7  14
ATOM     13  C   UNL     1       4.139   6.693  17.355  0.00  0.00    +0.000 C 
ATOM     14  C   UNL     1       3.320   7.406  17.877  0.00  0.00    +0.000 C 
BRANCH  13  19
ATOM     15  C   UNL     1       5.811   4.440  14.884  0.00  0.00    +0.000 A 
ATOM     16  C   UNL     1       6.977   4.119  15.581  0.00  0.00    +0.000 A 
ATOM     17  C   UNL     1       7.206   4.650  16.852  0.00  0.00    +0.000 A 
ATOM     18  C   UNL     1       6.271   5.502  17.434  0.00  0.00    +0.000 A 
ATOM     19  C   UNL     1       5.098   5.825  16.744  0.00  0.00    +0.000 A 
ATOM     20  C   UNL     1       4.870   5.296  15.474  0.00  0.00    +0.000 A 
BRANCH  15  22
ATOM     21  C   UNL     1       6.548   3.624  12.775  0.00  0.00    +0.000 C 
ATOM     22  O   UNL     1       5.474   3.991  13.635  0.00  0.00    +0.000 OA
ENDBRANCH  15  22
ENDBRANCH  13  19
ENDBRANCH   7  14
ENDBRANCH   1  10
BRANCH   4  23
ATOM     23  C   UNL     1       0.695  15.164  20.737  0.00  0.00    +0.000 C 
ATOM     24  C   UNL     1       1.812  14.627  21.625  0.00  0.00    +0.000 C 
ATOM     25  C   UNL     1       2.971  14.061  20.813  0.00  0.00    +0.000 C 
ATOM     26  C   UNL     1       3.529  15.046  19.789  0.00  0.00    +0.000 C 
ATOM     27  C   UNL     1       2.461  15.798  18.999  0.00  0.00    +0.000 C 
ATOM     28  C   UNL     1       1.305  16.295  19.871  0.00  0.00    +0.000 C 
ENDBRANCH   4  23
BRANCH   2  29
ATOM     29  C   UNL     1      -2.767  12.202  19.547  0.00  0.00    +0.000 C 
ATOM     30  N   UNL     1      -3.925  12.276  19.597  0.00  0.00    +0.000 NA
ENDBRANCH   2  29
BRANCH   6  31
ATOM     31  C   UNL     1      -1.038  12.030  22.610  0.00  0.00    +0.000 C 
BRANCH  31  32
ATOM     32  O   UNL     1      -0.637  10.947  23.452  0.00  0.00    +0.000 OA
ATOM     33  H   UNL     1      -1.402  10.616  23.951  0.00  0.00    +0.000 HD
ENDBRANCH  31  32
ENDBRANCH   6  31
TORSDOF 8
ENDMDL
