MODEL 1
REMARK VINA RESULT:      -7.3      0.000      0.000
REMARK  Name = 
REMARK  6 active torsions:
REMARK  status: ('A' for Active; 'I' for Inactive)
REMARK    1  A    between atoms: C_1  and  O_2
REMARK    2  A    between atoms: O_2  and  C_3
REMARK    3  A    between atoms: C_6  and  C_7
REMARK    4  A    between atoms: C_8  and  C_9
REMARK    5  A    between atoms: C_8  and  C_11
REMARK    6  A    between atoms: C_13  and  C_14
REMARK                            x       y       z     vdW  Elec       q    Type
REMARK                         _______ _______ _______ _____ _____    ______ ____
ROOT
ATOM      1  C   UNL     1       5.073   4.700  16.149  0.00  0.00    +0.000 C 
ATOM      2  C   UNL     1       6.242   5.357  16.040  0.00  0.00    +0.000 C 
ENDROOT
BRANCH   1   6
ATOM      3  C   UNL     1       2.635   4.639  19.684  0.00  0.00    +0.000 A 
ATOM      4  C   UNL     1       3.340   3.502  19.286  0.00  0.00    +0.000 A 
ATOM      5  C   UNL     1       4.119   3.513  18.121  0.00  0.00    +0.000 A 
ATOM      6  C   UNL     1       4.192   4.662  17.329  0.00  0.00    +0.000 A 
ATOM      7  C   UNL     1       3.446   5.785  17.706  0.00  0.00    +0.000 A 
ATOM      8  C   UNL     1       2.675   5.776  18.879  0.00  0.00    +0.000 A 
BRANCH   3  10
ATOM      9  C   UNL     1       1.537   3.187  21.203  0.00  0.00    +0.000 C 
ATOM     10  O   UNL     1       1.920   4.513  20.841  0.00  0.00    +0.000 OA
ENDBRANCH   3  10
ENDBRANCH   1   6
BRANCH   2  11
ATOM     11  C   UNL     1       6.812   6.147  17.083  0.00  0.00    +0.000 A 
ATOM     12  N   UNL     1       7.025   7.450  17.039  0.00  0.00    +0.000 NA
ATOM     13  C   UNL     1       7.862   7.858  18.070  0.00  0.00    +0.000 A 
ATOM     14  C   UNL     1       8.267   6.841  18.911  0.00  0.00    +0.000 A 
ATOM     15  S   UNL     1       7.553   5.358  18.438  0.00  0.00    +0.000 S 
BRANCH  13  16
ATOM     16  C   UNL     1       8.319   9.242  18.174  0.00  0.00    +0.000 A 
ATOM     17  C   UNL     1       7.778  10.266  17.381  0.00  0.00    +0.000 A 
ATOM     18  C   UNL     1       8.226  11.586  17.515  0.00  0.00    +0.000 A 
ATOM     19  C   UNL     1       9.218  11.890  18.444  0.00  0.00    +0.000 A 
ATOM     20 BR   UNL     1       9.822  13.672  18.623  0.00  0.00    +0.000 Br
ATOM     21  C   UNL     1       9.770  10.889  19.237  0.00  0.00    +0.000 A 
ATOM     22  C   UNL     1       9.322   9.570  19.100  0.00  0.00    +0.000 A 
ENDBRANCH  13  16
ENDBRANCH   2  11
BRANCH   2  23
ATOM     23  C   UNL     1       7.068   5.376  14.765  0.00  0.00    +0.000 C 
ATOM     24  N   UNL     1       7.754   5.392  13.707  0.00  0.00    +0.000 NA
ENDBRANCH   2  23
TORSDOF 5
ENDMDL
MODEL 2
REMARK VINA RESULT:      -7.3      0.334      1.430
REMARK  Name = 
REMARK  6 active torsions:
REMARK  status: ('A' for Active; 'I' for Inactive)
REMARK    1  A    between atoms: C_1  and  O_2
REMARK    2  A    between atoms: O_2  and  C_3
REMARK    3  A    between atoms: C_6  and  C_7
REMARK    4  A    between atoms: C_8  and  C_9
REMARK    5  A    between atoms: C_8  and  C_11
REMARK    6  A    between atoms: C_13  and  C_14
REMARK                            x       y       z     vdW  Elec       q    Type
REMARK                         _______ _______ _______ _____ _____    ______ ____
ROOT
ATOM      1  C   UNL     1       5.114   4.579  15.946  0.00  0.00    +0.000 C 
ATOM      2  C   UNL     1       6.275   5.257  15.886  0.00  0.00    +0.000 C 
ENDROOT
BRANCH   1   6
ATOM      3  C   UNL     1       2.347   4.269  19.217  0.00  0.00    +0.000 A 
ATOM      4  C   UNL     1       2.535   5.485  18.556  0.00  0.00    +0.000 A 
ATOM      5  C   UNL     1       3.453   5.594  17.503  0.00  0.00    +0.000 A 
ATOM      6  C   UNL     1       4.209   4.487  17.104  0.00  0.00    +0.000 A 
ATOM      7  C   UNL     1       4.051   3.282  17.800  0.00  0.00    +0.000 A 
ATOM      8  C   UNL     1       3.124   3.172  18.848  0.00  0.00    +0.000 A 
BRANCH   3  10
ATOM      9  C   UNL     1       1.245   3.058  20.930  0.00  0.00    +0.000 C 
ATOM     10  O   UNL     1       1.419   4.282  20.219  0.00  0.00    +0.000 OA
ENDBRANCH   3  10
ENDBRANCH   1   6
BRANCH   2  11
ATOM     11  C   UNL     1       6.810   6.019  16.969  0.00  0.00    +0.000 A 
ATOM     12  N   UNL     1       7.026   7.322  16.964  0.00  0.00    +0.000 NA
ATOM     13  C   UNL     1       7.828   7.701  18.034  0.00  0.00    +0.000 A 
ATOM     14  C   UNL     1       8.201   6.662  18.863  0.00  0.00    +0.000 A 
ATOM     15  S   UNL     1       7.501   5.193  18.328  0.00  0.00    +0.000 S 
BRANCH  13  16
ATOM     16  C   UNL     1       8.284   9.081  18.189  0.00  0.00    +0.000 A 
ATOM     17  C   UNL     1       9.251   9.442  19.140  0.00  0.00    +0.000 A 
ATOM     18  C   UNL     1       9.679  10.770  19.254  0.00  0.00    +0.000 A 
ATOM     19  C   UNL     1       9.140  11.747  18.419  0.00  0.00    +0.000 A 
ATOM     20 BR   UNL     1       9.718  13.539  18.576  0.00  0.00    +0.000 Br
ATOM     21  C   UNL     1       8.177  11.410  17.473  0.00  0.00    +0.000 A 
ATOM     22  C   UNL     1       7.750  10.081  17.362  0.00  0.00    +0.000 A 
ENDBRANCH  13  16
ENDBRANCH   2  11
BRANCH   2  23
ATOM     23  C   UNL     1       7.128   5.332  14.631  0.00  0.00    +0.000 C 
ATOM     24  N   UNL     1       7.837   5.393  13.590  0.00  0.00    +0.000 NA
ENDBRANCH   2  23
TORSDOF 5
ENDMDL
MODEL 3
REMARK VINA RESULT:      -7.1      1.255      1.877
REMARK  Name = 
REMARK  6 active torsions:
REMARK  status: ('A' for Active; 'I' for Inactive)
REMARK    1  A    between atoms: C_1  and  O_2
REMARK    2  A    between atoms: O_2  and  C_3
REMARK    3  A    between atoms: C_6  and  C_7
REMARK    4  A    between atoms: C_8  and  C_9
REMARK    5  A    between atoms: C_8  and  C_11
REMARK    6  A    between atoms: C_13  and  C_14
REMARK                            x       y       z     vdW  Elec       q    Type
REMARK                         _______ _______ _______ _____ _____    ______ ____
ROOT
ATOM      1  C   UNL     1       4.741   5.690  16.488  0.00  0.00    +0.000 C 
ATOM      2  C   UNL     1       6.051   5.980  16.395  0.00  0.00    +0.000 C 
ENDROOT
BRANCH   1   6
ATOM      3  C   UNL     1       2.239   6.803  19.797  0.00  0.00    +0.000 A 
ATOM      4  C   UNL     1       2.811   5.531  19.734  0.00  0.00    +0.000 A 
ATOM      5  C   UNL     1       3.610   5.158  18.645  0.00  0.00    +0.000 A 
ATOM      6  C   UNL     1       3.837   6.052  17.594  0.00  0.00    +0.000 A 
ATOM      7  C   UNL     1       3.224   7.310  17.639  0.00  0.00    +0.000 A 
ATOM      8  C   UNL     1       2.432   7.686  18.736  0.00  0.00    +0.000 A 
BRANCH   3  10
ATOM      9  C   UNL     1       1.246   8.430  21.207  0.00  0.00    +0.000 C 
ATOM     10  O   UNL     1       1.489   7.056  20.911  0.00  0.00    +0.000 OA
ENDBRANCH   3  10
ENDBRANCH   1   6
BRANCH   2  11
ATOM     11  C   UNL     1       6.778   6.712  17.381  0.00  0.00    +0.000 A 
ATOM     12  N   UNL     1       7.052   8.003  17.339  0.00  0.00    +0.000 NA
ATOM     13  C   UNL     1       8.023   8.341  18.275  0.00  0.00    +0.000 A 
ATOM     14  C   UNL     1       8.467   7.284  19.043  0.00  0.00    +0.000 A 
ATOM     15  S   UNL     1       7.626   5.851  18.625  0.00  0.00    +0.000 S 
BRANCH  13  16
ATOM     16  C   UNL     1       8.561   9.698  18.354  0.00  0.00    +0.000 A 
ATOM     17  C   UNL     1       9.600  10.036  19.236  0.00  0.00    +0.000 A 
ATOM     18  C   UNL     1      10.104  11.341  19.277  0.00  0.00    +0.000 A 
ATOM     19  C   UNL     1       9.572  12.318  18.439  0.00  0.00    +0.000 A 
ATOM     20 BR   UNL     1      10.254  14.079  18.498  0.00  0.00    +0.000 Br
ATOM     21  C   UNL     1       8.539  12.004  17.561  0.00  0.00    +0.000 A 
ATOM     22  C   UNL     1       8.035  10.699  17.522  0.00  0.00    +0.000 A 
ENDBRANCH  13  16
ENDBRANCH   2  11
BRANCH   2  23
ATOM     23  C   UNL     1       6.902   5.601  15.193  0.00  0.00    +0.000 C 
ATOM     24  N   UNL     1       7.606   5.287  14.196  0.00  0.00    +0.000 NA
ENDBRANCH   2  23
TORSDOF 5
ENDMDL
MODEL 4
REMARK VINA RESULT:      -7.0      4.812      7.096
REMARK  Name = 
REMARK  6 active torsions:
REMARK  status: ('A' for Active; 'I' for Inactive)
REMARK    1  A    between atoms: C_1  and  O_2
REMARK    2  A    between atoms: O_2  and  C_3
REMARK    3  A    between atoms: C_6  and  C_7
REMARK    4  A    between atoms: C_8  and  C_9
REMARK    5  A    between atoms: C_8  and  C_11
REMARK    6  A    between atoms: C_13  and  C_14
REMARK                            x       y       z     vdW  Elec       q    Type
REMARK                         _______ _______ _______ _____ _____    ______ ____
ROOT
ATOM      1  C   UNL     1       4.269   3.514  19.285  0.00  0.00    +0.000 C 
ATOM      2  C   UNL     1       3.283   4.204  19.886  0.00  0.00    +0.000 C 
ENDROOT
BRANCH   1   6
ATOM      3  C   UNL     1       6.826   5.096  16.219  0.00  0.00    +0.000 A 
ATOM      4  C   UNL     1       5.762   4.253  15.893  0.00  0.00    +0.000 A 
ATOM      5  C   UNL     1       4.939   3.718  16.893  0.00  0.00    +0.000 A 
ATOM      6  C   UNL     1       5.180   4.010  18.240  0.00  0.00    +0.000 A 
ATOM      7  C   UNL     1       6.276   4.817  18.565  0.00  0.00    +0.000 A 
ATOM      8  C   UNL     1       7.093   5.361  17.561  0.00  0.00    +0.000 A 
BRANCH   3  10
ATOM      9  C   UNL     1       7.266   4.975  13.892  0.00  0.00    +0.000 C 
ATOM     10  O   UNL     1       7.551   5.565  15.159  0.00  0.00    +0.000 OA
ENDBRANCH   3  10
ENDBRANCH   1   6
BRANCH   2  11
ATOM     11  C   UNL     1       2.973   5.567  19.594  0.00  0.00    +0.000 A 
ATOM     12  N   UNL     1       2.418   6.429  20.427  0.00  0.00    +0.000 NA
ATOM     13  C   UNL     1       1.971   7.560  19.755  0.00  0.00    +0.000 A 
ATOM     14  C   UNL     1       2.215   7.549  18.396  0.00  0.00    +0.000 A 
ATOM     15  S   UNL     1       3.060   6.126  17.955  0.00  0.00    +0.000 S 
BRANCH  13  16
ATOM     16  C   UNL     1       1.236   8.615  20.450  0.00  0.00    +0.000 A 
ATOM     17  C   UNL     1       0.673   9.703  19.766  0.00  0.00    +0.000 A 
ATOM     18  C   UNL     1      -0.039  10.690  20.458  0.00  0.00    +0.000 A 
ATOM     19  C   UNL     1      -0.192  10.596  21.839  0.00  0.00    +0.000 A 
ATOM     20 BR   UNL     1      -1.152  11.930  22.772  0.00  0.00    +0.000 Br
ATOM     21  C   UNL     1       0.362   9.527  22.536  0.00  0.00    +0.000 A 
ATOM     22  C   UNL     1       1.075   8.542  21.842  0.00  0.00    +0.000 A 
ENDBRANCH  13  16
ENDBRANCH   2  11
BRANCH   2  23
ATOM     23  C   UNL     1       2.415   3.623  20.989  0.00  0.00    +0.000 C 
ATOM     24  N   UNL     1       1.695   3.140  21.905  0.00  0.00    +0.000 NA
ENDBRANCH   2  23
TORSDOF 5
ENDMDL
MODEL 5
REMARK VINA RESULT:      -7.0      1.291      1.891
REMARK  Name = 
REMARK  6 active torsions:
REMARK  status: ('A' for Active; 'I' for Inactive)
REMARK    1  A    between atoms: C_1  and  O_2
REMARK    2  A    between atoms: O_2  and  C_3
REMARK    3  A    between atoms: C_6  and  C_7
REMARK    4  A    between atoms: C_8  and  C_9
REMARK    5  A    between atoms: C_8  and  C_11
REMARK    6  A    between atoms: C_13  and  C_14
REMARK                            x       y       z     vdW  Elec       q    Type
REMARK                         _______ _______ _______ _____ _____    ______ ____
ROOT
ATOM      1  C   UNL     1       4.722   5.693  16.676  0.00  0.00    +0.000 C 
ATOM      2  C   UNL     1       6.021   6.000  16.513  0.00  0.00    +0.000 C 
ENDROOT
BRANCH   1   6
ATOM      3  C   UNL     1       2.105   6.679  19.935  0.00  0.00    +0.000 A 
ATOM      4  C   UNL     1       2.330   7.591  18.902  0.00  0.00    +0.000 A 
ATOM      5  C   UNL     1       3.200   7.280  17.849  0.00  0.00    +0.000 A 
ATOM      6  C   UNL     1       3.870   6.053  17.822  0.00  0.00    +0.000 A 
ATOM      7  C   UNL     1       3.678   5.161  18.884  0.00  0.00    +0.000 A 
ATOM      8  C   UNL     1       2.797   5.469  19.933  0.00  0.00    +0.000 A 
BRANCH   3  10
ATOM      9  C   UNL     1       1.194   8.489  21.166  0.00  0.00    +0.000 C 
ATOM     10  O   UNL     1       1.229   7.088  20.901  0.00  0.00    +0.000 OA
ENDBRANCH   3  10
ENDBRANCH   1   6
BRANCH   2  11
ATOM     11  C   UNL     1       6.787   6.752  17.454  0.00  0.00    +0.000 A 
ATOM     12  N   UNL     1       7.050   8.045  17.379  0.00  0.00    +0.000 NA
ATOM     13  C   UNL     1       8.059   8.404  18.265  0.00  0.00    +0.000 A 
ATOM     14  C   UNL     1       8.545   7.362  19.029  0.00  0.00    +0.000 A 
ATOM     15  S   UNL     1       7.695   5.917  18.672  0.00  0.00    +0.000 S 
BRANCH  13  16
ATOM     16  C   UNL     1       8.590   9.765  18.298  0.00  0.00    +0.000 A 
ATOM     17  C   UNL     1       8.075  10.785  17.484  0.00  0.00    +0.000 A 
ATOM     18  C   UNL     1       8.595  12.083  17.550  0.00  0.00    +0.000 A 
ATOM     19  C   UNL     1       9.635  12.369  18.431  0.00  0.00    +0.000 A 
ATOM     20 BR   UNL     1      10.337  14.122  18.518  0.00  0.00    +0.000 Br
ATOM     21  C   UNL     1      10.163  11.371  19.244  0.00  0.00    +0.000 A 
ATOM     22  C   UNL     1       9.642  10.073  19.175  0.00  0.00    +0.000 A 
ENDBRANCH  13  16
ENDBRANCH   2  11
BRANCH   2  23
ATOM     23  C   UNL     1       6.815   5.621  15.273  0.00  0.00    +0.000 C 
ATOM     24  N   UNL     1       7.473   5.306  14.245  0.00  0.00    +0.000 NA
ENDBRANCH   2  23
TORSDOF 5
ENDMDL
MODEL 6
REMARK VINA RESULT:      -6.9      0.342      1.043
REMARK  Name = 
REMARK  6 active torsions:
REMARK  status: ('A' for Active; 'I' for Inactive)
REMARK    1  A    between atoms: C_1  and  O_2
REMARK    2  A    between atoms: O_2  and  C_3
REMARK    3  A    between atoms: C_6  and  C_7
REMARK    4  A    between atoms: C_8  and  C_9
REMARK    5  A    between atoms: C_8  and  C_11
REMARK    6  A    between atoms: C_13  and  C_14
REMARK                            x       y       z     vdW  Elec       q    Type
REMARK                         _______ _______ _______ _____ _____    ______ ____
ROOT
ATOM      1  C   UNL     1       5.241   4.500  16.169  0.00  0.00    +0.000 C 
ATOM      2  C   UNL     1       6.337   5.269  16.044  0.00  0.00    +0.000 C 
ENDROOT
BRANCH   1   6
ATOM      3  C   UNL     1       2.943   4.112  19.777  0.00  0.00    +0.000 A 
ATOM      4  C   UNL     1       3.814   3.098  19.375  0.00  0.00    +0.000 A 
ATOM      5  C   UNL     1       4.549   3.212  18.187  0.00  0.00    +0.000 A 
ATOM      6  C   UNL     1       4.411   4.342  17.375  0.00  0.00    +0.000 A 
ATOM      7  C   UNL     1       3.502   5.335  17.757  0.00  0.00    +0.000 A 
ATOM      8  C   UNL     1       2.774   5.224  18.953  0.00  0.00    +0.000 A 
BRANCH   3  10
ATOM      9  C   UNL     1       1.145   3.046  20.894  0.00  0.00    +0.000 C 
ATOM     10  O   UNL     1       2.290   3.894  20.956  0.00  0.00    +0.000 OA
ENDBRANCH   3  10
ENDBRANCH   1   6
BRANCH   2  11
ATOM     11  C   UNL     1       6.867   6.079  17.093  0.00  0.00    +0.000 A 
ATOM     12  N   UNL     1       7.080   7.381  17.032  0.00  0.00    +0.000 NA
ATOM     13  C   UNL     1       7.877   7.810  18.087  0.00  0.00    +0.000 A 
ATOM     14  C   UNL     1       8.251   6.809  18.962  0.00  0.00    +0.000 A 
ATOM     15  S   UNL     1       7.556   5.316  18.489  0.00  0.00    +0.000 S 
BRANCH  13  16
ATOM     16  C   UNL     1       8.328   9.197  18.183  0.00  0.00    +0.000 A 
ATOM     17  C   UNL     1       9.338   9.590  19.074  0.00  0.00    +0.000 A 
ATOM     18  C   UNL     1       9.760  10.924  19.132  0.00  0.00    +0.000 A 
ATOM     19  C   UNL     1       9.172  11.874  18.299  0.00  0.00    +0.000 A 
ATOM     20 BR   UNL     1       9.742  13.674  18.379  0.00  0.00    +0.000 Br
ATOM     21  C   UNL     1       8.167  11.504  17.411  0.00  0.00    +0.000 A 
ATOM     22  C   UNL     1       7.746  10.170  17.357  0.00  0.00    +0.000 A 
ENDBRANCH  13  16
ENDBRANCH   2  11
BRANCH   2  23
ATOM     23  C   UNL     1       7.112   5.405  14.743  0.00  0.00    +0.000 C 
ATOM     24  N   UNL     1       7.755   5.518  13.665  0.00  0.00    +0.000 NA
ENDBRANCH   2  23
TORSDOF 5
ENDMDL
MODEL 7
REMARK VINA RESULT:      -6.9      4.889      7.163
REMARK  Name = 
REMARK  6 active torsions:
REMARK  status: ('A' for Active; 'I' for Inactive)
REMARK    1  A    between atoms: C_1  and  O_2
REMARK    2  A    between atoms: O_2  and  C_3
REMARK    3  A    between atoms: C_6  and  C_7
REMARK    4  A    between atoms: C_8  and  C_9
REMARK    5  A    between atoms: C_8  and  C_11
REMARK    6  A    between atoms: C_13  and  C_14
REMARK                            x       y       z     vdW  Elec       q    Type
REMARK                         _______ _______ _______ _____ _____    ______ ____
ROOT
ATOM      1  C   UNL     1       4.302   3.561  19.171  0.00  0.00    +0.000 C 
ATOM      2  C   UNL     1       3.366   4.252  19.845  0.00  0.00    +0.000 C 
ENDROOT
BRANCH   1   6
ATOM      3  C   UNL     1       6.800   4.860  15.928  0.00  0.00    +0.000 A 
ATOM      4  C   UNL     1       7.120   5.184  17.247  0.00  0.00    +0.000 A 
ATOM      5  C   UNL     1       6.296   4.781  18.306  0.00  0.00    +0.000 A 
ATOM      6  C   UNL     1       5.127   4.055  18.056  0.00  0.00    +0.000 A 
ATOM      7  C   UNL     1       4.785   3.772  16.728  0.00  0.00    +0.000 A 
ATOM      8  C   UNL     1       5.618   4.168  15.669  0.00  0.00    +0.000 A 
BRANCH   3  10
ATOM      9  C   UNL     1       7.348   5.010  13.626  0.00  0.00    +0.000 C 
ATOM     10  O   UNL     1       7.684   5.298  14.983  0.00  0.00    +0.000 OA
ENDBRANCH   3  10
ENDBRANCH   1   6
BRANCH   2  11
ATOM     11  C   UNL     1       3.031   5.613  19.575  0.00  0.00    +0.000 A 
ATOM     12  N   UNL     1       2.467   6.454  20.424  0.00  0.00    +0.000 NA
ATOM     13  C   UNL     1       1.997   7.587  19.770  0.00  0.00    +0.000 A 
ATOM     14  C   UNL     1       2.230   7.599  18.410  0.00  0.00    +0.000 A 
ATOM     15  S   UNL     1       3.096   6.196  17.943  0.00  0.00    +0.000 S 
BRANCH  13  16
ATOM     16  C   UNL     1       1.250   8.620  20.485  0.00  0.00    +0.000 A 
ATOM     17  C   UNL     1       0.961   8.516  21.855  0.00  0.00    +0.000 A 
ATOM     18  C   UNL     1       0.257   9.530  22.515  0.00  0.00    +0.000 A 
ATOM     19  C   UNL     1      -0.165  10.655  21.809  0.00  0.00    +0.000 A 
ATOM     20 BR   UNL     1      -1.116  12.022  22.701  0.00  0.00    +0.000 Br
ATOM     21  C   UNL     1       0.107  10.774  20.450  0.00  0.00    +0.000 A 
ATOM     22  C   UNL     1       0.810   9.758  19.791  0.00  0.00    +0.000 A 
ENDBRANCH  13  16
ENDBRANCH   2  11
BRANCH   2  23
ATOM     23  C   UNL     1       2.588   3.673  21.016  0.00  0.00    +0.000 C 
ATOM     24  N   UNL     1       1.943   3.193  21.987  0.00  0.00    +0.000 NA
ENDBRANCH   2  23
TORSDOF 5
ENDMDL
MODEL 8
REMARK VINA RESULT:      -6.9      0.345      1.004
REMARK  Name = 
REMARK  6 active torsions:
REMARK  status: ('A' for Active; 'I' for Inactive)
REMARK    1  A    between atoms: C_1  and  O_2
REMARK    2  A    between atoms: O_2  and  C_3
REMARK    3  A    between atoms: C_6  and  C_7
REMARK    4  A    between atoms: C_8  and  C_9
REMARK    5  A    between atoms: C_8  and  C_11
REMARK    6  A    between atoms: C_13  and  C_14
REMARK                            x       y       z     vdW  Elec       q    Type
REMARK                         _______ _______ _______ _____ _____    ______ ____
ROOT
ATOM      1  C   UNL     1       5.019   4.552  16.396  0.00  0.00    +0.000 C 
ATOM      2  C   UNL     1       6.146   5.261  16.200  0.00  0.00    +0.000 C 
ENDROOT
BRANCH   1   6
ATOM      3  C   UNL     1       2.610   4.241  19.938  0.00  0.00    +0.000 A 
ATOM      4  C   UNL     1       2.336   5.213  18.975  0.00  0.00    +0.000 A 
ATOM      5  C   UNL     1       3.134   5.331  17.829  0.00  0.00    +0.000 A 
ATOM      6  C   UNL     1       4.229   4.483  17.637  0.00  0.00    +0.000 A 
ATOM      7  C   UNL     1       4.528   3.540  18.628  0.00  0.00    +0.000 A 
ATOM      8  C   UNL     1       3.721   3.416  19.771  0.00  0.00    +0.000 A 
BRANCH   3  10
ATOM      9  C   UNL     1       1.075   2.984  21.236  0.00  0.00    +0.000 C 
ATOM     10  O   UNL     1       1.758   4.214  21.006  0.00  0.00    +0.000 OA
ENDBRANCH   3  10
ENDBRANCH   1   6
BRANCH   2  11
ATOM     11  C   UNL     1       6.754   6.083  17.196  0.00  0.00    +0.000 A 
ATOM     12  N   UNL     1       6.925   7.390  17.120  0.00  0.00    +0.000 NA
ATOM     13  C   UNL     1       7.810   7.838  18.093  0.00  0.00    +0.000 A 
ATOM     14  C   UNL     1       8.295   6.847  18.923  0.00  0.00    +0.000 A 
ATOM     15  S   UNL     1       7.597   5.336  18.514  0.00  0.00    +0.000 S 
BRANCH  13  16
ATOM     16  C   UNL     1       8.231   9.237  18.151  0.00  0.00    +0.000 A 
ATOM     17  C   UNL     1       7.665  10.218  17.322  0.00  0.00    +0.000 A 
ATOM     18  C   UNL     1       8.079  11.553  17.412  0.00  0.00    +0.000 A 
ATOM     19  C   UNL     1       9.061  11.915  18.330  0.00  0.00    +0.000 A 
ATOM     20 BR   UNL     1       9.619  13.716  18.449  0.00  0.00    +0.000 Br
ATOM     21  C   UNL     1       9.637  10.956  19.158  0.00  0.00    +0.000 A 
ATOM     22  C   UNL     1       9.224   9.621  19.065  0.00  0.00    +0.000 A 
ENDBRANCH  13  16
ENDBRANCH   2  11
BRANCH   2  23
ATOM     23  C   UNL     1       6.876   5.307  14.868  0.00  0.00    +0.000 C 
ATOM     24  N   UNL     1       7.482   5.346  13.763  0.00  0.00    +0.000 NA
ENDBRANCH   2  23
TORSDOF 5
ENDMDL
MODEL 9
REMARK VINA RESULT:      -6.8      4.952      7.154
REMARK  Name = 
REMARK  6 active torsions:
REMARK  status: ('A' for Active; 'I' for Inactive)
REMARK    1  A    between atoms: C_1  and  O_2
REMARK    2  A    between atoms: O_2  and  C_3
REMARK    3  A    between atoms: C_6  and  C_7
REMARK    4  A    between atoms: C_8  and  C_9
REMARK    5  A    between atoms: C_8  and  C_11
REMARK    6  A    between atoms: C_13  and  C_14
REMARK                            x       y       z     vdW  Elec       q    Type
REMARK                         _______ _______ _______ _____ _____    ______ ____
ROOT
ATOM      1  C   UNL     1       4.009   3.552  18.984  0.00  0.00    +0.000 C 
ATOM      2  C   UNL     1       3.095   4.260  19.671  0.00  0.00    +0.000 C 
ENDROOT
BRANCH   1   6
ATOM      3  C   UNL     1       6.732   4.894  15.945  0.00  0.00    +0.000 A 
ATOM      4  C   UNL     1       7.029   5.074  17.297  0.00  0.00    +0.000 A 
ATOM      5  C   UNL     1       6.133   4.657  18.290  0.00  0.00    +0.000 A 
ATOM      6  C   UNL     1       4.915   4.064  17.941  0.00  0.00    +0.000 A 
ATOM      7  C   UNL     1       4.600   3.929  16.584  0.00  0.00    +0.000 A 
ATOM      8  C   UNL     1       5.504   4.337  15.590  0.00  0.00    +0.000 A 
BRANCH   3  10
ATOM      9  C   UNL     1       7.470   5.013  13.695  0.00  0.00    +0.000 C 
ATOM     10  O   UNL     1       7.685   5.331  15.069  0.00  0.00    +0.000 OA
ENDBRANCH   3  10
ENDBRANCH   1   6
BRANCH   2  11
ATOM     11  C   UNL     1       2.869   5.658  19.491  0.00  0.00    +0.000 A 
ATOM     12  N   UNL     1       2.260   6.459  20.346  0.00  0.00    +0.000 NA
ATOM     13  C   UNL     1       1.930   7.671  19.752  0.00  0.00    +0.000 A 
ATOM     14  C   UNL     1       2.319   7.783  18.432  0.00  0.00    +0.000 A 
ATOM     15  S   UNL     1       3.153   6.371  17.936  0.00  0.00    +0.000 S 
BRANCH  13  16
ATOM     16  C   UNL     1       1.165   8.687  20.472  0.00  0.00    +0.000 A 
ATOM     17  C   UNL     1       0.488   9.720  19.806  0.00  0.00    +0.000 A 
ATOM     18  C   UNL     1      -0.249  10.670  20.523  0.00  0.00    +0.000 A 
ATOM     19  C   UNL     1      -0.315  10.593  21.912  0.00  0.00    +0.000 A 
ATOM     20 BR   UNL     1      -1.310  11.875  22.879  0.00  0.00    +0.000 Br
ATOM     21  C   UNL     1       0.352   9.578  22.592  0.00  0.00    +0.000 A 
ATOM     22  C   UNL     1       1.091   8.630  21.873  0.00  0.00    +0.000 A 
ENDBRANCH  13  16
ENDBRANCH   2  11
BRANCH   2  23
ATOM     23  C   UNL     1       2.227   3.656  20.763  0.00  0.00    +0.000 C 
ATOM     24  N   UNL     1       1.507   3.156  21.669  0.00  0.00    +0.000 NA
ENDBRANCH   2  23
TORSDOF 5
ENDMDL
