MODEL 1
REMARK VINA RESULT:      -7.4      0.000      0.000
REMARK  Name = 
REMARK  9 active torsions:
REMARK  status: ('A' for Active; 'I' for Inactive)
REMARK    1  A    between atoms: C_1  and  C_2
REMARK    2  A    between atoms: C_6  and  C_7
REMARK    3  A    between atoms: C_8  and  C_9
REMARK    4  A    between atoms: C_9  and  C_10
REMARK    5  A    between atoms: C_10  and  O_11
REMARK    6  A    between atoms: O_11  and  S_12
REMARK    7  A    between atoms: S_12  and  O_15
REMARK    8  A    between atoms: C_18  and  C_19
REMARK    9  A    between atoms: C_20  and  O_21
REMARK                            x       y       z     vdW  Elec       q    Type
REMARK                         _______ _______ _______ _____ _____    ______ ____
ROOT
ATOM      1  C   UNL     1       2.876   8.080  18.026  0.00  0.00    +0.000 C 
ATOM      2  C   UNL     1       2.998   6.585  18.147  0.00  0.00    +0.000 A 
ATOM      3  C   UNL     1       2.150   5.998  19.107  0.00  0.00    +0.000 A 
ATOM      4  C   UNL     1       2.180   4.635  19.312  0.00  0.00    +0.000 A 
ATOM      5  C   UNL     1       3.014   3.827  18.553  0.00  0.00    +0.000 A 
ATOM      6  C   UNL     1       3.859   4.348  17.567  0.00  0.00    +0.000 A 
ATOM      7  C   UNL     1       4.727   3.431  16.739  0.00  0.00    +0.000 C 
ATOM      8  C   UNL     1       3.887   5.775  17.379  0.00  0.00    +0.000 A 
ATOM      9  C   UNL     1       2.826   2.458  19.059  0.00  0.00    +0.000 C 
ATOM     10  O   UNL     1       3.271   1.440  18.552  0.00  0.00    +0.000 OA
ATOM     11  C   UNL     1       2.048   2.499  20.358  0.00  0.00    +0.000 C 
ATOM     12  C   UNL     1       3.035   2.397  21.517  0.00  0.00    +0.000 C 
ATOM     13  C   UNL     1       1.364   3.872  20.309  0.00  0.00    +0.000 C 
ENDROOT
BRANCH  13  14
ATOM     14  O   UNL     1       0.022   3.742  19.852  0.00  0.00    +0.000 OA
ATOM     15  H   UNL     1      -0.369   2.946  20.253  0.00  0.00    +0.000 HD
ENDBRANCH  13  14
BRANCH   8  16
ATOM     16  C   UNL     1       4.820   6.321  16.291  0.00  0.00    +0.000 C 
BRANCH  16  17
ATOM     17  C   UNL     1       6.313   6.579  16.527  0.00  0.00    +0.000 C 
BRANCH  17  18
ATOM     18  O   UNL     1       6.592   6.798  17.905  0.00  0.00    +0.000 OA
BRANCH  18  19
ATOM     19  S   UNL     1       7.325   5.585  18.696  0.00  0.00    +0.000 S 
ATOM     20  O   UNL     1       6.426   5.111  19.722  0.00  0.00    +0.000 OA
ATOM     21  O   UNL     1       7.920   4.694  17.729  0.00  0.00    +0.000 OA
BRANCH  19  22
ATOM     22  O   UNL     1       8.515   6.342  19.474  0.00  0.00    +0.000 OA
ATOM     23  H   UNL     1       8.124   6.749  20.276  0.00  0.00    +0.000 HD
ENDBRANCH  19  22
ENDBRANCH  18  19
ENDBRANCH  17  18
ENDBRANCH  16  17
ENDBRANCH   8  16
TORSDOF 6
ENDMDL
MODEL 2
REMARK VINA RESULT:      -7.0      2.361      5.722
REMARK  Name = 
REMARK  9 active torsions:
REMARK  status: ('A' for Active; 'I' for Inactive)
REMARK    1  A    between atoms: C_1  and  C_2
REMARK    2  A    between atoms: C_6  and  C_7
REMARK    3  A    between atoms: C_8  and  C_9
REMARK    4  A    between atoms: C_9  and  C_10
REMARK    5  A    between atoms: C_10  and  O_11
REMARK    6  A    between atoms: O_11  and  S_12
REMARK    7  A    between atoms: S_12  and  O_15
REMARK    8  A    between atoms: C_18  and  C_19
REMARK    9  A    between atoms: C_20  and  O_21
REMARK                            x       y       z     vdW  Elec       q    Type
REMARK                         _______ _______ _______ _____ _____    ______ ____
ROOT
ATOM      1  C   UNL     1       3.156   1.889  17.474  0.00  0.00    +0.000 C 
ATOM      2  C   UNL     1       3.733   3.279  17.487  0.00  0.00    +0.000 A 
ATOM      3  C   UNL     1       5.107   3.351  17.185  0.00  0.00    +0.000 A 
ATOM      4  C   UNL     1       5.748   4.572  17.175  0.00  0.00    +0.000 A 
ATOM      5  C   UNL     1       5.041   5.739  17.423  0.00  0.00    +0.000 A 
ATOM      6  C   UNL     1       3.670   5.735  17.702  0.00  0.00    +0.000 A 
ATOM      7  C   UNL     1       2.930   7.031  17.934  0.00  0.00    +0.000 C 
ATOM      8  C   UNL     1       2.995   4.465  17.778  0.00  0.00    +0.000 A 
ATOM      9  C   UNL     1       6.027   6.830  17.377  0.00  0.00    +0.000 C 
ATOM     10  O   UNL     1       5.774   8.025  17.398  0.00  0.00    +0.000 OA
ATOM     11  C   UNL     1       7.426   6.250  17.370  0.00  0.00    +0.000 C 
ATOM     12  C   UNL     1       7.980   6.305  18.791  0.00  0.00    +0.000 C 
ATOM     13  C   UNL     1       7.200   4.807  16.900  0.00  0.00    +0.000 C 
ENDROOT
BRANCH  13  14
ATOM     14  O   UNL     1       7.465   4.692  15.506  0.00  0.00    +0.000 OA
ATOM     15  H   UNL     1       7.740   5.562  15.167  0.00  0.00    +0.000 HD
ENDBRANCH  13  14
BRANCH   8  16
ATOM     16  C   UNL     1       1.493   4.486  18.084  0.00  0.00    +0.000 C 
BRANCH  16  17
ATOM     17  C   UNL     1       0.929   4.312  19.499  0.00  0.00    +0.000 C 
BRANCH  17  18
ATOM     18  O   UNL     1       1.246   3.032  20.031  0.00  0.00    +0.000 OA
BRANCH  18  19
ATOM     19  S   UNL     1       2.235   3.008  21.318  0.00  0.00    +0.000 S 
ATOM     20  O   UNL     1       1.488   2.509  22.448  0.00  0.00    +0.000 OA
ATOM     21  O   UNL     1       3.498   2.431  20.920  0.00  0.00    +0.000 OA
BRANCH  19  22
ATOM     22  O   UNL     1       2.472   4.574  21.608  0.00  0.00    +0.000 OA
ATOM     23  H   UNL     1       2.940   4.641  22.467  0.00  0.00    +0.000 HD
ENDBRANCH  19  22
ENDBRANCH  18  19
ENDBRANCH  17  18
ENDBRANCH  16  17
ENDBRANCH   8  16
TORSDOF 6
ENDMDL
MODEL 3
REMARK VINA RESULT:      -7.0      1.889      2.243
REMARK  Name = 
REMARK  9 active torsions:
REMARK  status: ('A' for Active; 'I' for Inactive)
REMARK    1  A    between atoms: C_1  and  C_2
REMARK    2  A    between atoms: C_6  and  C_7
REMARK    3  A    between atoms: C_8  and  C_9
REMARK    4  A    between atoms: C_9  and  C_10
REMARK    5  A    between atoms: C_10  and  O_11
REMARK    6  A    between atoms: O_11  and  S_12
REMARK    7  A    between atoms: S_12  and  O_15
REMARK    8  A    between atoms: C_18  and  C_19
REMARK    9  A    between atoms: C_20  and  O_21
REMARK                            x       y       z     vdW  Elec       q    Type
REMARK                         _______ _______ _______ _____ _____    ______ ____
ROOT
ATOM      1  C   UNL     1       2.397   7.927  17.446  0.00  0.00    +0.000 C 
ATOM      2  C   UNL     1       2.872   6.630  18.046  0.00  0.00    +0.000 A 
ATOM      3  C   UNL     1       1.847   5.726  18.386  0.00  0.00    +0.000 A 
ATOM      4  C   UNL     1       2.161   4.508  18.951  0.00  0.00    +0.000 A 
ATOM      5  C   UNL     1       3.485   4.148  19.154  0.00  0.00    +0.000 A 
ATOM      6  C   UNL     1       4.548   4.991  18.812  0.00  0.00    +0.000 A 
ATOM      7  C   UNL     1       5.976   4.546  19.018  0.00  0.00    +0.000 C 
ATOM      8  C   UNL     1       4.239   6.292  18.277  0.00  0.00    +0.000 A 
ATOM      9  C   UNL     1       3.452   2.827  19.803  0.00  0.00    +0.000 C 
ATOM     10  O   UNL     1       4.417   2.106  20.008  0.00  0.00    +0.000 OA
ATOM     11  C   UNL     1       2.039   2.515  20.250  0.00  0.00    +0.000 C 
ATOM     12  C   UNL     1       1.919   2.840  21.737  0.00  0.00    +0.000 C 
ATOM     13  C   UNL     1       1.188   3.458  19.388  0.00  0.00    +0.000 C 
ENDROOT
BRANCH  13  14
ATOM     14  O   UNL     1       0.668   2.765  18.260  0.00  0.00    +0.000 OA
ATOM     15  H   UNL     1       0.796   1.809  18.393  0.00  0.00    +0.000 HD
ENDBRANCH  13  14
BRANCH   8  16
ATOM     16  C   UNL     1       5.420   7.197  17.909  0.00  0.00    +0.000 C 
BRANCH  16  17
ATOM     17  C   UNL     1       6.580   6.732  17.019  0.00  0.00    +0.000 C 
BRANCH  17  18
ATOM     18  O   UNL     1       6.107   6.144  15.814  0.00  0.00    +0.000 OA
BRANCH  18  19
ATOM     19  S   UNL     1       6.920   4.848  15.273  0.00  0.00    +0.000 S 
ATOM     20  O   UNL     1       7.913   4.498  16.261  0.00  0.00    +0.000 OA
ATOM     21  O   UNL     1       5.971   3.884  14.767  0.00  0.00    +0.000 OA
BRANCH  19  22
ATOM     22  O   UNL     1       7.740   5.444  14.022  0.00  0.00    +0.000 OA
ATOM     23  H   UNL     1       8.203   6.249  14.337  0.00  0.00    +0.000 HD
ENDBRANCH  19  22
ENDBRANCH  18  19
ENDBRANCH  17  18
ENDBRANCH  16  17
ENDBRANCH   8  16
TORSDOF 6
ENDMDL
MODEL 4
REMARK VINA RESULT:      -6.9      1.927      2.379
REMARK  Name = 
REMARK  9 active torsions:
REMARK  status: ('A' for Active; 'I' for Inactive)
REMARK    1  A    between atoms: C_1  and  C_2
REMARK    2  A    between atoms: C_6  and  C_7
REMARK    3  A    between atoms: C_8  and  C_9
REMARK    4  A    between atoms: C_9  and  C_10
REMARK    5  A    between atoms: C_10  and  O_11
REMARK    6  A    between atoms: O_11  and  S_12
REMARK    7  A    between atoms: S_12  and  O_15
REMARK    8  A    between atoms: C_18  and  C_19
REMARK    9  A    between atoms: C_20  and  O_21
REMARK                            x       y       z     vdW  Elec       q    Type
REMARK                         _______ _______ _______ _____ _____    ______ ____
ROOT
ATOM      1  C   UNL     1       2.693   7.926  17.376  0.00  0.00    +0.000 C 
ATOM      2  C   UNL     1       3.151   6.636  18.002  0.00  0.00    +0.000 A 
ATOM      3  C   UNL     1       2.118   5.737  18.328  0.00  0.00    +0.000 A 
ATOM      4  C   UNL     1       2.417   4.525  18.914  0.00  0.00    +0.000 A 
ATOM      5  C   UNL     1       3.735   4.167  19.154  0.00  0.00    +0.000 A 
ATOM      6  C   UNL     1       4.807   5.006  18.829  0.00  0.00    +0.000 A 
ATOM      7  C   UNL     1       6.229   4.563  19.075  0.00  0.00    +0.000 C 
ATOM      8  C   UNL     1       4.512   6.300  18.272  0.00  0.00    +0.000 A 
ATOM      9  C   UNL     1       3.686   2.854  19.817  0.00  0.00    +0.000 C 
ATOM     10  O   UNL     1       4.644   2.135  20.054  0.00  0.00    +0.000 OA
ATOM     11  C   UNL     1       2.262   2.548  20.233  0.00  0.00    +0.000 C 
ATOM     12  C   UNL     1       2.105   2.889  21.712  0.00  0.00    +0.000 C 
ATOM     13  C   UNL     1       1.433   3.481  19.339  0.00  0.00    +0.000 C 
ENDROOT
BRANCH  13  14
ATOM     14  O   UNL     1       0.941   2.775  18.206  0.00  0.00    +0.000 OA
ATOM     15  H   UNL     1       1.488   3.001  17.434  0.00  0.00    +0.000 HD
ENDBRANCH  13  14
BRANCH   8  16
ATOM     16  C   UNL     1       5.703   7.201  17.922  0.00  0.00    +0.000 C 
BRANCH  16  17
ATOM     17  C   UNL     1       6.739   6.834  16.853  0.00  0.00    +0.000 C 
BRANCH  17  18
ATOM     18  O   UNL     1       6.133   6.185  15.742  0.00  0.00    +0.000 OA
BRANCH  18  19
ATOM     19  S   UNL     1       6.788   4.773  15.283  0.00  0.00    +0.000 S 
ATOM     20  O   UNL     1       6.918   4.786  13.845  0.00  0.00    +0.000 OA
ATOM     21  O   UNL     1       7.904   4.477  16.150  0.00  0.00    +0.000 OA
BRANCH  19  22
ATOM     22  O   UNL     1       5.614   3.719  15.605  0.00  0.00    +0.000 OA
ATOM     23  H   UNL     1       6.029   2.833  15.665  0.00  0.00    +0.000 HD
ENDBRANCH  19  22
ENDBRANCH  18  19
ENDBRANCH  17  18
ENDBRANCH  16  17
ENDBRANCH   8  16
TORSDOF 6
ENDMDL
MODEL 5
REMARK VINA RESULT:      -6.9      1.770      2.017
REMARK  Name = 
REMARK  9 active torsions:
REMARK  status: ('A' for Active; 'I' for Inactive)
REMARK    1  A    between atoms: C_1  and  C_2
REMARK    2  A    between atoms: C_6  and  C_7
REMARK    3  A    between atoms: C_8  and  C_9
REMARK    4  A    between atoms: C_9  and  C_10
REMARK    5  A    between atoms: C_10  and  O_11
REMARK    6  A    between atoms: O_11  and  S_12
REMARK    7  A    between atoms: S_12  and  O_15
REMARK    8  A    between atoms: C_18  and  C_19
REMARK    9  A    between atoms: C_20  and  O_21
REMARK                            x       y       z     vdW  Elec       q    Type
REMARK                         _______ _______ _______ _____ _____    ______ ____
ROOT
ATOM      1  C   UNL     1       1.989   7.639  17.540  0.00  0.00    +0.000 C 
ATOM      2  C   UNL     1       2.493   6.354  18.141  0.00  0.00    +0.000 A 
ATOM      3  C   UNL     1       1.486   5.451  18.535  0.00  0.00    +0.000 A 
ATOM      4  C   UNL     1       1.829   4.244  19.106  0.00  0.00    +0.000 A 
ATOM      5  C   UNL     1       3.161   3.892  19.263  0.00  0.00    +0.000 A 
ATOM      6  C   UNL     1       4.206   4.734  18.866  0.00  0.00    +0.000 A 
ATOM      7  C   UNL     1       5.643   4.300  19.022  0.00  0.00    +0.000 C 
ATOM      8  C   UNL     1       3.869   6.025  18.323  0.00  0.00    +0.000 A 
ATOM      9  C   UNL     1       3.161   2.582  19.933  0.00  0.00    +0.000 C 
ATOM     10  O   UNL     1       4.136   1.869  20.111  0.00  0.00    +0.000 OA
ATOM     11  C   UNL     1       1.768   2.271  20.440  0.00  0.00    +0.000 C 
ATOM     12  C   UNL     1       1.705   2.619  21.925  0.00  0.00    +0.000 C 
ATOM     13  C   UNL     1       0.878   3.197  19.598  0.00  0.00    +0.000 C 
ENDROOT
BRANCH  13  14
ATOM     14  O   UNL     1       0.318   2.483  18.502  0.00  0.00    +0.000 OA
ATOM     15  H   UNL     1       0.542   1.541  18.594  0.00  0.00    +0.000 HD
ENDBRANCH  13  14
BRANCH   8  16
ATOM     16  C   UNL     1       5.031   6.930  17.895  0.00  0.00    +0.000 C 
BRANCH  16  17
ATOM     17  C   UNL     1       5.567   6.972  16.458  0.00  0.00    +0.000 C 
BRANCH  17  18
ATOM     18  O   UNL     1       6.869   6.406  16.373  0.00  0.00    +0.000 OA
BRANCH  18  19
ATOM     19  S   UNL     1       7.000   5.015  15.546  0.00  0.00    +0.000 S 
ATOM     20  O   UNL     1       5.700   4.387  15.518  0.00  0.00    +0.000 OA
ATOM     21  O   UNL     1       7.756   5.262  14.342  0.00  0.00    +0.000 OA
BRANCH  19  22
ATOM     22  O   UNL     1       7.902   4.109  16.524  0.00  0.00    +0.000 OA
ATOM     23  H   UNL     1       7.738   4.419  17.440  0.00  0.00    +0.000 HD
ENDBRANCH  19  22
ENDBRANCH  18  19
ENDBRANCH  17  18
ENDBRANCH  16  17
ENDBRANCH   8  16
TORSDOF 6
ENDMDL
MODEL 6
REMARK VINA RESULT:      -6.8      2.845      4.921
REMARK  Name = 
REMARK  9 active torsions:
REMARK  status: ('A' for Active; 'I' for Inactive)
REMARK    1  A    between atoms: C_1  and  C_2
REMARK    2  A    between atoms: C_6  and  C_7
REMARK    3  A    between atoms: C_8  and  C_9
REMARK    4  A    between atoms: C_9  and  C_10
REMARK    5  A    between atoms: C_10  and  O_11
REMARK    6  A    between atoms: O_11  and  S_12
REMARK    7  A    between atoms: S_12  and  O_15
REMARK    8  A    between atoms: C_18  and  C_19
REMARK    9  A    between atoms: C_20  and  O_21
REMARK                            x       y       z     vdW  Elec       q    Type
REMARK                         _______ _______ _______ _____ _____    ______ ____
ROOT
ATOM      1  C   UNL     1       2.105   4.412  20.978  0.00  0.00    +0.000 C 
ATOM      2  C   UNL     1       2.083   5.750  20.290  0.00  0.00    +0.000 A 
ATOM      3  C   UNL     1       1.418   6.769  21.000  0.00  0.00    +0.000 A 
ATOM      4  C   UNL     1       1.326   8.036  20.464  0.00  0.00    +0.000 A 
ATOM      5  C   UNL     1       1.918   8.328  19.244  0.00  0.00    +0.000 A 
ATOM      6  C   UNL     1       2.615   7.367  18.504  0.00  0.00    +0.000 A 
ATOM      7  C   UNL     1       3.273   7.734  17.197  0.00  0.00    +0.000 C 
ATOM      8  C   UNL     1       2.670   6.022  19.018  0.00  0.00    +0.000 A 
ATOM      9  C   UNL     1       1.591   9.735  18.960  0.00  0.00    +0.000 C 
ATOM     10  O   UNL     1       2.054  10.408  18.052  0.00  0.00    +0.000 OA
ATOM     11  C   UNL     1       0.529  10.216  19.927  0.00  0.00    +0.000 C 
ATOM     12  C   UNL     1      -0.827  10.144  19.231  0.00  0.00    +0.000 C 
ATOM     13  C   UNL     1       0.633   9.210  21.082  0.00  0.00    +0.000 C 
ENDROOT
BRANCH  13  14
ATOM     14  O   UNL     1       1.419   9.748  22.139  0.00  0.00    +0.000 OA
ATOM     15  H   UNL     1       2.323   9.900  21.811  0.00  0.00    +0.000 HD
ENDBRANCH  13  14
BRANCH   8  16
ATOM     16  C   UNL     1       3.440   4.987  18.190  0.00  0.00    +0.000 C 
BRANCH  16  17
ATOM     17  C   UNL     1       4.883   4.573  18.508  0.00  0.00    +0.000 C 
BRANCH  17  18
ATOM     18  O   UNL     1       5.820   5.486  17.952  0.00  0.00    +0.000 OA
BRANCH  18  19
ATOM     19  S   UNL     1       6.849   4.885  16.850  0.00  0.00    +0.000 S 
ATOM     20  O   UNL     1       6.150   3.878  16.086  0.00  0.00    +0.000 OA
ATOM     21  O   UNL     1       7.541   5.982  16.216  0.00  0.00    +0.000 OA
BRANCH  19  22
ATOM     22  O   UNL     1       7.910   4.085  17.759  0.00  0.00    +0.000 OA
ATOM     23  H   UNL     1       7.430   3.768  18.553  0.00  0.00    +0.000 HD
ENDBRANCH  19  22
ENDBRANCH  18  19
ENDBRANCH  17  18
ENDBRANCH  16  17
ENDBRANCH   8  16
TORSDOF 6
ENDMDL
MODEL 7
REMARK VINA RESULT:      -6.7      2.711      4.758
REMARK  Name = 
REMARK  9 active torsions:
REMARK  status: ('A' for Active; 'I' for Inactive)
REMARK    1  A    between atoms: C_1  and  C_2
REMARK    2  A    between atoms: C_6  and  C_7
REMARK    3  A    between atoms: C_8  and  C_9
REMARK    4  A    between atoms: C_9  and  C_10
REMARK    5  A    between atoms: C_10  and  O_11
REMARK    6  A    between atoms: O_11  and  S_12
REMARK    7  A    between atoms: S_12  and  O_15
REMARK    8  A    between atoms: C_18  and  C_19
REMARK    9  A    between atoms: C_20  and  O_21
REMARK                            x       y       z     vdW  Elec       q    Type
REMARK                         _______ _______ _______ _____ _____    ______ ____
ROOT
ATOM      1  C   UNL     1       2.165   4.360  20.950  0.00  0.00    +0.000 C 
ATOM      2  C   UNL     1       2.134   5.699  20.263  0.00  0.00    +0.000 A 
ATOM      3  C   UNL     1       1.480   6.718  20.983  0.00  0.00    +0.000 A 
ATOM      4  C   UNL     1       1.381   7.985  20.449  0.00  0.00    +0.000 A 
ATOM      5  C   UNL     1       1.956   8.277  19.220  0.00  0.00    +0.000 A 
ATOM      6  C   UNL     1       2.641   7.315  18.471  0.00  0.00    +0.000 A 
ATOM      7  C   UNL     1       3.281   7.683  17.154  0.00  0.00    +0.000 C 
ATOM      8  C   UNL     1       2.703   5.971  18.983  0.00  0.00    +0.000 A 
ATOM      9  C   UNL     1       1.626   9.684  18.941  0.00  0.00    +0.000 C 
ATOM     10  O   UNL     1       2.077  10.357  18.027  0.00  0.00    +0.000 OA
ATOM     11  C   UNL     1       0.578  10.165  19.924  0.00  0.00    +0.000 C 
ATOM     12  C   UNL     1      -0.788  10.095  19.247  0.00  0.00    +0.000 C 
ATOM     13  C   UNL     1       0.698   9.159  21.077  0.00  0.00    +0.000 C 
ENDROOT
BRANCH  13  14
ATOM     14  O   UNL     1       1.499   9.696  22.123  0.00  0.00    +0.000 OA
ATOM     15  H   UNL     1       1.041   9.562  22.970  0.00  0.00    +0.000 HD
ENDBRANCH  13  14
BRANCH   8  16
ATOM     16  C   UNL     1       3.461   4.935  18.144  0.00  0.00    +0.000 C 
BRANCH  16  17
ATOM     17  C   UNL     1       4.910   4.527  18.435  0.00  0.00    +0.000 C 
BRANCH  17  18
ATOM     18  O   UNL     1       5.651   5.605  18.993  0.00  0.00    +0.000 OA
BRANCH  18  19
ATOM     19  S   UNL     1       7.268   5.456  18.978  0.00  0.00    +0.000 S 
ATOM     20  O   UNL     1       7.734   5.492  20.344  0.00  0.00    +0.000 OA
ATOM     21  O   UNL     1       7.626   4.388  18.075  0.00  0.00    +0.000 OA
BRANCH  19  22
ATOM     22  O   UNL     1       7.743   6.847  18.319  0.00  0.00    +0.000 OA
ATOM     23  H   UNL     1       7.343   7.569  18.847  0.00  0.00    +0.000 HD
ENDBRANCH  19  22
ENDBRANCH  18  19
ENDBRANCH  17  18
ENDBRANCH  16  17
ENDBRANCH   8  16
TORSDOF 6
ENDMDL
MODEL 8
REMARK VINA RESULT:      -6.6      3.771      5.320
REMARK  Name = 
REMARK  9 active torsions:
REMARK  status: ('A' for Active; 'I' for Inactive)
REMARK    1  A    between atoms: C_1  and  C_2
REMARK    2  A    between atoms: C_6  and  C_7
REMARK    3  A    between atoms: C_8  and  C_9
REMARK    4  A    between atoms: C_9  and  C_10
REMARK    5  A    between atoms: C_10  and  O_11
REMARK    6  A    between atoms: O_11  and  S_12
REMARK    7  A    between atoms: S_12  and  O_15
REMARK    8  A    between atoms: C_18  and  C_19
REMARK    9  A    between atoms: C_20  and  O_21
REMARK                            x       y       z     vdW  Elec       q    Type
REMARK                         _______ _______ _______ _____ _____    ______ ____
ROOT
ATOM      1  C   UNL     1       4.900   6.762  16.036  0.00  0.00    +0.000 C 
ATOM      2  C   UNL     1       4.189   6.194  17.235  0.00  0.00    +0.000 A 
ATOM      3  C   UNL     1       4.421   4.824  17.467  0.00  0.00    +0.000 A 
ATOM      4  C   UNL     1       3.816   4.192  18.532  0.00  0.00    +0.000 A 
ATOM      5  C   UNL     1       3.006   4.904  19.404  0.00  0.00    +0.000 A 
ATOM      6  C   UNL     1       2.759   6.272  19.243  0.00  0.00    +0.000 A 
ATOM      7  C   UNL     1       1.898   7.018  20.235  0.00  0.00    +0.000 C 
ATOM      8  C   UNL     1       3.333   6.937  18.102  0.00  0.00    +0.000 A 
ATOM      9  C   UNL     1       2.499   3.926  20.380  0.00  0.00    +0.000 C 
ATOM     10  O   UNL     1       1.875   4.187  21.397  0.00  0.00    +0.000 OA
ATOM     11  C   UNL     1       2.808   2.523  19.900  0.00  0.00    +0.000 C 
ATOM     12  C   UNL     1       1.558   1.954  19.234  0.00  0.00    +0.000 C 
ATOM     13  C   UNL     1       3.943   2.745  18.890  0.00  0.00    +0.000 C 
ENDROOT
BRANCH  13  14
ATOM     14  O   UNL     1       5.204   2.495  19.500  0.00  0.00    +0.000 OA
ATOM     15  H   UNL     1       5.769   3.279  19.385  0.00  0.00    +0.000 HD
ENDBRANCH  13  14
BRANCH   8  16
ATOM     16  C   UNL     1       3.049   8.436  17.948  0.00  0.00    +0.000 C 
BRANCH  16  17
ATOM     17  C   UNL     1       1.652   8.992  17.646  0.00  0.00    +0.000 C 
BRANCH  17  18
ATOM     18  O   UNL     1       1.447  10.252  18.273  0.00  0.00    +0.000 OA
BRANCH  18  19
ATOM     19  S   UNL     1      -0.084  10.630  18.656  0.00  0.00    +0.000 S 
ATOM     20  O   UNL     1      -0.457   9.861  19.820  0.00  0.00    +0.000 OA
ATOM     21  O   UNL     1      -0.234  12.065  18.606  0.00  0.00    +0.000 OA
BRANCH  19  22
ATOM     22  O   UNL     1      -0.919   9.999  17.432  0.00  0.00    +0.000 OA
ATOM     23  H   UNL     1      -1.809   9.773  17.774  0.00  0.00    +0.000 HD
ENDBRANCH  19  22
ENDBRANCH  18  19
ENDBRANCH  17  18
ENDBRANCH  16  17
ENDBRANCH   8  16
TORSDOF 6
ENDMDL
MODEL 9
REMARK VINA RESULT:      -6.6      2.663      4.771
REMARK  Name = 
REMARK  9 active torsions:
REMARK  status: ('A' for Active; 'I' for Inactive)
REMARK    1  A    between atoms: C_1  and  C_2
REMARK    2  A    between atoms: C_6  and  C_7
REMARK    3  A    between atoms: C_8  and  C_9
REMARK    4  A    between atoms: C_9  and  C_10
REMARK    5  A    between atoms: C_10  and  O_11
REMARK    6  A    between atoms: O_11  and  S_12
REMARK    7  A    between atoms: S_12  and  O_15
REMARK    8  A    between atoms: C_18  and  C_19
REMARK    9  A    between atoms: C_20  and  O_21
REMARK                            x       y       z     vdW  Elec       q    Type
REMARK                         _______ _______ _______ _____ _____    ______ ____
ROOT
ATOM      1  C   UNL     1       2.006   4.072  20.824  0.00  0.00    +0.000 C 
ATOM      2  C   UNL     1       2.020   5.455  20.231  0.00  0.00    +0.000 A 
ATOM      3  C   UNL     1       1.481   6.459  21.059  0.00  0.00    +0.000 A 
ATOM      4  C   UNL     1       1.433   7.765  20.617  0.00  0.00    +0.000 A 
ATOM      5  C   UNL     1       1.946   8.106  19.374  0.00  0.00    +0.000 A 
ATOM      6  C   UNL     1       2.517   7.159  18.518  0.00  0.00    +0.000 A 
ATOM      7  C   UNL     1       3.094   7.578  17.187  0.00  0.00    +0.000 C 
ATOM      8  C   UNL     1       2.522   5.781  18.935  0.00  0.00    +0.000 A 
ATOM      9  C   UNL     1       1.693   9.547  19.212  0.00  0.00    +0.000 C 
ATOM     10  O   UNL     1       2.127  10.253  18.315  0.00  0.00    +0.000 OA
ATOM     11  C   UNL     1       0.744  10.021  20.293  0.00  0.00    +0.000 C 
ATOM     12  C   UNL     1      -0.665  10.083  19.708  0.00  0.00    +0.000 C 
ATOM     13  C   UNL     1       0.870   8.932  21.367  0.00  0.00    +0.000 C 
ENDROOT
BRANCH  13  14
ATOM     14  O   UNL     1       1.770   9.344  22.388  0.00  0.00    +0.000 OA
ATOM     15  H   UNL     1       1.696  10.308  22.501  0.00  0.00    +0.000 HD
ENDBRANCH  13  14
BRANCH   8  16
ATOM     16  C   UNL     1       3.155   4.762  17.980  0.00  0.00    +0.000 C 
BRANCH  16  17
ATOM     17  C   UNL     1       4.671   4.610  17.809  0.00  0.00    +0.000 C 
BRANCH  17  18
ATOM     18  O   UNL     1       5.361   4.889  19.021  0.00  0.00    +0.000 OA
BRANCH  18  19
ATOM     19  S   UNL     1       6.891   5.413  18.879  0.00  0.00    +0.000 S 
ATOM     20  O   UNL     1       6.888   6.573  18.019  0.00  0.00    +0.000 OA
ATOM     21  O   UNL     1       7.497   5.434  20.189  0.00  0.00    +0.000 OA
BRANCH  19  22
ATOM     22  O   UNL     1       7.588   4.239  18.026  0.00  0.00    +0.000 OA
ATOM     23  H   UNL     1       7.151   3.399  18.279  0.00  0.00    +0.000 HD
ENDBRANCH  19  22
ENDBRANCH  18  19
ENDBRANCH  17  18
ENDBRANCH  16  17
ENDBRANCH   8  16
TORSDOF 6
ENDMDL
