MODEL 1
REMARK VINA RESULT:      -6.6      0.000      0.000
REMARK  Name = 
REMARK  5 active torsions:
REMARK  status: ('A' for Active; 'I' for Inactive)
REMARK    1  A    between atoms: C_1  and  C_2
REMARK    2  A    between atoms: C_5  and  C_6
REMARK    3  A    between atoms: N_8  and  C_9
REMARK    4  A    between atoms: C_9  and  C_10
REMARK    5  A    between atoms: C_10  and  C_11
REMARK                            x       y       z     vdW  Elec       q    Type
REMARK                         _______ _______ _______ _____ _____    ______ ____
ROOT
ATOM      1  C   UNL     1       5.098   5.647  17.976  0.00  0.00    +0.000 C 
ATOM      2  O   UNL     1       5.806   5.622  18.974  0.00  0.00    +0.000 OA
ATOM      3  N   UNL     1       3.753   5.946  18.013  0.00  0.00    +0.000 N 
ATOM      4  H   UNL     1       3.182   5.941  17.177  0.00  0.00    +0.000 HD
ENDROOT
BRANCH   1   9
ATOM      5  C   UNL     1       7.214   4.364  12.852  0.00  0.00    +0.000 C 
ATOM      6  C   UNL     1       6.673   4.685  14.212  0.00  0.00    +0.000 A 
ATOM      7  N   UNL     1       5.410   4.313  14.494  0.00  0.00    +0.000 NA
ATOM      8  C   UNL     1       4.947   4.638  15.725  0.00  0.00    +0.000 A 
ATOM      9  C   UNL     1       5.685   5.327  16.663  0.00  0.00    +0.000 A 
ATOM     10  C   UNL     1       6.968   5.642  16.282  0.00  0.00    +0.000 A 
ATOM     11  N   UNL     1       7.485   5.339  15.067  0.00  0.00    +0.000 NA
ENDBRANCH   1   9
BRANCH   3  12
ATOM     12  C   UNL     1       3.074   6.270  19.262  0.00  0.00    +0.000 C 
BRANCH  12  13
ATOM     13  C   UNL     1       2.207   5.120  19.784  0.00  0.00    +0.000 C 
BRANCH  13  14
ATOM     14  C   UNL     1       2.590   3.821  19.147  0.00  0.00    +0.000 A 
ATOM     15  N   UNL     1       2.076   3.359  18.028  0.00  0.00    +0.000 NA
ATOM     16  N   UNL     1       2.587   2.126  17.691  0.00  0.00    +0.000 NA
ATOM     17  C   UNL     1       3.480   1.695  18.550  0.00  0.00    +0.000 A 
ATOM     18  N   UNL     1       4.119   0.519  18.448  0.00  0.00    +0.000 N 
ATOM     19  S   UNL     1       3.760   2.779  19.855  0.00  0.00    +0.000 S 
ATOM     20  H   UNL     1       3.990  -0.036  17.611  0.00  0.00    +0.000 HD
ATOM     21  H   UNL     1       4.874   0.259  19.067  0.00  0.00    +0.000 HD
ENDBRANCH  13  14
ENDBRANCH  12  13
ENDBRANCH   3  12
TORSDOF 4
ENDMDL
MODEL 2
REMARK VINA RESULT:      -6.6      0.867      1.144
REMARK  Name = 
REMARK  5 active torsions:
REMARK  status: ('A' for Active; 'I' for Inactive)
REMARK    1  A    between atoms: C_1  and  C_2
REMARK    2  A    between atoms: C_5  and  C_6
REMARK    3  A    between atoms: N_8  and  C_9
REMARK    4  A    between atoms: C_9  and  C_10
REMARK    5  A    between atoms: C_10  and  C_11
REMARK                            x       y       z     vdW  Elec       q    Type
REMARK                         _______ _______ _______ _____ _____    ______ ____
ROOT
ATOM      1  C   UNL     1       4.794   5.695  18.586  0.00  0.00    +0.000 C 
ATOM      2  O   UNL     1       5.424   5.572  19.628  0.00  0.00    +0.000 OA
ATOM      3  N   UNL     1       3.443   5.969  18.552  0.00  0.00    +0.000 N 
ATOM      4  H   UNL     1       2.936   6.046  17.678  0.00  0.00    +0.000 HD
ENDROOT
BRANCH   1   9
ATOM      5  C   UNL     1       7.555   4.934  13.670  0.00  0.00    +0.000 C 
ATOM      6  C   UNL     1       6.835   5.159  14.964  0.00  0.00    +0.000 A 
ATOM      7  N   UNL     1       7.326   4.571  16.072  0.00  0.00    +0.000 NA
ATOM      8  C   UNL     1       6.638   4.778  17.220  0.00  0.00    +0.000 A 
ATOM      9  C   UNL     1       5.484   5.528  17.296  0.00  0.00    +0.000 A 
ATOM     10  C   UNL     1       5.080   6.101  16.113  0.00  0.00    +0.000 A 
ATOM     11  N   UNL     1       5.730   5.931  14.937  0.00  0.00    +0.000 NA
ENDBRANCH   1   9
BRANCH   3  12
ATOM     12  C   UNL     1       2.665   6.146  19.772  0.00  0.00    +0.000 C 
BRANCH  12  13
ATOM     13  C   UNL     1       1.869   4.895  20.157  0.00  0.00    +0.000 C 
BRANCH  13  14
ATOM     14  C   UNL     1       2.347   3.695  19.402  0.00  0.00    +0.000 A 
ATOM     15  N   UNL     1       1.932   3.357  18.199  0.00  0.00    +0.000 NA
ATOM     16  N   UNL     1       2.515   2.190  17.758  0.00  0.00    +0.000 NA
ATOM     17  C   UNL     1       3.360   1.684  18.625  0.00  0.00    +0.000 A 
ATOM     18  N   UNL     1       4.050   0.550  18.433  0.00  0.00    +0.000 N 
ATOM     19  S   UNL     1       3.503   2.611  20.067  0.00  0.00    +0.000 S 
ATOM     20  H   UNL     1       4.003   0.097  17.529  0.00  0.00    +0.000 HD
ATOM     21  H   UNL     1       4.768   0.240  19.071  0.00  0.00    +0.000 HD
ENDBRANCH  13  14
ENDBRANCH  12  13
ENDBRANCH   3  12
TORSDOF 4
ENDMDL
MODEL 3
REMARK VINA RESULT:      -6.4      1.656      3.073
REMARK  Name = 
REMARK  5 active torsions:
REMARK  status: ('A' for Active; 'I' for Inactive)
REMARK    1  A    between atoms: C_1  and  C_2
REMARK    2  A    between atoms: C_5  and  C_6
REMARK    3  A    between atoms: N_8  and  C_9
REMARK    4  A    between atoms: C_9  and  C_10
REMARK    5  A    between atoms: C_10  and  C_11
REMARK                            x       y       z     vdW  Elec       q    Type
REMARK                         _______ _______ _______ _____ _____    ______ ____
ROOT
ATOM      1  C   UNL     1       5.366   3.957  17.565  0.00  0.00    +0.000 C 
ATOM      2  O   UNL     1       5.684   4.501  18.614  0.00  0.00    +0.000 OA
ATOM      3  N   UNL     1       4.389   2.989  17.485  0.00  0.00    +0.000 N 
ATOM      4  H   UNL     1       4.156   2.536  16.608  0.00  0.00    +0.000 HD
ENDROOT
BRANCH   1   9
ATOM      5  C   UNL     1       7.942   5.279  12.666  0.00  0.00    +0.000 C 
ATOM      6  C   UNL     1       7.285   4.922  13.965  0.00  0.00    +0.000 A 
ATOM      7  N   UNL     1       6.374   3.931  13.961  0.00  0.00    +0.000 NA
ATOM      8  C   UNL     1       5.785   3.649  15.149  0.00  0.00    +0.000 A 
ATOM      9  C   UNL     1       6.060   4.324  16.318  0.00  0.00    +0.000 A 
ATOM     10  C   UNL     1       7.020   5.303  16.217  0.00  0.00    +0.000 A 
ATOM     11  N   UNL     1       7.643   5.625  15.058  0.00  0.00    +0.000 NA
ENDBRANCH   1   9
BRANCH   3  12
ATOM     12  C   UNL     1       3.647   2.547  18.660  0.00  0.00    +0.000 C 
BRANCH  12  13
ATOM     13  C   UNL     1       2.209   3.074  18.690  0.00  0.00    +0.000 C 
BRANCH  13  14
ATOM     14  C   UNL     1       2.171   4.521  19.070  0.00  0.00    +0.000 A 
ATOM     15  N   UNL     1       2.396   5.516  18.239  0.00  0.00    +0.000 NA
ATOM     16  N   UNL     1       2.327   6.741  18.866  0.00  0.00    +0.000 NA
ATOM     17  C   UNL     1       2.040   6.643  20.143  0.00  0.00    +0.000 A 
ATOM     18  N   UNL     1       1.923   7.691  20.971  0.00  0.00    +0.000 N 
ATOM     19  S   UNL     1       1.834   5.023  20.680  0.00  0.00    +0.000 S 
ATOM     20  H   UNL     1       1.957   8.627  20.585  0.00  0.00    +0.000 HD
ATOM     21  H   UNL     1       1.601   7.594  21.924  0.00  0.00    +0.000 HD
ENDBRANCH  13  14
ENDBRANCH  12  13
ENDBRANCH   3  12
TORSDOF 4
ENDMDL
MODEL 4
REMARK VINA RESULT:      -6.3      2.710      3.612
REMARK  Name = 
REMARK  5 active torsions:
REMARK  status: ('A' for Active; 'I' for Inactive)
REMARK    1  A    between atoms: C_1  and  C_2
REMARK    2  A    between atoms: C_5  and  C_6
REMARK    3  A    between atoms: N_8  and  C_9
REMARK    4  A    between atoms: C_9  and  C_10
REMARK    5  A    between atoms: C_10  and  C_11
REMARK                            x       y       z     vdW  Elec       q    Type
REMARK                         _______ _______ _______ _____ _____    ______ ____
ROOT
ATOM      1  C   UNL     1       5.673   4.659  18.100  0.00  0.00    +0.000 C 
ATOM      2  O   UNL     1       5.814   3.873  19.028  0.00  0.00    +0.000 OA
ATOM      3  N   UNL     1       4.800   4.441  17.056  0.00  0.00    +0.000 N 
ATOM      4  H   UNL     1       4.714   5.096  16.286  0.00  0.00    +0.000 HD
ENDROOT
BRANCH   1   9
ATOM      5  C   UNL     1       8.659   9.497  17.876  0.00  0.00    +0.000 C 
ATOM      6  C   UNL     1       7.892   8.211  17.924  0.00  0.00    +0.000 A 
ATOM      7  N   UNL     1       6.798   8.098  17.147  0.00  0.00    +0.000 NA
ATOM      8  C   UNL     1       6.117   6.930  17.232  0.00  0.00    +0.000 A 
ATOM      9  C   UNL     1       6.476   5.893  18.065  0.00  0.00    +0.000 A 
ATOM     10  C   UNL     1       7.620   6.102  18.799  0.00  0.00    +0.000 A 
ATOM     11  N   UNL     1       8.342   7.247  18.752  0.00  0.00    +0.000 NA
ENDBRANCH   1   9
BRANCH   3  12
ATOM     12  C   UNL     1       3.964   3.248  16.990  0.00  0.00    +0.000 C 
BRANCH  12  13
ATOM     13  C   UNL     1       2.487   3.540  17.272  0.00  0.00    +0.000 C 
BRANCH  13  14
ATOM     14  C   UNL     1       2.212   3.571  18.742  0.00  0.00    +0.000 A 
ATOM     15  N   UNL     1       2.274   4.652  19.490  0.00  0.00    +0.000 NA
ATOM     16  N   UNL     1       2.005   4.384  20.814  0.00  0.00    +0.000 NA
ATOM     17  C   UNL     1       1.736   3.119  21.032  0.00  0.00    +0.000 A 
ATOM     18  N   UNL     1       1.448   2.606  22.237  0.00  0.00    +0.000 N 
ATOM     19  S   UNL     1       1.796   2.148  19.613  0.00  0.00    +0.000 S 
ATOM     20  H   UNL     1       1.329   3.236  23.021  0.00  0.00    +0.000 HD
ATOM     21  H   UNL     1       1.145   1.650  22.359  0.00  0.00    +0.000 HD
ENDBRANCH  13  14
ENDBRANCH  12  13
ENDBRANCH   3  12
TORSDOF 4
ENDMDL
MODEL 5
REMARK VINA RESULT:      -6.3      2.778      6.241
REMARK  Name = 
REMARK  5 active torsions:
REMARK  status: ('A' for Active; 'I' for Inactive)
REMARK    1  A    between atoms: C_1  and  C_2
REMARK    2  A    between atoms: C_5  and  C_6
REMARK    3  A    between atoms: N_8  and  C_9
REMARK    4  A    between atoms: C_9  and  C_10
REMARK    5  A    between atoms: C_10  and  C_11
REMARK                            x       y       z     vdW  Elec       q    Type
REMARK                         _______ _______ _______ _____ _____    ______ ____
ROOT
ATOM      1  C   UNL     1       3.168   6.146  18.460  0.00  0.00    +0.000 C 
ATOM      2  O   UNL     1       2.610   5.201  17.919  0.00  0.00    +0.000 OA
ATOM      3  N   UNL     1       4.496   6.125  18.830  0.00  0.00    +0.000 N 
ATOM      4  H   UNL     1       4.933   6.911  19.296  0.00  0.00    +0.000 HD
ENDROOT
BRANCH   1   9
ATOM      5  C   UNL     1       0.219  10.832  19.771  0.00  0.00    +0.000 C 
ATOM      6  C   UNL     1       0.976   9.590  19.413  0.00  0.00    +0.000 A 
ATOM      7  N   UNL     1       1.235   8.702  20.391  0.00  0.00    +0.000 NA
ATOM      8  C   UNL     1       1.939   7.601  20.035  0.00  0.00    +0.000 A 
ATOM      9  C   UNL     1       2.402   7.368  18.758  0.00  0.00    +0.000 A 
ATOM     10  C   UNL     1       2.065   8.325  17.830  0.00  0.00    +0.000 A 
ATOM     11  N   UNL     1       1.360   9.443  18.129  0.00  0.00    +0.000 NA
ENDBRANCH   1   9
BRANCH   3  12
ATOM     12  C   UNL     1       5.342   4.962  18.588  0.00  0.00    +0.000 C 
BRANCH  12  13
ATOM     13  C   UNL     1       6.714   5.332  18.017  0.00  0.00    +0.000 C 
BRANCH  13  14
ATOM     14  C   UNL     1       6.793   5.023  16.555  0.00  0.00    +0.000 A 
ATOM     15  N   UNL     1       7.575   5.650  15.702  0.00  0.00    +0.000 NA
ATOM     16  N   UNL     1       7.420   5.183  14.415  0.00  0.00    +0.000 NA
ATOM     17  C   UNL     1       6.542   4.212  14.330  0.00  0.00    +0.000 A 
ATOM     18  N   UNL     1       6.209   3.596  13.186  0.00  0.00    +0.000 N 
ATOM     19  S   UNL     1       5.827   3.796  15.838  0.00  0.00    +0.000 S 
ATOM     20  H   UNL     1       6.729   3.811  12.345  0.00  0.00    +0.000 HD
ATOM     21  H   UNL     1       5.607   2.784  13.165  0.00  0.00    +0.000 HD
ENDBRANCH  13  14
ENDBRANCH  12  13
ENDBRANCH   3  12
TORSDOF 4
ENDMDL
MODEL 6
REMARK VINA RESULT:      -6.2      2.482      5.833
REMARK  Name = 
REMARK  5 active torsions:
REMARK  status: ('A' for Active; 'I' for Inactive)
REMARK    1  A    between atoms: C_1  and  C_2
REMARK    2  A    between atoms: C_5  and  C_6
REMARK    3  A    between atoms: N_8  and  C_9
REMARK    4  A    between atoms: C_9  and  C_10
REMARK    5  A    between atoms: C_10  and  C_11
REMARK                            x       y       z     vdW  Elec       q    Type
REMARK                         _______ _______ _______ _____ _____    ______ ____
ROOT
ATOM      1  C   UNL     1       4.066   5.218  17.095  0.00  0.00    +0.000 C 
ATOM      2  O   UNL     1       3.999   6.433  16.960  0.00  0.00    +0.000 OA
ATOM      3  N   UNL     1       4.707   4.394  16.196  0.00  0.00    +0.000 N 
ATOM      4  H   UNL     1       4.732   3.388  16.317  0.00  0.00    +0.000 HD
ENDROOT
BRANCH   1   9
ATOM      5  C   UNL     1       1.556   2.620  21.492  0.00  0.00    +0.000 C 
ATOM      6  C   UNL     1       2.199   3.322  20.335  0.00  0.00    +0.000 A 
ATOM      7  N   UNL     1       2.181   2.711  19.135  0.00  0.00    +0.000 NA
ATOM      8  C   UNL     1       2.790   3.364  18.117  0.00  0.00    +0.000 A 
ATOM      9  C   UNL     1       3.421   4.581  18.256  0.00  0.00    +0.000 A 
ATOM     10  C   UNL     1       3.364   5.129  19.517  0.00  0.00    +0.000 A 
ATOM     11  N   UNL     1       2.766   4.522  20.571  0.00  0.00    +0.000 NA
ENDBRANCH   1   9
BRANCH   3  12
ATOM     12  C   UNL     1       5.371   4.922  15.009  0.00  0.00    +0.000 C 
BRANCH  12  13
ATOM     13  C   UNL     1       6.892   5.013  15.168  0.00  0.00    +0.000 C 
BRANCH  13  14
ATOM     14  C   UNL     1       7.266   5.491  16.536  0.00  0.00    +0.000 A 
ATOM     15  N   UNL     1       7.409   6.756  16.870  0.00  0.00    +0.000 NA
ATOM     16  N   UNL     1       7.790   6.906  18.185  0.00  0.00    +0.000 NA
ATOM     17  C   UNL     1       7.910   5.760  18.813  0.00  0.00    +0.000 A 
ATOM     18  N   UNL     1       8.276   5.639  20.097  0.00  0.00    +0.000 N 
ATOM     19  S   UNL     1       7.567   4.394  17.825  0.00  0.00    +0.000 S 
ATOM     20  H   UNL     1       8.370   6.475  20.660  0.00  0.00    +0.000 HD
ATOM     21  H   UNL     1       8.261   4.752  20.582  0.00  0.00    +0.000 HD
ENDBRANCH  13  14
ENDBRANCH  12  13
ENDBRANCH   3  12
TORSDOF 4
ENDMDL
MODEL 7
REMARK VINA RESULT:      -6.2      2.575      6.192
REMARK  Name = 
REMARK  5 active torsions:
REMARK  status: ('A' for Active; 'I' for Inactive)
REMARK    1  A    between atoms: C_1  and  C_2
REMARK    2  A    between atoms: C_5  and  C_6
REMARK    3  A    between atoms: N_8  and  C_9
REMARK    4  A    between atoms: C_9  and  C_10
REMARK    5  A    between atoms: C_10  and  C_11
REMARK                            x       y       z     vdW  Elec       q    Type
REMARK                         _______ _______ _______ _____ _____    ______ ____
ROOT
ATOM      1  C   UNL     1       3.418   4.363  18.442  0.00  0.00    +0.000 C 
ATOM      2  O   UNL     1       3.525   3.263  18.967  0.00  0.00    +0.000 OA
ATOM      3  N   UNL     1       3.903   4.648  17.183  0.00  0.00    +0.000 N 
ATOM      4  H   UNL     1       3.822   5.572  16.776  0.00  0.00    +0.000 HD
ENDROOT
BRANCH   1   9
ATOM      5  C   UNL     1       0.909   8.690  21.156  0.00  0.00    +0.000 C 
ATOM      6  C   UNL     1       1.587   7.549  20.460  0.00  0.00    +0.000 A 
ATOM      7  N   UNL     1       2.243   7.807  19.313  0.00  0.00    +0.000 NA
ATOM      8  C   UNL     1       2.825   6.749  18.700  0.00  0.00    +0.000 A 
ATOM      9  C   UNL     1       2.762   5.458  19.178  0.00  0.00    +0.000 A 
ATOM     10  C   UNL     1       2.087   5.306  20.366  0.00  0.00    +0.000 A 
ATOM     11  N   UNL     1       1.489   6.328  21.024  0.00  0.00    +0.000 NA
ENDBRANCH   1   9
BRANCH   3  12
ATOM     12  C   UNL     1       4.576   3.638  16.374  0.00  0.00    +0.000 C 
BRANCH  12  13
ATOM     13  C   UNL     1       5.838   4.169  15.688  0.00  0.00    +0.000 C 
BRANCH  13  14
ATOM     14  C   UNL     1       6.452   5.286  16.472  0.00  0.00    +0.000 A 
ATOM     15  N   UNL     1       6.309   6.563  16.188  0.00  0.00    +0.000 NA
ATOM     16  N   UNL     1       7.010   7.370  17.057  0.00  0.00    +0.000 NA
ATOM     17  C   UNL     1       7.649   6.689  17.979  0.00  0.00    +0.000 A 
ATOM     18  N   UNL     1       8.406   7.245  18.936  0.00  0.00    +0.000 N 
ATOM     19  S   UNL     1       7.441   4.987  17.847  0.00  0.00    +0.000 S 
ATOM     20  H   UNL     1       8.416   8.253  19.029  0.00  0.00    +0.000 HD
ATOM     21  H   UNL     1       8.802   6.705  19.693  0.00  0.00    +0.000 HD
ENDBRANCH  13  14
ENDBRANCH  12  13
ENDBRANCH   3  12
TORSDOF 4
ENDMDL
MODEL 8
REMARK VINA RESULT:      -6.2      2.791      5.346
REMARK  Name = 
REMARK  5 active torsions:
REMARK  status: ('A' for Active; 'I' for Inactive)
REMARK    1  A    between atoms: C_1  and  C_2
REMARK    2  A    between atoms: C_5  and  C_6
REMARK    3  A    between atoms: N_8  and  C_9
REMARK    4  A    between atoms: C_9  and  C_10
REMARK    5  A    between atoms: C_10  and  C_11
REMARK                            x       y       z     vdW  Elec       q    Type
REMARK                         _______ _______ _______ _____ _____    ______ ____
ROOT
ATOM      1  C   UNL     1       3.650   6.671  17.760  0.00  0.00    +0.000 C 
ATOM      2  O   UNL     1       4.695   7.073  17.266  0.00  0.00    +0.000 OA
ATOM      3  N   UNL     1       3.274   5.345  17.750  0.00  0.00    +0.000 N 
ATOM      4  H   UNL     1       2.393   5.037  18.147  0.00  0.00    +0.000 HD
ENDROOT
BRANCH   1   9
ATOM      5  C   UNL     1       0.101  10.312  20.314  0.00  0.00    +0.000 C 
ATOM      6  C   UNL     1       1.017   9.346  19.626  0.00  0.00    +0.000 A 
ATOM      7  N   UNL     1       1.444   8.275  20.321  0.00  0.00    +0.000 NA
ATOM      8  C   UNL     1       2.287   7.435  19.675  0.00  0.00    +0.000 A 
ATOM      9  C   UNL     1       2.725   7.633  18.384  0.00  0.00    +0.000 A 
ATOM     10  C   UNL     1       2.213   8.744  17.757  0.00  0.00    +0.000 A 
ATOM     11  N   UNL     1       1.365   9.617  18.352  0.00  0.00    +0.000 NA
ENDBRANCH   1   9
BRANCH   3  12
ATOM     12  C   UNL     1       4.113   4.313  17.152  0.00  0.00    +0.000 C 
BRANCH  12  13
ATOM     13  C   UNL     1       3.567   2.899  17.373  0.00  0.00    +0.000 C 
BRANCH  13  14
ATOM     14  C   UNL     1       2.719   2.833  18.604  0.00  0.00    +0.000 A 
ATOM     15  N   UNL     1       1.411   2.974  18.616  0.00  0.00    +0.000 NA
ATOM     16  N   UNL     1       0.892   2.900  19.890  0.00  0.00    +0.000 NA
ATOM     17  C   UNL     1       1.813   2.691  20.802  0.00  0.00    +0.000 A 
ATOM     18  N   UNL     1       1.563   2.587  22.115  0.00  0.00    +0.000 N 
ATOM     19  S   UNL     1       3.404   2.573  20.159  0.00  0.00    +0.000 S 
ATOM     20  H   UNL     1       0.600   2.565  22.430  0.00  0.00    +0.000 HD
ATOM     21  H   UNL     1       2.275   2.324  22.782  0.00  0.00    +0.000 HD
ENDBRANCH  13  14
ENDBRANCH  12  13
ENDBRANCH   3  12
TORSDOF 4
ENDMDL
MODEL 9
REMARK VINA RESULT:      -6.2      2.436      3.809
REMARK  Name = 
REMARK  5 active torsions:
REMARK  status: ('A' for Active; 'I' for Inactive)
REMARK    1  A    between atoms: C_1  and  C_2
REMARK    2  A    between atoms: C_5  and  C_6
REMARK    3  A    between atoms: N_8  and  C_9
REMARK    4  A    between atoms: C_9  and  C_10
REMARK    5  A    between atoms: C_10  and  C_11
REMARK                            x       y       z     vdW  Elec       q    Type
REMARK                         _______ _______ _______ _____ _____    ______ ____
ROOT
ATOM      1  C   UNL     1       5.301   3.988  18.663  0.00  0.00    +0.000 C 
ATOM      2  O   UNL     1       5.420   3.400  19.730  0.00  0.00    +0.000 OA
ATOM      3  N   UNL     1       4.448   3.570  17.664  0.00  0.00    +0.000 N 
ATOM      4  H   UNL     1       4.381   4.060  16.779  0.00  0.00    +0.000 HD
ENDROOT
BRANCH   1   9
ATOM      5  C   UNL     1       8.313   8.686  17.553  0.00  0.00    +0.000 C 
ATOM      6  C   UNL     1       7.539   7.435  17.838  0.00  0.00    +0.000 A 
ATOM      7  N   UNL     1       6.464   7.168  17.072  0.00  0.00    +0.000 NA
ATOM      8  C   UNL     1       5.776   6.040  17.371  0.00  0.00    +0.000 A 
ATOM      9  C   UNL     1       6.110   5.191  18.403  0.00  0.00    +0.000 A 
ATOM     10  C   UNL     1       7.237   5.543  19.109  0.00  0.00    +0.000 A 
ATOM     11  N   UNL     1       7.964   6.656  18.853  0.00  0.00    +0.000 NA
ENDBRANCH   1   9
BRANCH   3  12
ATOM     12  C   UNL     1       3.609   2.387  17.816  0.00  0.00    +0.000 C 
BRANCH  12  13
ATOM     13  C   UNL     1       2.173   2.726  18.229  0.00  0.00    +0.000 C 
BRANCH  13  14
ATOM     14  C   UNL     1       2.077   4.120  18.764  0.00  0.00    +0.000 A 
ATOM     15  N   UNL     1       2.072   5.206  18.019  0.00  0.00    +0.000 NA
ATOM     16  N   UNL     1       2.009   6.354  18.777  0.00  0.00    +0.000 NA
ATOM     17  C   UNL     1       1.953   6.111  20.065  0.00  0.00    +0.000 A 
ATOM     18  N   UNL     1       1.892   7.061  21.009  0.00  0.00    +0.000 N 
ATOM     19  S   UNL     1       1.980   4.435  20.451  0.00  0.00    +0.000 S 
ATOM     20  H   UNL     1       1.779   8.027  20.725  0.00  0.00    +0.000 HD
ATOM     21  H   UNL     1       1.747   6.844  21.985  0.00  0.00    +0.000 HD
ENDBRANCH  13  14
ENDBRANCH  12  13
ENDBRANCH   3  12
TORSDOF 4
ENDMDL
