MODEL 1
REMARK VINA RESULT:      -8.1      0.000      0.000
REMARK  Name = 
REMARK  3 active torsions:
REMARK  status: ('A' for Active; 'I' for Inactive)
REMARK    1  A    between atoms: C_7  and  C_8
REMARK    2  A    between atoms: C_10  and  C_11
REMARK    3  A    between atoms: C_14  and  N_15
REMARK                            x       y       z     vdW  Elec       q    Type
REMARK                         _______ _______ _______ _____ _____    ______ ____
ROOT
ATOM      1  C   UNL     1       4.972   5.042  18.565  0.00  0.00    +0.000 A 
ATOM      2  N   UNL     1       4.619   6.289  18.823  0.00  0.00    +0.000 NA
ATOM      3  C   UNL     1       3.250   6.268  18.639  0.00  0.00    +0.000 A 
ATOM      4  N   UNL     1       2.781   5.077  18.230  0.00  0.00    +0.000 NA
ATOM      5  O   UNL     1       3.910   4.271  18.184  0.00  0.00    +0.000 OA
ENDROOT
BRANCH   1  12
ATOM      6  N   UNL     1       5.836   3.704  15.860  0.00  0.00    +0.000 NA
ATOM      7  C   UNL     1       6.800   4.511  16.131  0.00  0.00    +0.000 C 
ATOM      8  N   UNL     1       7.528   5.084  15.141  0.00  0.00    +0.000 N 
ATOM      9  N   UNL     1       7.245   4.778  17.384  0.00  0.00    +0.000 N 
ATOM     10  C   UNL     1       7.671   6.075  17.802  0.00  0.00    +0.000 C 
ATOM     11  C   UNL     1       7.373   5.591  19.223  0.00  0.00    +0.000 C 
ATOM     12  C   UNL     1       6.432   4.543  18.559  0.00  0.00    +0.000 C 
ATOM     13  H   UNL     1       5.704   3.654  14.849  0.00  0.00    +0.000 HD
ATOM     14  H   UNL     1       7.474   4.618  14.244  0.00  0.00    +0.000 HD
ATOM     15  H   UNL     1       8.493   5.255  15.402  0.00  0.00    +0.000 HD
ENDBRANCH   1  12
BRANCH   3  16
ATOM     16  C   UNL     1       2.387   7.427  18.877  0.00  0.00    +0.000 A 
ATOM     17  C   UNL     1       2.065   8.326  17.852  0.00  0.00    +0.000 A 
ATOM     18  C   UNL     1       1.257   9.450  18.107  0.00  0.00    +0.000 A 
ATOM     19  C   UNL     1       0.764   9.736  19.385  0.00  0.00    +0.000 A 
ATOM     20  C   UNL     1       1.083   8.817  20.394  0.00  0.00    +0.000 A 
ATOM     21  C   UNL     1       1.870   7.682  20.149  0.00  0.00    +0.000 A 
BRANCH  19  22
ATOM     22  N   UNL     1      -0.021  10.838  19.671  0.00  0.00    +0.000 N 
ATOM     23  C   UNL     1      -1.377  11.028  19.135  0.00  0.00    +0.000 C 
ATOM     24  C   UNL     1      -1.404  12.180  18.119  0.00  0.00    +0.000 C 
ATOM     25  O   UNL     1      -0.880  13.392  18.687  0.00  0.00    +0.000 OA
ATOM     26  C   UNL     1       0.483  13.194  19.101  0.00  0.00    +0.000 C 
ATOM     27  C   UNL     1       0.605  12.083  20.161  0.00  0.00    +0.000 C 
ENDBRANCH  19  22
ENDBRANCH   3  16
TORSDOF 3
ENDMDL
MODEL 2
REMARK VINA RESULT:      -8.0      0.446      1.071
REMARK  Name = 
REMARK  3 active torsions:
REMARK  status: ('A' for Active; 'I' for Inactive)
REMARK    1  A    between atoms: C_7  and  C_8
REMARK    2  A    between atoms: C_10  and  C_11
REMARK    3  A    between atoms: C_14  and  N_15
REMARK                            x       y       z     vdW  Elec       q    Type
REMARK                         _______ _______ _______ _____ _____    ______ ____
ROOT
ATOM      1  C   UNL     1       4.822   5.125  18.246  0.00  0.00    +0.000 A 
ATOM      2  N   UNL     1       4.508   6.334  18.678  0.00  0.00    +0.000 NA
ATOM      3  C   UNL     1       3.153   6.413  18.423  0.00  0.00    +0.000 A 
ATOM      4  N   UNL     1       2.658   5.325  17.808  0.00  0.00    +0.000 NA
ATOM      5  O   UNL     1       3.751   4.478  17.696  0.00  0.00    +0.000 OA
ENDROOT
BRANCH   1  12
ATOM      6  N   UNL     1       5.704   3.973  15.464  0.00  0.00    +0.000 NA
ATOM      7  C   UNL     1       6.697   4.707  15.826  0.00  0.00    +0.000 C 
ATOM      8  N   UNL     1       7.480   5.322  14.907  0.00  0.00    +0.000 N 
ATOM      9  N   UNL     1       7.115   4.847  17.109  0.00  0.00    +0.000 N 
ATOM     10  C   UNL     1       7.587   6.083  17.644  0.00  0.00    +0.000 C 
ATOM     11  C   UNL     1       7.224   5.499  19.012  0.00  0.00    +0.000 C 
ATOM     12  C   UNL     1       6.256   4.557  18.238  0.00  0.00    +0.000 C 
ATOM     13  H   UNL     1       5.601   4.012  14.448  0.00  0.00    +0.000 HD
ATOM     14  H   UNL     1       7.432   4.934  13.973  0.00  0.00    +0.000 HD
ATOM     15  H   UNL     1       8.444   5.424  15.207  0.00  0.00    +0.000 HD
ENDBRANCH   1  12
BRANCH   3  16
ATOM     16  C   UNL     1       2.329   7.565  18.794  0.00  0.00    +0.000 A 
ATOM     17  C   UNL     1       1.870   7.749  20.105  0.00  0.00    +0.000 A 
ATOM     18  C   UNL     1       1.055   8.848  20.436  0.00  0.00    +0.000 A 
ATOM     19  C   UNL     1       0.646   9.784  19.479  0.00  0.00    +0.000 A 
ATOM     20  C   UNL     1       1.128   9.592  18.177  0.00  0.00    +0.000 A 
ATOM     21  C   UNL     1       1.957   8.513  17.838  0.00  0.00    +0.000 A 
BRANCH  19  22
ATOM     22  N   UNL     1      -0.164  10.866  19.769  0.00  0.00    +0.000 N 
ATOM     23  C   UNL     1      -1.221  11.351  18.868  0.00  0.00    +0.000 C 
ATOM     24  C   UNL     1      -0.845  12.716  18.273  0.00  0.00    +0.000 C 
ATOM     25  O   UNL     1      -0.542  13.672  19.304  0.00  0.00    +0.000 OA
ATOM     26  C   UNL     1       0.566  13.209  20.095  0.00  0.00    +0.000 C 
ATOM     27  C   UNL     1       0.262  11.861  20.774  0.00  0.00    +0.000 C 
ENDBRANCH  19  22
ENDBRANCH   3  16
TORSDOF 3
ENDMDL
MODEL 3
REMARK VINA RESULT:      -8.0      2.369      3.497
REMARK  Name = 
REMARK  3 active torsions:
REMARK  status: ('A' for Active; 'I' for Inactive)
REMARK    1  A    between atoms: C_7  and  C_8
REMARK    2  A    between atoms: C_10  and  C_11
REMARK    3  A    between atoms: C_14  and  N_15
REMARK                            x       y       z     vdW  Elec       q    Type
REMARK                         _______ _______ _______ _____ _____    ______ ____
ROOT
ATOM      1  C   UNL     1       2.995   4.810  17.845  0.00  0.00    +0.000 A 
ATOM      2  N   UNL     1       2.138   5.590  18.481  0.00  0.00    +0.000 NA
ATOM      3  C   UNL     1       2.687   6.848  18.322  0.00  0.00    +0.000 A 
ATOM      4  N   UNL     1       3.860   6.843  17.666  0.00  0.00    +0.000 NA
ATOM      5  O   UNL     1       4.061   5.507  17.349  0.00  0.00    +0.000 OA
ENDROOT
BRANCH   1  12
ATOM      6  N   UNL     1       5.532   3.313  18.927  0.00  0.00    +0.000 NA
ATOM      7  C   UNL     1       4.548   2.710  19.497  0.00  0.00    +0.000 C 
ATOM      8  N   UNL     1       4.692   2.142  20.718  0.00  0.00    +0.000 N 
ATOM      9  N   UNL     1       3.344   2.492  18.911  0.00  0.00    +0.000 N 
ATOM     10  C   UNL     1       2.106   2.575  19.618  0.00  0.00    +0.000 C 
ATOM     11  C   UNL     1       1.468   2.809  18.246  0.00  0.00    +0.000 C 
ATOM     12  C   UNL     1       2.880   3.273  17.782  0.00  0.00    +0.000 C 
ATOM     13  H   UNL     1       6.334   3.333  19.560  0.00  0.00    +0.000 HD
ATOM     14  H   UNL     1       5.648   1.955  20.995  0.00  0.00    +0.000 HD
ATOM     15  H   UNL     1       4.111   1.320  20.848  0.00  0.00    +0.000 HD
ENDBRANCH   1  12
BRANCH   3  16
ATOM     16  C   UNL     1       2.050   8.072  18.810  0.00  0.00    +0.000 A 
ATOM     17  C   UNL     1       1.602   8.191  20.132  0.00  0.00    +0.000 A 
ATOM     18  C   UNL     1       0.965   9.367  20.574  0.00  0.00    +0.000 A 
ATOM     19  C   UNL     1       0.728  10.450  19.719  0.00  0.00    +0.000 A 
ATOM     20  C   UNL     1       1.198  10.319  18.405  0.00  0.00    +0.000 A 
ATOM     21  C   UNL     1       1.851   9.162  17.957  0.00  0.00    +0.000 A 
BRANCH  19  22
ATOM     22  N   UNL     1       0.095  11.612  20.119  0.00  0.00    +0.000 N 
ATOM     23  C   UNL     1      -0.090  11.991  21.528  0.00  0.00    +0.000 C 
ATOM     24  C   UNL     1      -1.571  11.908  21.925  0.00  0.00    +0.000 C 
ATOM     25  O   UNL     1      -2.394  12.696  21.047  0.00  0.00    +0.000 OA
ATOM     26  C   UNL     1      -2.267  12.224  19.695  0.00  0.00    +0.000 C 
ATOM     27  C   UNL     1      -0.815  12.315  19.190  0.00  0.00    +0.000 C 
ENDBRANCH  19  22
ENDBRANCH   3  16
TORSDOF 3
ENDMDL
MODEL 4
REMARK VINA RESULT:      -7.9      2.336      3.347
REMARK  Name = 
REMARK  3 active torsions:
REMARK  status: ('A' for Active; 'I' for Inactive)
REMARK    1  A    between atoms: C_7  and  C_8
REMARK    2  A    between atoms: C_10  and  C_11
REMARK    3  A    between atoms: C_14  and  N_15
REMARK                            x       y       z     vdW  Elec       q    Type
REMARK                         _______ _______ _______ _____ _____    ______ ____
ROOT
ATOM      1  C   UNL     1       2.932   4.676  17.911  0.00  0.00    +0.000 A 
ATOM      2  N   UNL     1       2.099   5.495  18.530  0.00  0.00    +0.000 NA
ATOM      3  C   UNL     1       2.660   6.737  18.305  0.00  0.00    +0.000 A 
ATOM      4  N   UNL     1       3.818   6.688  17.626  0.00  0.00    +0.000 NA
ATOM      5  O   UNL     1       3.996   5.337  17.363  0.00  0.00    +0.000 OA
ENDROOT
BRANCH   1  12
ATOM      6  N   UNL     1       5.475   3.193  18.999  0.00  0.00    +0.000 NA
ATOM      7  C   UNL     1       4.497   2.629  19.616  0.00  0.00    +0.000 C 
ATOM      8  N   UNL     1       4.662   2.111  20.857  0.00  0.00    +0.000 N 
ATOM      9  N   UNL     1       3.277   2.402  19.068  0.00  0.00    +0.000 N 
ATOM     10  C   UNL     1       2.057   2.532  19.798  0.00  0.00    +0.000 C 
ATOM     11  C   UNL     1       1.390   2.715  18.433  0.00  0.00    +0.000 C 
ATOM     12  C   UNL     1       2.797   3.140  17.917  0.00  0.00    +0.000 C 
ATOM     13  H   UNL     1       6.291   3.229  19.612  0.00  0.00    +0.000 HD
ATOM     14  H   UNL     1       5.622   1.924  21.120  0.00  0.00    +0.000 HD
ATOM     15  H   UNL     1       4.075   1.304  21.036  0.00  0.00    +0.000 HD
ENDBRANCH   1  12
BRANCH   3  16
ATOM     16  C   UNL     1       2.048   7.990  18.753  0.00  0.00    +0.000 A 
ATOM     17  C   UNL     1       1.601   8.160  20.070  0.00  0.00    +0.000 A 
ATOM     18  C   UNL     1       0.989   9.362  20.473  0.00  0.00    +0.000 A 
ATOM     19  C   UNL     1       0.777  10.422  19.584  0.00  0.00    +0.000 A 
ATOM     20  C   UNL     1       1.246  10.240  18.276  0.00  0.00    +0.000 A 
ATOM     21  C   UNL     1       1.875   9.055  17.866  0.00  0.00    +0.000 A 
BRANCH  19  22
ATOM     22  N   UNL     1       0.168  11.610  19.945  0.00  0.00    +0.000 N 
ATOM     23  C   UNL     1      -0.879  12.261  19.143  0.00  0.00    +0.000 C 
ATOM     24  C   UNL     1      -0.355  13.562  18.517  0.00  0.00    +0.000 C 
ATOM     25  O   UNL     1       0.179  14.447  19.516  0.00  0.00    +0.000 OA
ATOM     26  C   UNL     1       1.271  13.812  20.205  0.00  0.00    +0.000 C 
ATOM     27  C   UNL     1       0.828  12.516  20.908  0.00  0.00    +0.000 C 
ENDBRANCH  19  22
ENDBRANCH   3  16
TORSDOF 3
ENDMDL
MODEL 5
REMARK VINA RESULT:      -7.9      2.436      3.556
REMARK  Name = 
REMARK  3 active torsions:
REMARK  status: ('A' for Active; 'I' for Inactive)
REMARK    1  A    between atoms: C_7  and  C_8
REMARK    2  A    between atoms: C_10  and  C_11
REMARK    3  A    between atoms: C_14  and  N_15
REMARK                            x       y       z     vdW  Elec       q    Type
REMARK                         _______ _______ _______ _____ _____    ______ ____
ROOT
ATOM      1  C   UNL     1       3.040   4.793  17.866  0.00  0.00    +0.000 A 
ATOM      2  N   UNL     1       2.154   5.573  18.461  0.00  0.00    +0.000 NA
ATOM      3  C   UNL     1       2.711   6.831  18.330  0.00  0.00    +0.000 A 
ATOM      4  N   UNL     1       3.914   6.826  17.733  0.00  0.00    +0.000 NA
ATOM      5  O   UNL     1       4.130   5.490  17.424  0.00  0.00    +0.000 OA
ENDROOT
BRANCH   1  12
ATOM      6  N   UNL     1       5.556   3.293  18.993  0.00  0.00    +0.000 NA
ATOM      7  C   UNL     1       4.561   2.688  19.541  0.00  0.00    +0.000 C 
ATOM      8  N   UNL     1       4.681   2.115  20.763  0.00  0.00    +0.000 N 
ATOM      9  N   UNL     1       3.368   2.472  18.931  0.00  0.00    +0.000 N 
ATOM     10  C   UNL     1       2.118   2.552  19.614  0.00  0.00    +0.000 C 
ATOM     11  C   UNL     1       1.506   2.790  18.231  0.00  0.00    +0.000 C 
ATOM     12  C   UNL     1       2.927   3.257  17.796  0.00  0.00    +0.000 C 
ATOM     13  H   UNL     1       6.345   3.311  19.640  0.00  0.00    +0.000 HD
ATOM     14  H   UNL     1       5.632   1.928  21.058  0.00  0.00    +0.000 HD
ATOM     15  H   UNL     1       4.099   1.293  20.879  0.00  0.00    +0.000 HD
ENDBRANCH   1  12
BRANCH   3  16
ATOM     16  C   UNL     1       2.051   8.055  18.788  0.00  0.00    +0.000 A 
ATOM     17  C   UNL     1       1.592   8.195  20.104  0.00  0.00    +0.000 A 
ATOM     18  C   UNL     1       0.935   9.369  20.517  0.00  0.00    +0.000 A 
ATOM     19  C   UNL     1       0.688  10.430  19.638  0.00  0.00    +0.000 A 
ATOM     20  C   UNL     1       1.169  10.279  18.331  0.00  0.00    +0.000 A 
ATOM     21  C   UNL     1       1.843   9.123  17.912  0.00  0.00    +0.000 A 
BRANCH  19  22
ATOM     22  N   UNL     1       0.034  11.591  20.009  0.00  0.00    +0.000 N 
ATOM     23  C   UNL     1       0.601  12.936  19.822  0.00  0.00    +0.000 C 
ATOM     24  C   UNL     1       0.960  13.567  21.175  0.00  0.00    +0.000 C 
ATOM     25  O   UNL     1      -0.171  13.583  22.063  0.00  0.00    +0.000 OA
ATOM     26  C   UNL     1      -0.627  12.241  22.305  0.00  0.00    +0.000 C 
ATOM     27  C   UNL     1      -1.057  11.539  21.003  0.00  0.00    +0.000 C 
ENDBRANCH  19  22
ENDBRANCH   3  16
TORSDOF 3
ENDMDL
MODEL 6
REMARK VINA RESULT:      -7.9      2.073      8.739
REMARK  Name = 
REMARK  3 active torsions:
REMARK  status: ('A' for Active; 'I' for Inactive)
REMARK    1  A    between atoms: C_7  and  C_8
REMARK    2  A    between atoms: C_10  and  C_11
REMARK    3  A    between atoms: C_14  and  N_15
REMARK                            x       y       z     vdW  Elec       q    Type
REMARK                         _______ _______ _______ _____ _____    ______ ____
ROOT
ATOM      1  C   UNL     1       0.022  10.826  19.144  0.00  0.00    +0.000 A 
ATOM      2  N   UNL     1       0.849  10.119  18.394  0.00  0.00    +0.000 NA
ATOM      3  C   UNL     1       1.294   9.140  19.262  0.00  0.00    +0.000 A 
ATOM      4  N   UNL     1       0.810   9.267  20.509  0.00  0.00    +0.000 NA
ATOM      5  O   UNL     1      -0.028  10.371  20.432  0.00  0.00    +0.000 OA
ENDROOT
BRANCH   1  12
ATOM      6  N   UNL     1      -1.819  10.363  16.645  0.00  0.00    +0.000 NA
ATOM      7  C   UNL     1      -2.557  11.036  17.455  0.00  0.00    +0.000 C 
ATOM      8  N   UNL     1      -3.903  10.886  17.460  0.00  0.00    +0.000 N 
ATOM      9  N   UNL     1      -2.095  12.009  18.281  0.00  0.00    +0.000 N 
ATOM     10  C   UNL     1      -2.587  12.207  19.606  0.00  0.00    +0.000 C 
ATOM     11  C   UNL     1      -1.254  12.909  19.875  0.00  0.00    +0.000 C 
ATOM     12  C   UNL     1      -0.701  12.101  18.664  0.00  0.00    +0.000 C 
ATOM     13  H   UNL     1      -2.398   9.708  16.118  0.00  0.00    +0.000 HD
ATOM     14  H   UNL     1      -4.292  10.474  16.620  0.00  0.00    +0.000 HD
ATOM     15  H   UNL     1      -4.400  11.735  17.709  0.00  0.00    +0.000 HD
ENDBRANCH   1  12
BRANCH   3  16
ATOM     16  C   UNL     1       2.198   8.059  18.862  0.00  0.00    +0.000 A 
ATOM     17  C   UNL     1       2.380   6.921  19.659  0.00  0.00    +0.000 A 
ATOM     18  C   UNL     1       3.275   5.907  19.271  0.00  0.00    +0.000 A 
ATOM     19  C   UNL     1       4.037   5.995  18.100  0.00  0.00    +0.000 A 
ATOM     20  C   UNL     1       3.829   7.133  17.308  0.00  0.00    +0.000 A 
ATOM     21  C   UNL     1       2.925   8.141  17.673  0.00  0.00    +0.000 A 
BRANCH  19  22
ATOM     22  N   UNL     1       4.934   5.023  17.698  0.00  0.00    +0.000 N 
ATOM     23  C   UNL     1       6.012   4.509  18.557  0.00  0.00    +0.000 C 
ATOM     24  C   UNL     1       7.384   4.962  18.038  0.00  0.00    +0.000 C 
ATOM     25  O   UNL     1       7.573   4.587  16.663  0.00  0.00    +0.000 OA
ATOM     26  C   UNL     1       6.563   5.197  15.841  0.00  0.00    +0.000 C 
ATOM     27  C   UNL     1       5.146   4.762  16.259  0.00  0.00    +0.000 C 
ENDBRANCH  19  22
ENDBRANCH   3  16
TORSDOF 3
ENDMDL
MODEL 7
REMARK VINA RESULT:      -7.9      6.257      7.819
REMARK  Name = 
REMARK  3 active torsions:
REMARK  status: ('A' for Active; 'I' for Inactive)
REMARK    1  A    between atoms: C_7  and  C_8
REMARK    2  A    between atoms: C_10  and  C_11
REMARK    3  A    between atoms: C_14  and  N_15
REMARK                            x       y       z     vdW  Elec       q    Type
REMARK                         _______ _______ _______ _____ _____    ______ ____
ROOT
ATOM      1  C   UNL     1       7.137   7.298  17.441  0.00  0.00    +0.000 A 
ATOM      2  N   UNL     1       7.256   8.604  17.275  0.00  0.00    +0.000 NA
ATOM      3  C   UNL     1       8.238   8.944  18.185  0.00  0.00    +0.000 A 
ATOM      4  N   UNL     1       8.669   7.907  18.922  0.00  0.00    +0.000 NA
ATOM      5  O   UNL     1       7.951   6.826  18.432  0.00  0.00    +0.000 OA
ENDROOT
BRANCH   1  12
ATOM      6  N   UNL     1       7.555   4.217  17.869  0.00  0.00    +0.000 NA
ATOM      7  C   UNL     1       6.296   4.391  18.064  0.00  0.00    +0.000 C 
ATOM      8  N   UNL     1       5.606   3.591  18.913  0.00  0.00    +0.000 N 
ATOM      9  N   UNL     1       5.533   5.285  17.386  0.00  0.00    +0.000 N 
ATOM     10  C   UNL     1       4.485   6.037  17.996  0.00  0.00    +0.000 C 
ATOM     11  C   UNL     1       4.675   7.024  16.841  0.00  0.00    +0.000 C 
ATOM     12  C   UNL     1       6.105   6.424  16.699  0.00  0.00    +0.000 C 
ATOM     13  H   UNL     1       7.899   3.477  18.482  0.00  0.00    +0.000 HD
ATOM     14  H   UNL     1       6.049   2.705  19.125  0.00  0.00    +0.000 HD
ATOM     15  H   UNL     1       4.639   3.454  18.638  0.00  0.00    +0.000 HD
ENDBRANCH   1  12
BRANCH   3  16
ATOM     16  C   UNL     1       8.768  10.301  18.327  0.00  0.00    +0.000 A 
ATOM     17  C   UNL     1       8.287  11.364  17.551  0.00  0.00    +0.000 A 
ATOM     18  C   UNL     1       8.830  12.656  17.683  0.00  0.00    +0.000 A 
ATOM     19  C   UNL     1       9.881  12.934  18.566  0.00  0.00    +0.000 A 
ATOM     20  C   UNL     1      10.337  11.863  19.345  0.00  0.00    +0.000 A 
ATOM     21  C   UNL     1       9.792  10.575  19.238  0.00  0.00    +0.000 A 
BRANCH  19  22
ATOM     22  N   UNL     1      10.445  14.188  18.709  0.00  0.00    +0.000 N 
ATOM     23  C   UNL     1       9.664  15.435  18.688  0.00  0.00    +0.000 C 
ATOM     24  C   UNL     1       9.964  16.243  17.417  0.00  0.00    +0.000 C 
ATOM     25  O   UNL     1      11.373  16.492  17.275  0.00  0.00    +0.000 OA
ATOM     26  C   UNL     1      12.089  15.248  17.192  0.00  0.00    +0.000 C 
ATOM     27  C   UNL     1      11.886  14.385  18.450  0.00  0.00    +0.000 C 
ENDBRANCH  19  22
ENDBRANCH   3  16
TORSDOF 3
ENDMDL
MODEL 8
REMARK VINA RESULT:      -7.8      2.335      3.174
REMARK  Name = 
REMARK  3 active torsions:
REMARK  status: ('A' for Active; 'I' for Inactive)
REMARK    1  A    between atoms: C_7  and  C_8
REMARK    2  A    between atoms: C_10  and  C_11
REMARK    3  A    between atoms: C_14  and  N_15
REMARK                            x       y       z     vdW  Elec       q    Type
REMARK                         _______ _______ _______ _____ _____    ______ ____
ROOT
ATOM      1  C   UNL     1       2.899   4.770  17.899  0.00  0.00    +0.000 A 
ATOM      2  N   UNL     1       2.057   5.548  18.558  0.00  0.00    +0.000 NA
ATOM      3  C   UNL     1       2.594   6.808  18.380  0.00  0.00    +0.000 A 
ATOM      4  N   UNL     1       3.748   6.807  17.690  0.00  0.00    +0.000 NA
ATOM      5  O   UNL     1       3.946   5.472  17.370  0.00  0.00    +0.000 OA
ENDROOT
BRANCH   1  12
ATOM      6  N   UNL     1       5.479   3.288  18.897  0.00  0.00    +0.000 NA
ATOM      7  C   UNL     1       4.518   2.682  19.501  0.00  0.00    +0.000 C 
ATOM      8  N   UNL     1       4.706   2.117  20.718  0.00  0.00    +0.000 N 
ATOM      9  N   UNL     1       3.295   2.457  18.957  0.00  0.00    +0.000 N 
ATOM     10  C   UNL     1       2.082   2.535  19.706  0.00  0.00    +0.000 C 
ATOM     11  C   UNL     1       1.396   2.762  18.357  0.00  0.00    +0.000 C 
ATOM     12  C   UNL     1       2.789   3.233  17.844  0.00  0.00    +0.000 C 
ATOM     13  H   UNL     1       6.301   3.314  19.502  0.00  0.00    +0.000 HD
ATOM     14  H   UNL     1       5.672   1.936  20.963  0.00  0.00    +0.000 HD
ATOM     15  H   UNL     1       4.134   1.293  20.869  0.00  0.00    +0.000 HD
ENDBRANCH   1  12
BRANCH   3  16
ATOM     16  C   UNL     1       1.966   8.031  18.883  0.00  0.00    +0.000 A 
ATOM     17  C   UNL     1       1.729   9.132  18.050  0.00  0.00    +0.000 A 
ATOM     18  C   UNL     1       1.149  10.309  18.560  0.00  0.00    +0.000 A 
ATOM     19  C   UNL     1       0.809  10.445  19.911  0.00  0.00    +0.000 A 
ATOM     20  C   UNL     1       1.038   9.328  20.725  0.00  0.00    +0.000 A 
ATOM     21  C   UNL     1       1.596   8.142  20.226  0.00  0.00    +0.000 A 
BRANCH  19  22
ATOM     22  N   UNL     1       0.251  11.592  20.445  0.00  0.00    +0.000 N 
ATOM     23  C   UNL     1      -1.180  11.727  20.757  0.00  0.00    +0.000 C 
ATOM     24  C   UNL     1      -1.856  12.717  19.797  0.00  0.00    +0.000 C 
ATOM     25  O   UNL     1      -1.186  13.990  19.800  0.00  0.00    +0.000 OA
ATOM     26  C   UNL     1       0.181  13.829  19.386  0.00  0.00    +0.000 C 
ATOM     27  C   UNL     1       0.957  12.884  20.322  0.00  0.00    +0.000 C 
ENDBRANCH  19  22
ENDBRANCH   3  16
TORSDOF 3
ENDMDL
MODEL 9
REMARK VINA RESULT:      -7.8      0.860      1.624
REMARK  Name = 
REMARK  3 active torsions:
REMARK  status: ('A' for Active; 'I' for Inactive)
REMARK    1  A    between atoms: C_7  and  C_8
REMARK    2  A    between atoms: C_10  and  C_11
REMARK    3  A    between atoms: C_14  and  N_15
REMARK                            x       y       z     vdW  Elec       q    Type
REMARK                         _______ _______ _______ _____ _____    ______ ____
ROOT
ATOM      1  C   UNL     1       4.663   5.156  18.301  0.00  0.00    +0.000 A 
ATOM      2  N   UNL     1       4.438   6.410  18.652  0.00  0.00    +0.000 NA
ATOM      3  C   UNL     1       3.086   6.561  18.413  0.00  0.00    +0.000 A 
ATOM      4  N   UNL     1       2.509   5.469  17.883  0.00  0.00    +0.000 NA
ATOM      5  O   UNL     1       3.541   4.545  17.813  0.00  0.00    +0.000 OA
ENDROOT
BRANCH   1  12
ATOM      6  N   UNL     1       5.534   4.013  15.511  0.00  0.00    +0.000 NA
ATOM      7  C   UNL     1       6.564   4.670  15.913  0.00  0.00    +0.000 C 
ATOM      8  N   UNL     1       7.408   5.254  15.028  0.00  0.00    +0.000 N 
ATOM      9  N   UNL     1       6.959   4.753  17.208  0.00  0.00    +0.000 N 
ATOM     10  C   UNL     1       7.499   5.942  17.785  0.00  0.00    +0.000 C 
ATOM     11  C   UNL     1       7.066   5.352  19.129  0.00  0.00    +0.000 C 
ATOM     12  C   UNL     1       6.056   4.494  18.311  0.00  0.00    +0.000 C 
ATOM     13  H   UNL     1       5.458   4.083  14.495  0.00  0.00    +0.000 HD
ATOM     14  H   UNL     1       7.357   4.892  14.084  0.00  0.00    +0.000 HD
ATOM     15  H   UNL     1       8.368   5.285  15.352  0.00  0.00    +0.000 HD
ENDBRANCH   1  12
BRANCH   3  16
ATOM     16  C   UNL     1       2.347   7.788  18.715  0.00  0.00    +0.000 A 
ATOM     17  C   UNL     1       1.763   8.005  19.970  0.00  0.00    +0.000 A 
ATOM     18  C   UNL     1       1.031   9.179  20.232  0.00  0.00    +0.000 A 
ATOM     19  C   UNL     1       0.832  10.163  19.256  0.00  0.00    +0.000 A 
ATOM     20  C   UNL     1       1.437   9.937  18.013  0.00  0.00    +0.000 A 
ATOM     21  C   UNL     1       2.185   8.781  17.745  0.00  0.00    +0.000 A 
BRANCH  19  22
ATOM     22  N   UNL     1       0.109  11.320  19.477  0.00  0.00    +0.000 N 
ATOM     23  C   UNL     1      -0.062  11.928  20.806  0.00  0.00    +0.000 C 
ATOM     24  C   UNL     1      -1.515  11.792  21.284  0.00  0.00    +0.000 C 
ATOM     25  O   UNL     1      -2.436  12.339  20.324  0.00  0.00    +0.000 OA
ATOM     26  C   UNL     1      -2.312  11.646  19.071  0.00  0.00    +0.000 C 
ATOM     27  C   UNL     1      -0.892  11.767  18.487  0.00  0.00    +0.000 C 
ENDBRANCH  19  22
ENDBRANCH   3  16
TORSDOF 3
ENDMDL
