MODEL 1
REMARK VINA RESULT:      -6.2      0.000      0.000
REMARK  Name = 
REMARK  20 active torsions:
REMARK  status: ('A' for Active; 'I' for Inactive)
REMARK    1  A    between atoms: C_1  and  C_2
REMARK    2  A    between atoms: C_2  and  C_3
REMARK    3  A    between atoms: C_3  and  C_4
REMARK    4  A    between atoms: C_4  and  C_5
REMARK    5  A    between atoms: C_5  and  C_6
REMARK    6  A    between atoms: C_6  and  C_7
REMARK    7  A    between atoms: C_7  and  C_8
REMARK    8  A    between atoms: C_8  and  C_9
REMARK    9  A    between atoms: C_9  and  C_10
REMARK   10  A    between atoms: C_10  and  C_11
REMARK   11  A    between atoms: C_11  and  C_12
REMARK   12  A    between atoms: C_12  and  C_13
REMARK   13  A    between atoms: C_13  and  C_14
REMARK   14  A    between atoms: C_14  and  C_15
REMARK   15  A    between atoms: C_15  and  C_16
REMARK   16  A    between atoms: C_16  and  O_17
REMARK   17  A    between atoms: O_17  and  C_18
REMARK   18  A    between atoms: C_21  and  C_22
REMARK   19  A    between atoms: C_23  and  C_24
REMARK   20  A    between atoms: C_24  and  O_26
REMARK                            x       y       z     vdW  Elec       q    Type
REMARK                         _______ _______ _______ _____ _____    ______ ____
ROOT
ATOM      1  C   UNL     1       2.132   3.873  21.404  0.00  0.00    +0.000 C 
ENDROOT
BRANCH   1   2
ATOM      2  C   UNL     1       1.088   2.950  20.786  0.00  0.00    +0.000 C 
BRANCH   2   3
ATOM      3  O   UNL     1       1.754   1.952  20.007  0.00  0.00    +0.000 OA
BRANCH   3   4
ATOM      4  C   UNL     1       2.408   2.440  18.907  0.00  0.00    +0.000 A 
ATOM      5  C   UNL     1       3.790   2.262  18.872  0.00  0.00    +0.000 A 
ATOM      6  C   UNL     1       4.557   2.872  17.869  0.00  0.00    +0.000 A 
ATOM      7  C   UNL     1       3.946   3.531  16.792  0.00  0.00    +0.000 A 
ATOM      8  C   UNL     1       2.550   3.686  16.834  0.00  0.00    +0.000 A 
ATOM      9  C   UNL     1       1.790   3.137  17.872  0.00  0.00    +0.000 A 
BRANCH   7  10
ATOM     10  C   UNL     1       4.734   4.039  15.642  0.00  0.00    +0.000 C 
ATOM     11  C   UNL     1       6.029   3.733  15.420  0.00  0.00    +0.000 C 
BRANCH  11  12
ATOM     12  C   UNL     1       6.746   4.287  14.245  0.00  0.00    +0.000 C 
ATOM     13  O   UNL     1       6.529   3.960  13.108  0.00  0.00    +0.000 OA
BRANCH  12  14
ATOM     14  O   UNL     1       7.680   5.209  14.578  0.00  0.00    +0.000 OA
ATOM     15  H   UNL     1       8.265   5.546  13.878  0.00  0.00    +0.000 HD
ENDBRANCH  12  14
ENDBRANCH  11  12
ENDBRANCH   7  10
ENDBRANCH   3   4
ENDBRANCH   2   3
ENDBRANCH   1   2
BRANCH   1  16
ATOM     16  C   UNL     1       1.920   5.314  20.960  0.00  0.00    +0.000 C 
BRANCH  16  17
ATOM     17  C   UNL     1       3.002   5.745  19.979  0.00  0.00    +0.000 C 
BRANCH  17  18
ATOM     18  C   UNL     1       2.402   6.569  18.859  0.00  0.00    +0.000 C 
BRANCH  18  19
ATOM     19  C   UNL     1       3.504   7.128  17.978  0.00  0.00    +0.000 C 
BRANCH  19  20
ATOM     20  C   UNL     1       4.818   6.442  18.298  0.00  0.00    +0.000 C 
BRANCH  20  21
ATOM     21  C   UNL     1       5.922   7.010  17.427  0.00  0.00    +0.000 C 
BRANCH  21  22
ATOM     22  C   UNL     1       7.261   6.438  17.852  0.00  0.00    +0.000 C 
BRANCH  22  23
ATOM     23  C   UNL     1       8.190   7.559  18.276  0.00  0.00    +0.000 C 
BRANCH  23  24
ATOM     24  C   UNL     1       7.691   8.880  17.723  0.00  0.00    +0.000 C 
BRANCH  24  25
ATOM     25  C   UNL     1       8.754   9.948  17.901  0.00  0.00    +0.000 C 
BRANCH  25  26
ATOM     26  C   UNL     1       9.108  10.085  19.372  0.00  0.00    +0.000 C 
BRANCH  26  27
ATOM     27  C   UNL     1       9.942  11.335  19.591  0.00  0.00    +0.000 C 
BRANCH  27  29
ATOM     28  C   UNL     1       9.865  12.970  17.716  0.00  0.00    +0.000 C 
ATOM     29  C   UNL     1       9.227  12.553  19.024  0.00  0.00    +0.000 C 
ENDBRANCH  27  29
ENDBRANCH  26  27
ENDBRANCH  25  26
ENDBRANCH  24  25
ENDBRANCH  23  24
ENDBRANCH  22  23
ENDBRANCH  21  22
ENDBRANCH  20  21
ENDBRANCH  19  20
ENDBRANCH  18  19
ENDBRANCH  17  18
ENDBRANCH  16  17
ENDBRANCH   1  16
TORSDOF 19
ENDMDL
MODEL 2
REMARK VINA RESULT:      -5.7      7.059     11.066
REMARK  Name = 
REMARK  20 active torsions:
REMARK  status: ('A' for Active; 'I' for Inactive)
REMARK    1  A    between atoms: C_1  and  C_2
REMARK    2  A    between atoms: C_2  and  C_3
REMARK    3  A    between atoms: C_3  and  C_4
REMARK    4  A    between atoms: C_4  and  C_5
REMARK    5  A    between atoms: C_5  and  C_6
REMARK    6  A    between atoms: C_6  and  C_7
REMARK    7  A    between atoms: C_7  and  C_8
REMARK    8  A    between atoms: C_8  and  C_9
REMARK    9  A    between atoms: C_9  and  C_10
REMARK   10  A    between atoms: C_10  and  C_11
REMARK   11  A    between atoms: C_11  and  C_12
REMARK   12  A    between atoms: C_12  and  C_13
REMARK   13  A    between atoms: C_13  and  C_14
REMARK   14  A    between atoms: C_14  and  C_15
REMARK   15  A    between atoms: C_15  and  C_16
REMARK   16  A    between atoms: C_16  and  O_17
REMARK   17  A    between atoms: O_17  and  C_18
REMARK   18  A    between atoms: C_21  and  C_22
REMARK   19  A    between atoms: C_23  and  C_24
REMARK   20  A    between atoms: C_24  and  O_26
REMARK                            x       y       z     vdW  Elec       q    Type
REMARK                         _______ _______ _______ _____ _____    ______ ____
ROOT
ATOM      1  C   UNL     1       0.245   8.858  21.202  0.00  0.00    +0.000 C 
ENDROOT
BRANCH   1   2
ATOM      2  C   UNL     1       0.621   9.777  22.359  0.00  0.00    +0.000 C 
BRANCH   2   3
ATOM      3  O   UNL     1       0.507  11.136  21.928  0.00  0.00    +0.000 OA
BRANCH   3   4
ATOM      4  C   UNL     1      -0.756  11.654  22.025  0.00  0.00    +0.000 A 
ATOM      5  C   UNL     1      -1.376  11.561  23.270  0.00  0.00    +0.000 A 
ATOM      6  C   UNL     1      -2.725  11.913  23.417  0.00  0.00    +0.000 A 
ATOM      7  C   UNL     1      -3.432  12.520  22.369  0.00  0.00    +0.000 A 
ATOM      8  C   UNL     1      -2.787  12.624  21.125  0.00  0.00    +0.000 A 
ATOM      9  C   UNL     1      -1.462  12.206  20.959  0.00  0.00    +0.000 A 
BRANCH   7  10
ATOM     10  C   UNL     1      -4.806  13.047  22.559  0.00  0.00    +0.000 C 
ATOM     11  C   UNL     1      -5.518  12.906  23.696  0.00  0.00    +0.000 C 
BRANCH  11  12
ATOM     12  C   UNL     1      -6.890  13.461  23.803  0.00  0.00    +0.000 C 
ATOM     13  O   UNL     1      -7.829  12.853  24.247  0.00  0.00    +0.000 OA
BRANCH  12  14
ATOM     14  O   UNL     1      -6.987  14.732  23.348  0.00  0.00    +0.000 OA
ATOM     15  H   UNL     1      -7.873  15.094  23.178  0.00  0.00    +0.000 HD
ENDBRANCH  12  14
ENDBRANCH  11  12
ENDBRANCH   7  10
ENDBRANCH   3   4
ENDBRANCH   2   3
ENDBRANCH   1   2
BRANCH   1  16
ATOM     16  C   UNL     1       1.413   8.682  20.240  0.00  0.00    +0.000 C 
BRANCH  16  17
ATOM     17  C   UNL     1       1.151   9.411  18.929  0.00  0.00    +0.000 C 
BRANCH  17  18
ATOM     18  C   UNL     1       1.926   8.765  17.801  0.00  0.00    +0.000 C 
BRANCH  18  19
ATOM     19  C   UNL     1       2.555   7.469  18.278  0.00  0.00    +0.000 C 
BRANCH  19  20
ATOM     20  C   UNL     1       3.863   7.231  17.550  0.00  0.00    +0.000 C 
BRANCH  20  21
ATOM     21  C   UNL     1       4.461   5.906  17.982  0.00  0.00    +0.000 C 
BRANCH  21  22
ATOM     22  C   UNL     1       3.835   4.774  17.190  0.00  0.00    +0.000 C 
BRANCH  22  23
ATOM     23  C   UNL     1       3.890   3.489  17.992  0.00  0.00    +0.000 C 
BRANCH  23  24
ATOM     24  C   UNL     1       2.793   2.547  17.535  0.00  0.00    +0.000 C 
BRANCH  24  25
ATOM     25  C   UNL     1       2.190   1.838  18.733  0.00  0.00    +0.000 C 
BRANCH  25  26
ATOM     26  C   UNL     1       0.841   2.451  19.071  0.00  0.00    +0.000 C 
BRANCH  26  27
ATOM     27  C   UNL     1       0.895   3.101  20.443  0.00  0.00    +0.000 C 
BRANCH  27  29
ATOM     28  C   UNL     1       2.410   5.020  20.914  0.00  0.00    +0.000 C 
ATOM     29  C   UNL     1       1.087   4.605  20.307  0.00  0.00    +0.000 C 
ENDBRANCH  27  29
ENDBRANCH  26  27
ENDBRANCH  25  26
ENDBRANCH  24  25
ENDBRANCH  23  24
ENDBRANCH  22  23
ENDBRANCH  21  22
ENDBRANCH  20  21
ENDBRANCH  19  20
ENDBRANCH  18  19
ENDBRANCH  17  18
ENDBRANCH  16  17
ENDBRANCH   1  16
TORSDOF 19
ENDMDL
MODEL 3
REMARK VINA RESULT:      -5.6      6.032      9.566
REMARK  Name = 
REMARK  20 active torsions:
REMARK  status: ('A' for Active; 'I' for Inactive)
REMARK    1  A    between atoms: C_1  and  C_2
REMARK    2  A    between atoms: C_2  and  C_3
REMARK    3  A    between atoms: C_3  and  C_4
REMARK    4  A    between atoms: C_4  and  C_5
REMARK    5  A    between atoms: C_5  and  C_6
REMARK    6  A    between atoms: C_6  and  C_7
REMARK    7  A    between atoms: C_7  and  C_8
REMARK    8  A    between atoms: C_8  and  C_9
REMARK    9  A    between atoms: C_9  and  C_10
REMARK   10  A    between atoms: C_10  and  C_11
REMARK   11  A    between atoms: C_11  and  C_12
REMARK   12  A    between atoms: C_12  and  C_13
REMARK   13  A    between atoms: C_13  and  C_14
REMARK   14  A    between atoms: C_14  and  C_15
REMARK   15  A    between atoms: C_15  and  C_16
REMARK   16  A    between atoms: C_16  and  O_17
REMARK   17  A    between atoms: O_17  and  C_18
REMARK   18  A    between atoms: C_21  and  C_22
REMARK   19  A    between atoms: C_23  and  C_24
REMARK   20  A    between atoms: C_24  and  O_26
REMARK                            x       y       z     vdW  Elec       q    Type
REMARK                         _______ _______ _______ _____ _____    ______ ____
ROOT
ATOM      1  C   UNL     1       2.096   7.090  20.004  0.00  0.00    +0.000 C 
ENDROOT
BRANCH   1   2
ATOM      2  C   UNL     1       1.686   8.304  20.831  0.00  0.00    +0.000 C 
BRANCH   2   3
ATOM      3  O   UNL     1       0.602   8.967  20.175  0.00  0.00    +0.000 OA
BRANCH   3   4
ATOM      4  C   UNL     1      -0.142   9.775  20.992  0.00  0.00    +0.000 A 
ATOM      5  C   UNL     1      -0.713  10.903  20.405  0.00  0.00    +0.000 A 
ATOM      6  C   UNL     1      -1.349  11.869  21.197  0.00  0.00    +0.000 A 
ATOM      7  C   UNL     1      -1.574  11.649  22.563  0.00  0.00    +0.000 A 
ATOM      8  C   UNL     1      -1.007  10.498  23.137  0.00  0.00    +0.000 A 
ATOM      9  C   UNL     1      -0.310   9.568  22.359  0.00  0.00    +0.000 A 
BRANCH   7  10
ATOM     10  C   UNL     1      -2.386  12.584  23.379  0.00  0.00    +0.000 C 
ATOM     11  C   UNL     1      -3.624  13.001  23.042  0.00  0.00    +0.000 C 
BRANCH  11  12
ATOM     12  C   UNL     1      -4.370  13.942  23.914  0.00  0.00    +0.000 C 
ATOM     13  O   UNL     1      -5.289  14.621  23.540  0.00  0.00    +0.000 OA
BRANCH  12  14
ATOM     14  O   UNL     1      -3.910  13.965  25.187  0.00  0.00    +0.000 OA
ATOM     15  H   UNL     1      -3.468  14.772  25.503  0.00  0.00    +0.000 HD
ENDBRANCH  12  14
ENDBRANCH  11  12
ENDBRANCH   7  10
ENDBRANCH   3   4
ENDBRANCH   2   3
ENDBRANCH   1   2
BRANCH   1  16
ATOM     16  C   UNL     1       1.459   5.818  20.547  0.00  0.00    +0.000 C 
BRANCH  16  17
ATOM     17  C   UNL     1       2.509   4.906  21.168  0.00  0.00    +0.000 C 
BRANCH  17  18
ATOM     18  C   UNL     1       1.933   3.528  21.415  0.00  0.00    +0.000 C 
BRANCH  18  19
ATOM     19  C   UNL     1       2.469   2.549  20.387  0.00  0.00    +0.000 C 
BRANCH  19  20
ATOM     20  C   UNL     1       1.320   1.924  19.621  0.00  0.00    +0.000 C 
BRANCH  20  21
ATOM     21  C   UNL     1       1.012   2.751  18.386  0.00  0.00    +0.000 C 
BRANCH  21  22
ATOM     22  C   UNL     1       2.298   3.085  17.655  0.00  0.00    +0.000 C 
BRANCH  22  23
ATOM     23  C   UNL     1       2.373   4.576  17.397  0.00  0.00    +0.000 C 
BRANCH  23  24
ATOM     24  C   UNL     1       3.822   5.028  17.390  0.00  0.00    +0.000 C 
BRANCH  24  25
ATOM     25  C   UNL     1       4.725   3.870  17.772  0.00  0.00    +0.000 C 
BRANCH  25  26
ATOM     26  C   UNL     1       5.536   4.232  19.003  0.00  0.00    +0.000 C 
BRANCH  26  27
ATOM     27  C   UNL     1       5.927   5.699  18.956  0.00  0.00    +0.000 C 
BRANCH  27  29
ATOM     28  C   UNL     1       7.576   7.115  17.743  0.00  0.00    +0.000 C 
ATOM     29  C   UNL     1       7.384   5.844  18.542  0.00  0.00    +0.000 C 
ENDBRANCH  27  29
ENDBRANCH  26  27
ENDBRANCH  25  26
ENDBRANCH  24  25
ENDBRANCH  23  24
ENDBRANCH  22  23
ENDBRANCH  21  22
ENDBRANCH  20  21
ENDBRANCH  19  20
ENDBRANCH  18  19
ENDBRANCH  17  18
ENDBRANCH  16  17
ENDBRANCH   1  16
TORSDOF 19
ENDMDL
MODEL 4
REMARK VINA RESULT:      -5.6      3.683      5.610
REMARK  Name = 
REMARK  20 active torsions:
REMARK  status: ('A' for Active; 'I' for Inactive)
REMARK    1  A    between atoms: C_1  and  C_2
REMARK    2  A    between atoms: C_2  and  C_3
REMARK    3  A    between atoms: C_3  and  C_4
REMARK    4  A    between atoms: C_4  and  C_5
REMARK    5  A    between atoms: C_5  and  C_6
REMARK    6  A    between atoms: C_6  and  C_7
REMARK    7  A    between atoms: C_7  and  C_8
REMARK    8  A    between atoms: C_8  and  C_9
REMARK    9  A    between atoms: C_9  and  C_10
REMARK   10  A    between atoms: C_10  and  C_11
REMARK   11  A    between atoms: C_11  and  C_12
REMARK   12  A    between atoms: C_12  and  C_13
REMARK   13  A    between atoms: C_13  and  C_14
REMARK   14  A    between atoms: C_14  and  C_15
REMARK   15  A    between atoms: C_15  and  C_16
REMARK   16  A    between atoms: C_16  and  O_17
REMARK   17  A    between atoms: O_17  and  C_18
REMARK   18  A    between atoms: C_21  and  C_22
REMARK   19  A    between atoms: C_23  and  C_24
REMARK   20  A    between atoms: C_24  and  O_26
REMARK                            x       y       z     vdW  Elec       q    Type
REMARK                         _______ _______ _______ _____ _____    ______ ____
ROOT
ATOM      1  C   UNL     1       1.018   3.576  20.298  0.00  0.00    +0.000 C 
ENDROOT
BRANCH   1   2
ATOM      2  C   UNL     1       1.837   2.331  19.970  0.00  0.00    +0.000 C 
BRANCH   2   3
ATOM      3  O   UNL     1       3.216   2.600  20.235  0.00  0.00    +0.000 OA
BRANCH   3   4
ATOM      4  C   UNL     1       3.945   2.953  19.131  0.00  0.00    +0.000 A 
ATOM      5  C   UNL     1       5.040   3.788  19.346  0.00  0.00    +0.000 A 
ATOM      6  C   UNL     1       5.740   4.331  18.259  0.00  0.00    +0.000 A 
ATOM      7  C   UNL     1       5.466   3.922  16.946  0.00  0.00    +0.000 A 
ATOM      8  C   UNL     1       4.369   3.067  16.748  0.00  0.00    +0.000 A 
ATOM      9  C   UNL     1       3.626   2.579  17.829  0.00  0.00    +0.000 A 
BRANCH   7  10
ATOM     10  C   UNL     1       6.303   4.363  15.803  0.00  0.00    +0.000 C 
ATOM     11  C   UNL     1       6.024   4.087  14.512  0.00  0.00    +0.000 C 
BRANCH  11  12
ATOM     12  C   UNL     1       6.917   4.563  13.427  0.00  0.00    +0.000 C 
ATOM     13  O   UNL     1       6.851   4.186  12.286  0.00  0.00    +0.000 OA
BRANCH  12  14
ATOM     14  O   UNL     1       7.826   5.475  13.847  0.00  0.00    +0.000 OA
ATOM     15  H   UNL     1       7.520   6.379  14.032  0.00  0.00    +0.000 HD
ENDBRANCH  12  14
ENDBRANCH  11  12
ENDBRANCH   7  10
ENDBRANCH   3   4
ENDBRANCH   2   3
ENDBRANCH   1   2
BRANCH   1  16
ATOM     16  C   UNL     1       1.835   4.568  21.115  0.00  0.00    +0.000 C 
BRANCH  16  17
ATOM     17  C   UNL     1       1.554   5.998  20.671  0.00  0.00    +0.000 C 
BRANCH  17  18
ATOM     18  C   UNL     1       2.254   6.292  19.361  0.00  0.00    +0.000 C 
BRANCH  18  19
ATOM     19  C   UNL     1       2.568   7.773  19.261  0.00  0.00    +0.000 C 
BRANCH  19  20
ATOM     20  C   UNL     1       2.439   8.232  17.821  0.00  0.00    +0.000 C 
BRANCH  20  21
ATOM     21  C   UNL     1       1.822   9.617  17.774  0.00  0.00    +0.000 C 
BRANCH  21  22
ATOM     22  C   UNL     1       0.786   9.758  18.873  0.00  0.00    +0.000 C 
BRANCH  22  23
ATOM     23  C   UNL     1       0.361  11.208  18.999  0.00  0.00    +0.000 C 
BRANCH  23  24
ATOM     24  C   UNL     1      -0.627  11.360  20.139  0.00  0.00    +0.000 C 
BRANCH  24  25
ATOM     25  C   UNL     1       0.093  11.834  21.387  0.00  0.00    +0.000 C 
BRANCH  25  26
ATOM     26  C   UNL     1      -0.903  12.030  22.517  0.00  0.00    +0.000 C 
BRANCH  26  27
ATOM     27  C   UNL     1      -1.265  10.687  23.128  0.00  0.00    +0.000 C 
BRANCH  27  29
ATOM     28  C   UNL     1      -0.393   8.549  22.199  0.00  0.00    +0.000 C 
ATOM     29  C   UNL     1      -0.072   9.743  23.072  0.00  0.00    +0.000 C 
ENDBRANCH  27  29
ENDBRANCH  26  27
ENDBRANCH  25  26
ENDBRANCH  24  25
ENDBRANCH  23  24
ENDBRANCH  22  23
ENDBRANCH  21  22
ENDBRANCH  20  21
ENDBRANCH  19  20
ENDBRANCH  18  19
ENDBRANCH  17  18
ENDBRANCH  16  17
ENDBRANCH   1  16
TORSDOF 19
ENDMDL
MODEL 5
REMARK VINA RESULT:      -5.5      5.369      8.396
REMARK  Name = 
REMARK  20 active torsions:
REMARK  status: ('A' for Active; 'I' for Inactive)
REMARK    1  A    between atoms: C_1  and  C_2
REMARK    2  A    between atoms: C_2  and  C_3
REMARK    3  A    between atoms: C_3  and  C_4
REMARK    4  A    between atoms: C_4  and  C_5
REMARK    5  A    between atoms: C_5  and  C_6
REMARK    6  A    between atoms: C_6  and  C_7
REMARK    7  A    between atoms: C_7  and  C_8
REMARK    8  A    between atoms: C_8  and  C_9
REMARK    9  A    between atoms: C_9  and  C_10
REMARK   10  A    between atoms: C_10  and  C_11
REMARK   11  A    between atoms: C_11  and  C_12
REMARK   12  A    between atoms: C_12  and  C_13
REMARK   13  A    between atoms: C_13  and  C_14
REMARK   14  A    between atoms: C_14  and  C_15
REMARK   15  A    between atoms: C_15  and  C_16
REMARK   16  A    between atoms: C_16  and  O_17
REMARK   17  A    between atoms: O_17  and  C_18
REMARK   18  A    between atoms: C_21  and  C_22
REMARK   19  A    between atoms: C_23  and  C_24
REMARK   20  A    between atoms: C_24  and  O_26
REMARK                            x       y       z     vdW  Elec       q    Type
REMARK                         _______ _______ _______ _____ _____    ______ ____
ROOT
ATOM      1  C   UNL     1       2.302   6.769  18.298  0.00  0.00    +0.000 C 
ENDROOT
BRANCH   1   2
ATOM      2  C   UNL     1       2.880   8.090  17.800  0.00  0.00    +0.000 C 
BRANCH   2   3
ATOM      3  O   UNL     1       1.804   8.952  17.418  0.00  0.00    +0.000 OA
BRANCH   3   4
ATOM      4  C   UNL     1       1.487   9.906  18.347  0.00  0.00    +0.000 A 
ATOM      5  C   UNL     1       1.975  11.190  18.115  0.00  0.00    +0.000 A 
ATOM      6  C   UNL     1       1.842  12.186  19.093  0.00  0.00    +0.000 A 
ATOM      7  C   UNL     1       1.076  11.967  20.247  0.00  0.00    +0.000 A 
ATOM      8  C   UNL     1       0.576  10.671  20.458  0.00  0.00    +0.000 A 
ATOM      9  C   UNL     1       0.769   9.657  19.514  0.00  0.00    +0.000 A 
BRANCH   7  10
ATOM     10  C   UNL     1       0.790  13.059  21.210  0.00  0.00    +0.000 C 
ATOM     11  C   UNL     1       0.024  14.133  20.928  0.00  0.00    +0.000 C 
BRANCH  11  12
ATOM     12  C   UNL     1      -0.210  15.184  21.949  0.00  0.00    +0.000 C 
ATOM     13  O   UNL     1       0.063  15.063  23.115  0.00  0.00    +0.000 OA
BRANCH  12  14
ATOM     14  O   UNL     1      -0.767  16.308  21.439  0.00  0.00    +0.000 OA
ATOM     15  H   UNL     1      -0.854  16.381  20.473  0.00  0.00    +0.000 HD
ENDBRANCH  12  14
ENDBRANCH  11  12
ENDBRANCH   7  10
ENDBRANCH   3   4
ENDBRANCH   2   3
ENDBRANCH   1   2
BRANCH   1  16
ATOM     16  C   UNL     1       2.879   6.397  19.657  0.00  0.00    +0.000 C 
BRANCH  16  17
ATOM     17  C   UNL     1       1.790   5.878  20.586  0.00  0.00    +0.000 C 
BRANCH  17  18
ATOM     18  C   UNL     1       1.943   4.387  20.801  0.00  0.00    +0.000 C 
BRANCH  18  19
ATOM     19  C   UNL     1       0.829   3.643  20.090  0.00  0.00    +0.000 C 
BRANCH  19  20
ATOM     20  C   UNL     1       1.313   3.159  18.737  0.00  0.00    +0.000 C 
BRANCH  20  21
ATOM     21  C   UNL     1       2.167   1.917  18.908  0.00  0.00    +0.000 C 
BRANCH  21  22
ATOM     22  C   UNL     1       3.375   1.992  17.994  0.00  0.00    +0.000 C 
BRANCH  22  23
ATOM     23  C   UNL     1       4.109   3.300  18.213  0.00  0.00    +0.000 C 
BRANCH  23  24
ATOM     24  C   UNL     1       4.409   3.955  16.878  0.00  0.00    +0.000 C 
BRANCH  24  25
ATOM     25  C   UNL     1       5.776   4.610  16.920  0.00  0.00    +0.000 C 
BRANCH  25  26
ATOM     26  C   UNL     1       6.129   4.979  18.351  0.00  0.00    +0.000 C 
BRANCH  26  27
ATOM     27  C   UNL     1       7.386   5.831  18.374  0.00  0.00    +0.000 C 
BRANCH  27  29
ATOM     28  C   UNL     1       7.989   8.192  17.866  0.00  0.00    +0.000 C 
ATOM     29  C   UNL     1       7.278   6.957  17.356  0.00  0.00    +0.000 C 
ENDBRANCH  27  29
ENDBRANCH  26  27
ENDBRANCH  25  26
ENDBRANCH  24  25
ENDBRANCH  23  24
ENDBRANCH  22  23
ENDBRANCH  21  22
ENDBRANCH  20  21
ENDBRANCH  19  20
ENDBRANCH  18  19
ENDBRANCH  17  18
ENDBRANCH  16  17
ENDBRANCH   1  16
TORSDOF 19
ENDMDL
MODEL 6
REMARK VINA RESULT:      -5.5      3.793      7.248
REMARK  Name = 
REMARK  20 active torsions:
REMARK  status: ('A' for Active; 'I' for Inactive)
REMARK    1  A    between atoms: C_1  and  C_2
REMARK    2  A    between atoms: C_2  and  C_3
REMARK    3  A    between atoms: C_3  and  C_4
REMARK    4  A    between atoms: C_4  and  C_5
REMARK    5  A    between atoms: C_5  and  C_6
REMARK    6  A    between atoms: C_6  and  C_7
REMARK    7  A    between atoms: C_7  and  C_8
REMARK    8  A    between atoms: C_8  and  C_9
REMARK    9  A    between atoms: C_9  and  C_10
REMARK   10  A    between atoms: C_10  and  C_11
REMARK   11  A    between atoms: C_11  and  C_12
REMARK   12  A    between atoms: C_12  and  C_13
REMARK   13  A    between atoms: C_13  and  C_14
REMARK   14  A    between atoms: C_14  and  C_15
REMARK   15  A    between atoms: C_15  and  C_16
REMARK   16  A    between atoms: C_16  and  O_17
REMARK   17  A    between atoms: O_17  and  C_18
REMARK   18  A    between atoms: C_21  and  C_22
REMARK   19  A    between atoms: C_23  and  C_24
REMARK   20  A    between atoms: C_24  and  O_26
REMARK                            x       y       z     vdW  Elec       q    Type
REMARK                         _______ _______ _______ _____ _____    ______ ____
ROOT
ATOM      1  C   UNL     1       3.995   3.293  17.442  0.00  0.00    +0.000 C 
ENDROOT
BRANCH   1   2
ATOM      2  C   UNL     1       4.657   3.665  16.119  0.00  0.00    +0.000 C 
BRANCH   2   3
ATOM      3  O   UNL     1       6.075   3.697  16.303  0.00  0.00    +0.000 OA
BRANCH   3   4
ATOM      4  C   UNL     1       6.558   4.894  16.757  0.00  0.00    +0.000 A 
ATOM      5  C   UNL     1       7.510   4.839  17.774  0.00  0.00    +0.000 A 
ATOM      6  C   UNL     1       7.935   6.013  18.411  0.00  0.00    +0.000 A 
ATOM      7  C   UNL     1       7.545   7.274  17.936  0.00  0.00    +0.000 A 
ATOM      8  C   UNL     1       6.598   7.313  16.899  0.00  0.00    +0.000 A 
ATOM      9  C   UNL     1       6.120   6.138  16.309  0.00  0.00    +0.000 A 
BRANCH   7  10
ATOM     10  C   UNL     1       8.113   8.526  18.495  0.00  0.00    +0.000 C 
ATOM     11  C   UNL     1       8.627   9.523  17.745  0.00  0.00    +0.000 C 
BRANCH  11  12
ATOM     12  C   UNL     1       9.180  10.742  18.384  0.00  0.00    +0.000 C 
ATOM     13  O   UNL     1      10.076  10.734  19.187  0.00  0.00    +0.000 OA
BRANCH  12  14
ATOM     14  O   UNL     1       8.572  11.881  17.974  0.00  0.00    +0.000 OA
ATOM     15  H   UNL     1       7.618  11.852  17.787  0.00  0.00    +0.000 HD
ENDBRANCH  12  14
ENDBRANCH  11  12
ENDBRANCH   7  10
ENDBRANCH   3   4
ENDBRANCH   2   3
ENDBRANCH   1   2
BRANCH   1  16
ATOM     16  C   UNL     1       2.514   3.649  17.433  0.00  0.00    +0.000 C 
BRANCH  16  17
ATOM     17  C   UNL     1       2.187   4.640  18.542  0.00  0.00    +0.000 C 
BRANCH  17  18
ATOM     18  C   UNL     1       3.450   5.062  19.264  0.00  0.00    +0.000 C 
BRANCH  18  19
ATOM     19  C   UNL     1       3.684   6.549  19.075  0.00  0.00    +0.000 C 
BRANCH  19  20
ATOM     20  C   UNL     1       2.361   7.254  18.847  0.00  0.00    +0.000 C 
BRANCH  20  21
ATOM     21  C   UNL     1       2.547   8.394  17.862  0.00  0.00    +0.000 C 
BRANCH  21  22
ATOM     22  C   UNL     1       1.362   9.337  17.936  0.00  0.00    +0.000 C 
BRANCH  22  23
ATOM     23  C   UNL     1       0.929   9.512  19.378  0.00  0.00    +0.000 C 
BRANCH  23  24
ATOM     24  C   UNL     1      -0.398  10.244  19.435  0.00  0.00    +0.000 C 
BRANCH  24  25
ATOM     25  C   UNL     1      -0.342  11.484  18.562  0.00  0.00    +0.000 C 
BRANCH  25  26
ATOM     26  C   UNL     1      -1.725  11.794  18.015  0.00  0.00    +0.000 C 
BRANCH  26  27
ATOM     27  C   UNL     1      -2.648  10.608  18.232  0.00  0.00    +0.000 C 
BRANCH  27  29
ATOM     28  C   UNL     1      -2.495  10.019  15.819  0.00  0.00    +0.000 C 
ATOM     29  C   UNL     1      -3.438  10.315  16.965  0.00  0.00    +0.000 C 
ENDBRANCH  27  29
ENDBRANCH  26  27
ENDBRANCH  25  26
ENDBRANCH  24  25
ENDBRANCH  23  24
ENDBRANCH  22  23
ENDBRANCH  21  22
ENDBRANCH  20  21
ENDBRANCH  19  20
ENDBRANCH  18  19
ENDBRANCH  17  18
ENDBRANCH  16  17
ENDBRANCH   1  16
TORSDOF 19
ENDMDL
MODEL 7
REMARK VINA RESULT:      -5.5      3.158      7.354
REMARK  Name = 
REMARK  20 active torsions:
REMARK  status: ('A' for Active; 'I' for Inactive)
REMARK    1  A    between atoms: C_1  and  C_2
REMARK    2  A    between atoms: C_2  and  C_3
REMARK    3  A    between atoms: C_3  and  C_4
REMARK    4  A    between atoms: C_4  and  C_5
REMARK    5  A    between atoms: C_5  and  C_6
REMARK    6  A    between atoms: C_6  and  C_7
REMARK    7  A    between atoms: C_7  and  C_8
REMARK    8  A    between atoms: C_8  and  C_9
REMARK    9  A    between atoms: C_9  and  C_10
REMARK   10  A    between atoms: C_10  and  C_11
REMARK   11  A    between atoms: C_11  and  C_12
REMARK   12  A    between atoms: C_12  and  C_13
REMARK   13  A    between atoms: C_13  and  C_14
REMARK   14  A    between atoms: C_14  and  C_15
REMARK   15  A    between atoms: C_15  and  C_16
REMARK   16  A    between atoms: C_16  and  O_17
REMARK   17  A    between atoms: O_17  and  C_18
REMARK   18  A    between atoms: C_21  and  C_22
REMARK   19  A    between atoms: C_23  and  C_24
REMARK   20  A    between atoms: C_24  and  O_26
REMARK                            x       y       z     vdW  Elec       q    Type
REMARK                         _______ _______ _______ _____ _____    ______ ____
ROOT
ATOM      1  C   UNL     1       7.935   9.271  17.963  0.00  0.00    +0.000 C 
ENDROOT
BRANCH   1   2
ATOM      2  C   UNL     1       8.148   7.760  17.991  0.00  0.00    +0.000 C 
BRANCH   2   3
ATOM      3  O   UNL     1       7.346   7.161  16.970  0.00  0.00    +0.000 OA
BRANCH   3   4
ATOM      4  C   UNL     1       6.221   6.532  17.433  0.00  0.00    +0.000 A 
ATOM      5  C   UNL     1       5.028   6.818  16.771  0.00  0.00    +0.000 A 
ATOM      6  C   UNL     1       3.808   6.351  17.279  0.00  0.00    +0.000 A 
ATOM      7  C   UNL     1       3.769   5.455  18.357  0.00  0.00    +0.000 A 
ATOM      8  C   UNL     1       4.982   5.163  19.002  0.00  0.00    +0.000 A 
ATOM      9  C   UNL     1       6.194   5.686  18.538  0.00  0.00    +0.000 A 
BRANCH   7  10
ATOM     10  C   UNL     1       2.501   4.826  18.800  0.00  0.00    +0.000 C 
ATOM     11  C   UNL     1       2.228   3.510  18.682  0.00  0.00    +0.000 C 
BRANCH  11  12
ATOM     12  C   UNL     1       0.931   2.960  19.149  0.00  0.00    +0.000 C 
ATOM     13  O   UNL     1       0.289   2.143  18.543  0.00  0.00    +0.000 OA
BRANCH  12  14
ATOM     14  O   UNL     1       0.533   3.473  20.337  0.00  0.00    +0.000 OA
ATOM     15  H   UNL     1       0.927   4.311  20.633  0.00  0.00    +0.000 HD
ENDBRANCH  12  14
ENDBRANCH  11  12
ENDBRANCH   7  10
ENDBRANCH   3   4
ENDBRANCH   2   3
ENDBRANCH   1   2
BRANCH   1  16
ATOM     16  C   UNL     1       9.023   9.991  18.748  0.00  0.00    +0.000 C 
BRANCH  16  17
ATOM     17  C   UNL     1       9.282  11.377  18.172  0.00  0.00    +0.000 C 
BRANCH  17  18
ATOM     18  C   UNL     1      10.724  11.504  17.729  0.00  0.00    +0.000 C 
BRANCH  18  19
ATOM     19  C   UNL     1      11.432  12.557  18.561  0.00  0.00    +0.000 C 
BRANCH  19  20
ATOM     20  C   UNL     1      10.411  13.443  19.248  0.00  0.00    +0.000 C 
BRANCH  20  21
ATOM     21  C   UNL     1      11.056  14.162  20.418  0.00  0.00    +0.000 C 
BRANCH  21  22
ATOM     22  C   UNL     1      10.068  14.270  21.564  0.00  0.00    +0.000 C 
BRANCH  22  23
ATOM     23  C   UNL     1       9.466  12.910  21.858  0.00  0.00    +0.000 C 
BRANCH  23  24
ATOM     24  C   UNL     1       8.011  13.065  22.259  0.00  0.00    +0.000 C 
BRANCH  24  25
ATOM     25  C   UNL     1       7.561  11.849  23.047  0.00  0.00    +0.000 C 
BRANCH  25  26
ATOM     26  C   UNL     1       8.448  11.665  24.266  0.00  0.00    +0.000 C 
BRANCH  26  27
ATOM     27  C   UNL     1       7.844  12.382  25.461  0.00  0.00    +0.000 C 
BRANCH  27  29
ATOM     28  C   UNL     1       5.452  12.740  26.053  0.00  0.00    +0.000 C 
ATOM     29  C   UNL     1       6.546  11.707  25.880  0.00  0.00    +0.000 C 
ENDBRANCH  27  29
ENDBRANCH  26  27
ENDBRANCH  25  26
ENDBRANCH  24  25
ENDBRANCH  23  24
ENDBRANCH  22  23
ENDBRANCH  21  22
ENDBRANCH  20  21
ENDBRANCH  19  20
ENDBRANCH  18  19
ENDBRANCH  17  18
ENDBRANCH  16  17
ENDBRANCH   1  16
TORSDOF 19
ENDMDL
MODEL 8
REMARK VINA RESULT:      -5.5      5.780      9.174
REMARK  Name = 
REMARK  20 active torsions:
REMARK  status: ('A' for Active; 'I' for Inactive)
REMARK    1  A    between atoms: C_1  and  C_2
REMARK    2  A    between atoms: C_2  and  C_3
REMARK    3  A    between atoms: C_3  and  C_4
REMARK    4  A    between atoms: C_4  and  C_5
REMARK    5  A    between atoms: C_5  and  C_6
REMARK    6  A    between atoms: C_6  and  C_7
REMARK    7  A    between atoms: C_7  and  C_8
REMARK    8  A    between atoms: C_8  and  C_9
REMARK    9  A    between atoms: C_9  and  C_10
REMARK   10  A    between atoms: C_10  and  C_11
REMARK   11  A    between atoms: C_11  and  C_12
REMARK   12  A    between atoms: C_12  and  C_13
REMARK   13  A    between atoms: C_13  and  C_14
REMARK   14  A    between atoms: C_14  and  C_15
REMARK   15  A    between atoms: C_15  and  C_16
REMARK   16  A    between atoms: C_16  and  O_17
REMARK   17  A    between atoms: O_17  and  C_18
REMARK   18  A    between atoms: C_21  and  C_22
REMARK   19  A    between atoms: C_23  and  C_24
REMARK   20  A    between atoms: C_24  and  O_26
REMARK                            x       y       z     vdW  Elec       q    Type
REMARK                         _______ _______ _______ _____ _____    ______ ____
ROOT
ATOM      1  C   UNL     1       2.093   7.300  18.412  0.00  0.00    +0.000 C 
ENDROOT
BRANCH   1   2
ATOM      2  C   UNL     1       1.852   8.347  19.494  0.00  0.00    +0.000 C 
BRANCH   2   3
ATOM      3  O   UNL     1       1.091   9.423  18.936  0.00  0.00    +0.000 OA
BRANCH   3   4
ATOM      4  C   UNL     1       0.449  10.199  19.862  0.00  0.00    +0.000 A 
ATOM      5  C   UNL     1       0.692   9.903  21.202  0.00  0.00    +0.000 A 
ATOM      6  C   UNL     1      -0.047  10.534  22.213  0.00  0.00    +0.000 A 
ATOM      7  C   UNL     1      -0.923  11.588  21.916  0.00  0.00    +0.000 A 
ATOM      8  C   UNL     1      -1.145  11.886  20.561  0.00  0.00    +0.000 A 
ATOM      9  C   UNL     1      -0.458  11.207  19.548  0.00  0.00    +0.000 A 
BRANCH   7  10
ATOM     10  C   UNL     1      -1.588  12.373  22.985  0.00  0.00    +0.000 C 
ATOM     11  C   UNL     1      -1.365  13.684  23.209  0.00  0.00    +0.000 C 
BRANCH  11  12
ATOM     12  C   UNL     1      -2.071  14.395  24.305  0.00  0.00    +0.000 C 
ATOM     13  O   UNL     1      -3.193  14.143  24.658  0.00  0.00    +0.000 OA
BRANCH  12  14
ATOM     14  O   UNL     1      -1.322  15.367  24.877  0.00  0.00    +0.000 OA
ATOM     15  H   UNL     1      -1.708  15.874  25.612  0.00  0.00    +0.000 HD
ENDBRANCH  12  14
ENDBRANCH  11  12
ENDBRANCH   7  10
ENDBRANCH   3   4
ENDBRANCH   2   3
ENDBRANCH   1   2
BRANCH   1  16
ATOM     16  C   UNL     1       2.656   6.017  19.008  0.00  0.00    +0.000 C 
BRANCH  16  17
ATOM     17  C   UNL     1       2.083   5.767  20.397  0.00  0.00    +0.000 C 
BRANCH  17  18
ATOM     18  C   UNL     1       0.880   4.851  20.316  0.00  0.00    +0.000 C 
BRANCH  18  19
ATOM     19  C   UNL     1       1.328   3.402  20.334  0.00  0.00    +0.000 C 
BRANCH  19  20
ATOM     20  C   UNL     1       0.853   2.699  19.078  0.00  0.00    +0.000 C 
BRANCH  20  21
ATOM     21  C   UNL     1       2.034   2.084  18.352  0.00  0.00    +0.000 C 
BRANCH  21  22
ATOM     22  C   UNL     1       2.561   3.053  17.310  0.00  0.00    +0.000 C 
BRANCH  22  23
ATOM     23  C   UNL     1       4.075   3.099  17.366  0.00  0.00    +0.000 C 
BRANCH  23  24
ATOM     24  C   UNL     1       4.587   4.264  16.541  0.00  0.00    +0.000 C 
BRANCH  24  25
ATOM     25  C   UNL     1       5.895   3.886  15.870  0.00  0.00    +0.000 C 
BRANCH  25  26
ATOM     26  C   UNL     1       6.963   4.912  16.207  0.00  0.00    +0.000 C 
BRANCH  26  27
ATOM     27  C   UNL     1       7.582   4.593  17.557  0.00  0.00    +0.000 C 
BRANCH  27  29
ATOM     28  C   UNL     1       7.373   7.074  17.576  0.00  0.00    +0.000 C 
ATOM     29  C   UNL     1       7.638   5.845  18.420  0.00  0.00    +0.000 C 
ENDBRANCH  27  29
ENDBRANCH  26  27
ENDBRANCH  25  26
ENDBRANCH  24  25
ENDBRANCH  23  24
ENDBRANCH  22  23
ENDBRANCH  21  22
ENDBRANCH  20  21
ENDBRANCH  19  20
ENDBRANCH  18  19
ENDBRANCH  17  18
ENDBRANCH  16  17
ENDBRANCH   1  16
TORSDOF 19
ENDMDL
MODEL 9
REMARK VINA RESULT:      -5.5      5.660      9.714
REMARK  Name = 
REMARK  20 active torsions:
REMARK  status: ('A' for Active; 'I' for Inactive)
REMARK    1  A    between atoms: C_1  and  C_2
REMARK    2  A    between atoms: C_2  and  C_3
REMARK    3  A    between atoms: C_3  and  C_4
REMARK    4  A    between atoms: C_4  and  C_5
REMARK    5  A    between atoms: C_5  and  C_6
REMARK    6  A    between atoms: C_6  and  C_7
REMARK    7  A    between atoms: C_7  and  C_8
REMARK    8  A    between atoms: C_8  and  C_9
REMARK    9  A    between atoms: C_9  and  C_10
REMARK   10  A    between atoms: C_10  and  C_11
REMARK   11  A    between atoms: C_11  and  C_12
REMARK   12  A    between atoms: C_12  and  C_13
REMARK   13  A    between atoms: C_13  and  C_14
REMARK   14  A    between atoms: C_14  and  C_15
REMARK   15  A    between atoms: C_15  and  C_16
REMARK   16  A    between atoms: C_16  and  O_17
REMARK   17  A    between atoms: O_17  and  C_18
REMARK   18  A    between atoms: C_21  and  C_22
REMARK   19  A    between atoms: C_23  and  C_24
REMARK   20  A    between atoms: C_24  and  O_26
REMARK                            x       y       z     vdW  Elec       q    Type
REMARK                         _______ _______ _______ _____ _____    ______ ____
ROOT
ATOM      1  C   UNL     1       2.316   8.558  17.578  0.00  0.00    +0.000 C 
ENDROOT
BRANCH   1   2
ATOM      2  C   UNL     1       1.161   9.409  18.098  0.00  0.00    +0.000 C 
BRANCH   2   3
ATOM      3  O   UNL     1       1.692  10.480  18.883  0.00  0.00    +0.000 OA
BRANCH   3   4
ATOM      4  C   UNL     1       0.888  10.872  19.919  0.00  0.00    +0.000 A 
ATOM      5  C   UNL     1       0.010   9.915  20.425  0.00  0.00    +0.000 A 
ATOM      6  C   UNL     1      -0.962  10.275  21.370  0.00  0.00    +0.000 A 
ATOM      7  C   UNL     1      -0.968  11.552  21.949  0.00  0.00    +0.000 A 
ATOM      8  C   UNL     1      -0.064  12.500  21.441  0.00  0.00    +0.000 A 
ATOM      9  C   UNL     1       0.860  12.160  20.447  0.00  0.00    +0.000 A 
BRANCH   7  10
ATOM     10  C   UNL     1      -1.883  11.896  23.065  0.00  0.00    +0.000 C 
ATOM     11  C   UNL     1      -3.114  12.422  22.898  0.00  0.00    +0.000 C 
BRANCH  11  12
ATOM     12  C   UNL     1      -3.966  12.740  24.070  0.00  0.00    +0.000 C 
ATOM     13  O   UNL     1      -4.391  13.839  24.314  0.00  0.00    +0.000 OA
BRANCH  12  14
ATOM     14  O   UNL     1      -4.224  11.664  24.850  0.00  0.00    +0.000 OA
ATOM     15  H   UNL     1      -4.194  11.776  25.815  0.00  0.00    +0.000 HD
ENDBRANCH  12  14
ENDBRANCH  11  12
ENDBRANCH   7  10
ENDBRANCH   3   4
ENDBRANCH   2   3
ENDBRANCH   1   2
BRANCH   1  16
ATOM     16  C   UNL     1       2.880   7.670  18.679  0.00  0.00    +0.000 C 
BRANCH  16  17
ATOM     17  C   UNL     1       2.130   6.345  18.745  0.00  0.00    +0.000 C 
BRANCH  17  18
ATOM     18  C   UNL     1       2.523   5.577  19.989  0.00  0.00    +0.000 C 
BRANCH  18  19
ATOM     19  C   UNL     1       1.289   4.983  20.643  0.00  0.00    +0.000 C 
BRANCH  19  20
ATOM     20  C   UNL     1       1.217   3.497  20.353  0.00  0.00    +0.000 C 
BRANCH  20  21
ATOM     21  C   UNL     1       2.570   2.995  19.886  0.00  0.00    +0.000 C 
BRANCH  21  22
ATOM     22  C   UNL     1       2.385   1.903  18.850  0.00  0.00    +0.000 C 
BRANCH  22  23
ATOM     23  C   UNL     1       3.419   2.054  17.751  0.00  0.00    +0.000 C 
BRANCH  23  24
ATOM     24  C   UNL     1       3.467   3.495  17.281  0.00  0.00    +0.000 C 
BRANCH  24  25
ATOM     25  C   UNL     1       4.905   3.910  17.035  0.00  0.00    +0.000 C 
BRANCH  25  26
ATOM     26  C   UNL     1       4.947   5.319  16.469  0.00  0.00    +0.000 C 
BRANCH  26  27
ATOM     27  C   UNL     1       5.563   5.303  15.081  0.00  0.00    +0.000 C 
BRANCH  27  29
ATOM     28  C   UNL     1       6.190   3.732  13.255  0.00  0.00    +0.000 C 
ATOM     29  C   UNL     1       6.093   3.915  14.755  0.00  0.00    +0.000 C 
ENDBRANCH  27  29
ENDBRANCH  26  27
ENDBRANCH  25  26
ENDBRANCH  24  25
ENDBRANCH  23  24
ENDBRANCH  22  23
ENDBRANCH  21  22
ENDBRANCH  20  21
ENDBRANCH  19  20
ENDBRANCH  18  19
ENDBRANCH  17  18
ENDBRANCH  16  17
ENDBRANCH   1  16
TORSDOF 19
ENDMDL
