MODEL 1
REMARK VINA RESULT:      -7.6      0.000      0.000
REMARK  Name = 
REMARK  6 active torsions:
REMARK  status: ('A' for Active; 'I' for Inactive)
REMARK    1  A    between atoms: N_1  and  C_2
REMARK    2  A    between atoms: N_10  and  C_11
REMARK    3  A    between atoms: C_11  and  C_12
REMARK    4  A    between atoms: C_11  and  C_19
REMARK    5  A    between atoms: C_12  and  N_13
REMARK    6  A    between atoms: C_28  and  C_29
REMARK                            x       y       z     vdW  Elec       q    Type
REMARK                         _______ _______ _______ _____ _____    ______ ____
ROOT
ATOM      1  C   UNL     1       4.438   4.953  17.272  0.00  0.00    +0.000 A 
ATOM      2  N   UNL     1       5.120   5.627  16.335  0.00  0.00    +0.000 NA
ATOM      3  C   UNL     1       4.911   6.938  16.287  0.00  0.00    +0.000 A 
ATOM      4  N   UNL     1       4.104   7.629  17.090  0.00  0.00    +0.000 NA
ATOM      5  C   UNL     1       3.413   6.945  18.032  0.00  0.00    +0.000 A 
ATOM      6  N   UNL     1       2.445   7.684  18.697  0.00  0.00    +0.000 N 
ATOM      7  C   UNL     1       1.835   8.792  17.953  0.00  0.00    +0.000 C 
ATOM      8  C   UNL     1       0.383   8.952  18.460  0.00  0.00    +0.000 C 
ATOM      9  N   UNL     1       0.268   9.249  19.906  0.00  0.00    +0.000 NA
ATOM     10  C   UNL     1       1.007   8.170  20.634  0.00  0.00    +0.000 C 
ATOM     11  C   UNL     1       2.461   7.880  20.152  0.00  0.00    +0.000 C 
ATOM     12  C   UNL     1       3.551   5.544  18.193  0.00  0.00    +0.000 A 
ENDROOT
BRANCH  12  13
ATOM     13  C   UNL     1       2.716   4.730  19.132  0.00  0.00    +0.000 A 
ATOM     14  C   UNL     1       3.104   4.552  20.476  0.00  0.00    +0.000 A 
ATOM     15  C   UNL     1       2.398   3.724  21.354  0.00  0.00    +0.000 A 
ATOM     16  C   UNL     1       1.213   3.149  20.935  0.00  0.00    +0.000 A 
ATOM     17  F   UNL     1       0.512   2.386  21.783  0.00  0.00    +0.000 F 
ATOM     18  C   UNL     1       0.750   3.353  19.645  0.00  0.00    +0.000 A 
ATOM     19  C   UNL     1       1.518   4.098  18.740  0.00  0.00    +0.000 A 
ENDBRANCH  12  13
BRANCH   1  20
ATOM     20  N   UNL     1       4.639   3.574  17.162  0.00  0.00    +0.000 N 
ATOM     21  H   UNL     1       4.474   3.339  16.186  0.00  0.00    +0.000 HD
ATOM     22  H   UNL     1       5.565   3.290  17.442  0.00  0.00    +0.000 HD
ENDBRANCH   1  20
BRANCH   9  23
ATOM     23  C   UNL     1       0.712  10.636  20.277  0.00  0.00    +0.000 C 
BRANCH  23  24
ATOM     24  C   UNL     1      -0.413  11.311  21.067  0.00  0.00    +0.000 A 
ATOM     25  C   UNL     1      -0.559  11.020  22.436  0.00  0.00    +0.000 A 
ATOM     26  C   UNL     1      -1.628  11.554  23.159  0.00  0.00    +0.000 A 
ATOM     27  C   UNL     1      -2.552  12.366  22.519  0.00  0.00    +0.000 A 
ATOM     28  F   UNL     1      -3.590  12.848  23.216  0.00  0.00    +0.000 F 
ATOM     29  C   UNL     1      -2.437  12.665  21.169  0.00  0.00    +0.000 A 
ATOM     30  C   UNL     1      -1.366  12.140  20.440  0.00  0.00    +0.000 A 
ENDBRANCH  23  24
BRANCH  23  31
ATOM     31  C   UNL     1       1.146  11.477  18.997  0.00  0.00    +0.000 C 
BRANCH  31  32
ATOM     32  N   UNL     1       2.270  12.473  19.035  0.00  0.00    +0.000 NA
ATOM     33  C   UNL     1       2.054  13.441  17.931  0.00  0.00    +0.000 C 
ATOM     34  C   UNL     1       2.975  14.661  17.971  0.00  0.00    +0.000 C 
ATOM     35  C   UNL     1       2.821  15.383  19.299  0.00  0.00    +0.000 C 
ATOM     36  C   UNL     1       3.183  14.418  20.411  0.00  0.00    +0.000 C 
ATOM     37  C   UNL     1       2.350  13.136  20.345  0.00  0.00    +0.000 C 
ENDBRANCH  31  32
ENDBRANCH  23  31
ENDBRANCH   9  23
TORSDOF 6
ENDMDL
MODEL 2
REMARK VINA RESULT:      -7.5      1.131      1.663
REMARK  Name = 
REMARK  6 active torsions:
REMARK  status: ('A' for Active; 'I' for Inactive)
REMARK    1  A    between atoms: N_1  and  C_2
REMARK    2  A    between atoms: N_10  and  C_11
REMARK    3  A    between atoms: C_11  and  C_12
REMARK    4  A    between atoms: C_11  and  C_19
REMARK    5  A    between atoms: C_12  and  N_13
REMARK    6  A    between atoms: C_28  and  C_29
REMARK                            x       y       z     vdW  Elec       q    Type
REMARK                         _______ _______ _______ _____ _____    ______ ____
ROOT
ATOM      1  C   UNL     1       5.355   4.731  17.032  0.00  0.00    +0.000 A 
ATOM      2  N   UNL     1       6.297   5.470  16.427  0.00  0.00    +0.000 NA
ATOM      3  C   UNL     1       6.167   6.788  16.535  0.00  0.00    +0.000 A 
ATOM      4  N   UNL     1       5.203   7.426  17.196  0.00  0.00    +0.000 NA
ATOM      5  C   UNL     1       4.251   6.677  17.801  0.00  0.00    +0.000 A 
ATOM      6  N   UNL     1       3.172   7.396  18.296  0.00  0.00    +0.000 N 
ATOM      7  C   UNL     1       2.839   8.646  17.603  0.00  0.00    +0.000 C 
ATOM      8  C   UNL     1       1.313   8.856  17.728  0.00  0.00    +0.000 C 
ATOM      9  N   UNL     1       0.819   8.956  19.120  0.00  0.00    +0.000 NA
ATOM     10  C   UNL     1       1.281   7.725  19.836  0.00  0.00    +0.000 C 
ATOM     11  C   UNL     1       2.797   7.382  19.715  0.00  0.00    +0.000 C 
ATOM     12  C   UNL     1       4.277   5.260  17.767  0.00  0.00    +0.000 A 
ENDROOT
BRANCH  12  13
ATOM     13  C   UNL     1       3.181   4.397  18.312  0.00  0.00    +0.000 A 
ATOM     14  C   UNL     1       1.979   4.219  17.598  0.00  0.00    +0.000 A 
ATOM     15  C   UNL     1       0.902   3.495  18.118  0.00  0.00    +0.000 A 
ATOM     16  C   UNL     1       1.051   2.830  19.321  0.00  0.00    +0.000 A 
ATOM     17  F   UNL     1       0.037   2.105  19.807  0.00  0.00    +0.000 F 
ATOM     18  C   UNL     1       2.240   2.914  20.027  0.00  0.00    +0.000 A 
ATOM     19  C   UNL     1       3.277   3.727  19.549  0.00  0.00    +0.000 A 
ENDBRANCH  12  13
BRANCH   1  20
ATOM     20  N   UNL     1       5.517   3.369  16.760  0.00  0.00    +0.000 N 
ATOM     21  H   UNL     1       5.795   3.305  15.784  0.00  0.00    +0.000 HD
ATOM     22  H   UNL     1       6.204   2.932  17.354  0.00  0.00    +0.000 HD
ENDBRANCH   1  20
BRANCH   9  23
ATOM     23  C   UNL     1       1.205  10.233  19.810  0.00  0.00    +0.000 C 
BRANCH  23  24
ATOM     24  C   UNL     1       0.153  10.546  20.878  0.00  0.00    +0.000 A 
ATOM     25  C   UNL     1      -0.863  11.476  20.586  0.00  0.00    +0.000 A 
ATOM     26  C   UNL     1      -1.783  11.844  21.570  0.00  0.00    +0.000 A 
ATOM     27  C   UNL     1      -1.686  11.297  22.840  0.00  0.00    +0.000 A 
ATOM     28  F   UNL     1      -2.557  11.680  23.785  0.00  0.00    +0.000 F 
ATOM     29  C   UNL     1      -0.692  10.382  23.158  0.00  0.00    +0.000 A 
ATOM     30  C   UNL     1       0.228  10.003  22.177  0.00  0.00    +0.000 A 
ENDBRANCH  23  24
BRANCH  23  31
ATOM     31  C   UNL     1       1.397  11.427  18.775  0.00  0.00    +0.000 C 
BRANCH  31  32
ATOM     32  N   UNL     1       2.083  12.710  19.148  0.00  0.00    +0.000 NA
ATOM     33  C   UNL     1       3.142  12.967  18.141  0.00  0.00    +0.000 C 
ATOM     34  C   UNL     1       3.780  14.353  18.233  0.00  0.00    +0.000 C 
ATOM     35  C   UNL     1       2.711  15.425  18.112  0.00  0.00    +0.000 C 
ATOM     36  C   UNL     1       1.712  15.234  19.236  0.00  0.00    +0.000 C 
ATOM     37  C   UNL     1       1.124  13.821  19.238  0.00  0.00    +0.000 C 
ENDBRANCH  31  32
ENDBRANCH  23  31
ENDBRANCH   9  23
TORSDOF 6
ENDMDL
MODEL 3
REMARK VINA RESULT:      -7.5      0.819      1.202
REMARK  Name = 
REMARK  6 active torsions:
REMARK  status: ('A' for Active; 'I' for Inactive)
REMARK    1  A    between atoms: N_1  and  C_2
REMARK    2  A    between atoms: N_10  and  C_11
REMARK    3  A    between atoms: C_11  and  C_12
REMARK    4  A    between atoms: C_11  and  C_19
REMARK    5  A    between atoms: C_12  and  N_13
REMARK    6  A    between atoms: C_28  and  C_29
REMARK                            x       y       z     vdW  Elec       q    Type
REMARK                         _______ _______ _______ _____ _____    ______ ____
ROOT
ATOM      1  C   UNL     1       5.140   4.912  17.191  0.00  0.00    +0.000 A 
ATOM      2  N   UNL     1       6.096   5.643  16.600  0.00  0.00    +0.000 NA
ATOM      3  C   UNL     1       5.979   6.962  16.712  0.00  0.00    +0.000 A 
ATOM      4  N   UNL     1       5.014   7.607  17.365  0.00  0.00    +0.000 NA
ATOM      5  C   UNL     1       4.047   6.867  17.956  0.00  0.00    +0.000 A 
ATOM      6  N   UNL     1       2.970   7.594  18.441  0.00  0.00    +0.000 N 
ATOM      7  C   UNL     1       2.658   8.850  17.750  0.00  0.00    +0.000 C 
ATOM      8  C   UNL     1       1.133   9.076  17.859  0.00  0.00    +0.000 C 
ATOM      9  N   UNL     1       0.624   9.176  19.246  0.00  0.00    +0.000 NA
ATOM     10  C   UNL     1       1.066   7.938  19.963  0.00  0.00    +0.000 C 
ATOM     11  C   UNL     1       2.580   7.579  19.857  0.00  0.00    +0.000 C 
ATOM     12  C   UNL     1       4.059   5.450  17.917  0.00  0.00    +0.000 A 
ENDROOT
BRANCH  12  13
ATOM     13  C   UNL     1       2.949   4.595  18.445  0.00  0.00    +0.000 A 
ATOM     14  C   UNL     1       2.963   4.132  19.776  0.00  0.00    +0.000 A 
ATOM     15  C   UNL     1       1.991   3.259  20.274  0.00  0.00    +0.000 A 
ATOM     16  C   UNL     1       0.911   2.925  19.478  0.00  0.00    +0.000 A 
ATOM     17  F   UNL     1      -0.043   2.120  19.962  0.00  0.00    +0.000 F 
ATOM     18  C   UNL     1       0.813   3.414  18.186  0.00  0.00    +0.000 A 
ATOM     19  C   UNL     1       1.845   4.204  17.661  0.00  0.00    +0.000 A 
ENDBRANCH  12  13
BRANCH   1  20
ATOM     20  N   UNL     1       5.291   3.550  16.916  0.00  0.00    +0.000 N 
ATOM     21  H   UNL     1       5.209   3.068  17.808  0.00  0.00    +0.000 HD
ATOM     22  H   UNL     1       4.606   3.205  16.262  0.00  0.00    +0.000 HD
ENDBRANCH   1  20
BRANCH   9  23
ATOM     23  C   UNL     1       1.017  10.446  19.946  0.00  0.00    +0.000 C 
BRANCH  23  24
ATOM     24  C   UNL     1      -0.057  10.779  20.986  0.00  0.00    +0.000 A 
ATOM     25  C   UNL     1      -0.987  11.798  20.708  0.00  0.00    +0.000 A 
ATOM     26  C   UNL     1      -1.921  12.180  21.673  0.00  0.00    +0.000 A 
ATOM     27  C   UNL     1      -1.923  11.558  22.913  0.00  0.00    +0.000 A 
ATOM     28  F   UNL     1      -2.804  11.954  23.841  0.00  0.00    +0.000 F 
ATOM     29  C   UNL     1      -1.014  10.554  23.216  0.00  0.00    +0.000 A 
ATOM     30  C   UNL     1      -0.080  10.161  22.253  0.00  0.00    +0.000 A 
ENDBRANCH  23  24
BRANCH  23  31
ATOM     31  C   UNL     1       1.256  11.636  18.916  0.00  0.00    +0.000 C 
BRANCH  31  32
ATOM     32  N   UNL     1       2.390  12.610  19.064  0.00  0.00    +0.000 NA
ATOM     33  C   UNL     1       2.375  13.507  17.882  0.00  0.00    +0.000 C 
ATOM     34  C   UNL     1       3.314  14.708  17.988  0.00  0.00    +0.000 C 
ATOM     35  C   UNL     1       2.983  15.518  19.229  0.00  0.00    +0.000 C 
ATOM     36  C   UNL     1       3.142  14.622  20.441  0.00  0.00    +0.000 C 
ATOM     37  C   UNL     1       2.291  13.356  20.327  0.00  0.00    +0.000 C 
ENDBRANCH  31  32
ENDBRANCH  23  31
ENDBRANCH   9  23
TORSDOF 6
ENDMDL
MODEL 4
REMARK VINA RESULT:      -7.4      0.343      1.199
REMARK  Name = 
REMARK  6 active torsions:
REMARK  status: ('A' for Active; 'I' for Inactive)
REMARK    1  A    between atoms: N_1  and  C_2
REMARK    2  A    between atoms: N_10  and  C_11
REMARK    3  A    between atoms: C_11  and  C_12
REMARK    4  A    between atoms: C_11  and  C_19
REMARK    5  A    between atoms: C_12  and  N_13
REMARK    6  A    between atoms: C_28  and  C_29
REMARK                            x       y       z     vdW  Elec       q    Type
REMARK                         _______ _______ _______ _____ _____    ______ ____
ROOT
ATOM      1  C   UNL     1       4.528   4.939  17.346  0.00  0.00    +0.000 A 
ATOM      2  N   UNL     1       5.227   5.616  16.423  0.00  0.00    +0.000 NA
ATOM      3  C   UNL     1       4.999   6.923  16.358  0.00  0.00    +0.000 A 
ATOM      4  N   UNL     1       4.159   7.609  17.132  0.00  0.00    +0.000 NA
ATOM      5  C   UNL     1       3.452   6.922  18.059  0.00  0.00    +0.000 A 
ATOM      6  N   UNL     1       2.454   7.651  18.689  0.00  0.00    +0.000 N 
ATOM      7  C   UNL     1       1.850   8.744  17.918  0.00  0.00    +0.000 C 
ATOM      8  C   UNL     1       0.382   8.886  18.382  0.00  0.00    +0.000 C 
ATOM      9  N   UNL     1       0.220   9.193  19.821  0.00  0.00    +0.000 NA
ATOM     10  C   UNL     1       0.953   8.132  20.580  0.00  0.00    +0.000 C 
ATOM     11  C   UNL     1       2.425   7.859  20.142  0.00  0.00    +0.000 C 
ATOM     12  C   UNL     1       3.606   5.524  18.235  0.00  0.00    +0.000 A 
ENDROOT
BRANCH  12  13
ATOM     13  C   UNL     1       2.756   4.705  19.158  0.00  0.00    +0.000 A 
ATOM     14  C   UNL     1       3.129   4.509  20.503  0.00  0.00    +0.000 A 
ATOM     15  C   UNL     1       2.409   3.677  21.364  0.00  0.00    +0.000 A 
ATOM     16  C   UNL     1       1.224   3.114  20.927  0.00  0.00    +0.000 A 
ATOM     17  F   UNL     1       0.510   2.347  21.759  0.00  0.00    +0.000 F 
ATOM     18  C   UNL     1       0.776   3.336  19.635  0.00  0.00    +0.000 A 
ATOM     19  C   UNL     1       1.558   4.085  18.746  0.00  0.00    +0.000 A 
ENDBRANCH  12  13
BRANCH   1  20
ATOM     20  N   UNL     1       4.753   3.562  17.253  0.00  0.00    +0.000 N 
ATOM     21  H   UNL     1       4.933   3.238  18.200  0.00  0.00    +0.000 HD
ATOM     22  H   UNL     1       3.974   3.065  16.850  0.00  0.00    +0.000 HD
ENDBRANCH   1  20
BRANCH   9  23
ATOM     23  C   UNL     1       0.632  10.590  20.193  0.00  0.00    +0.000 C 
BRANCH  23  24
ATOM     24  C   UNL     1      -0.511  11.241  20.976  0.00  0.00    +0.000 A 
ATOM     25  C   UNL     1      -1.507  11.947  20.275  0.00  0.00    +0.000 A 
ATOM     26  C   UNL     1      -2.511  12.623  20.971  0.00  0.00    +0.000 A 
ATOM     27  C   UNL     1      -2.518  12.606  22.357  0.00  0.00    +0.000 A 
ATOM     28  F   UNL     1      -3.470  13.283  23.014  0.00  0.00    +0.000 F 
ATOM     29  C   UNL     1      -1.546  11.923  23.075  0.00  0.00    +0.000 A 
ATOM     30  C   UNL     1      -0.541  11.238  22.386  0.00  0.00    +0.000 A 
ENDBRANCH  23  24
BRANCH  23  31
ATOM     31  C   UNL     1       1.056  11.438  18.915  0.00  0.00    +0.000 C 
BRANCH  31  32
ATOM     32  N   UNL     1       1.504  12.869  19.013  0.00  0.00    +0.000 NA
ATOM     33  C   UNL     1       2.085  13.070  20.363  0.00  0.00    +0.000 C 
ATOM     34  C   UNL     1       2.806  14.405  20.548  0.00  0.00    +0.000 C 
ATOM     35  C   UNL     1       3.906  14.548  19.511  0.00  0.00    +0.000 C 
ATOM     36  C   UNL     1       3.275  14.482  18.134  0.00  0.00    +0.000 C 
ATOM     37  C   UNL     1       2.458  13.202  17.945  0.00  0.00    +0.000 C 
ENDBRANCH  31  32
ENDBRANCH  23  31
ENDBRANCH   9  23
TORSDOF 6
ENDMDL
MODEL 5
REMARK VINA RESULT:      -7.3      0.293      1.193
REMARK  Name = 
REMARK  6 active torsions:
REMARK  status: ('A' for Active; 'I' for Inactive)
REMARK    1  A    between atoms: N_1  and  C_2
REMARK    2  A    between atoms: N_10  and  C_11
REMARK    3  A    between atoms: C_11  and  C_12
REMARK    4  A    between atoms: C_11  and  C_19
REMARK    5  A    between atoms: C_12  and  N_13
REMARK    6  A    between atoms: C_28  and  C_29
REMARK                            x       y       z     vdW  Elec       q    Type
REMARK                         _______ _______ _______ _____ _____    ______ ____
ROOT
ATOM      1  C   UNL     1       4.529   4.918  17.213  0.00  0.00    +0.000 A 
ATOM      2  N   UNL     1       5.193   5.602  16.270  0.00  0.00    +0.000 NA
ATOM      3  C   UNL     1       4.971   6.911  16.229  0.00  0.00    +0.000 A 
ATOM      4  N   UNL     1       4.167   7.592  17.044  0.00  0.00    +0.000 NA
ATOM      5  C   UNL     1       3.494   6.898  17.991  0.00  0.00    +0.000 A 
ATOM      6  N   UNL     1       2.527   7.626  18.670  0.00  0.00    +0.000 N 
ATOM      7  C   UNL     1       1.898   8.730  17.937  0.00  0.00    +0.000 C 
ATOM      8  C   UNL     1       0.451   8.875  18.461  0.00  0.00    +0.000 C 
ATOM      9  N   UNL     1       0.349   9.166  19.909  0.00  0.00    +0.000 NA
ATOM     10  C   UNL     1       1.106   8.092  20.626  0.00  0.00    +0.000 C 
ATOM     11  C   UNL     1       2.558   7.817  20.126  0.00  0.00    +0.000 C 
ATOM     12  C   UNL     1       3.647   5.498  18.146  0.00  0.00    +0.000 A 
ENDROOT
BRANCH  12  13
ATOM     13  C   UNL     1       2.831   4.673  19.092  0.00  0.00    +0.000 A 
ATOM     14  C   UNL     1       1.606   4.106  18.686  0.00  0.00    +0.000 A 
ATOM     15  C   UNL     1       0.776   3.409  19.570  0.00  0.00    +0.000 A 
ATOM     16  C   UNL     1       1.215   3.160  20.856  0.00  0.00    +0.000 A 
ATOM     17  F   UNL     1       0.441   2.461  21.696  0.00  0.00    +0.000 F 
ATOM     18  C   UNL     1       2.445   3.633  21.282  0.00  0.00    +0.000 A 
ATOM     19  C   UNL     1       3.223   4.421  20.423  0.00  0.00    +0.000 A 
ENDBRANCH  12  13
BRANCH   1  20
ATOM     20  N   UNL     1       4.742   3.541  17.095  0.00  0.00    +0.000 N 
ATOM     21  H   UNL     1       5.452   3.303  17.783  0.00  0.00    +0.000 HD
ATOM     22  H   UNL     1       3.904   3.002  17.249  0.00  0.00    +0.000 HD
ENDBRANCH   1  20
BRANCH   9  23
ATOM     23  C   UNL     1       0.784  10.556  20.280  0.00  0.00    +0.000 C 
BRANCH  23  24
ATOM     24  C   UNL     1      -0.371  11.249  21.008  0.00  0.00    +0.000 A 
ATOM     25  C   UNL     1      -0.484  11.108  22.404  0.00  0.00    +0.000 A 
ATOM     26  C   UNL     1      -1.576  11.656  23.080  0.00  0.00    +0.000 A 
ATOM     27  C   UNL     1      -2.555  12.334  22.369  0.00  0.00    +0.000 A 
ATOM     28  F   UNL     1      -3.613  12.830  23.025  0.00  0.00    +0.000 F 
ATOM     29  C   UNL     1      -2.472  12.484  20.992  0.00  0.00    +0.000 A 
ATOM     30  C   UNL     1      -1.380  11.944  20.309  0.00  0.00    +0.000 A 
ENDBRANCH  23  24
BRANCH  23  31
ATOM     31  C   UNL     1       1.282  11.375  19.009  0.00  0.00    +0.000 C 
BRANCH  31  32
ATOM     32  N   UNL     1       1.621  12.837  19.079  0.00  0.00    +0.000 NA
ATOM     33  C   UNL     1       2.345  13.075  20.352  0.00  0.00    +0.000 C 
ATOM     34  C   UNL     1       2.972  14.463  20.473  0.00  0.00    +0.000 C 
ATOM     35  C   UNL     1       3.921  14.706  19.313  0.00  0.00    +0.000 C 
ATOM     36  C   UNL     1       3.134  14.600  18.021  0.00  0.00    +0.000 C 
ATOM     37  C   UNL     1       2.406  13.258  17.909  0.00  0.00    +0.000 C 
ENDBRANCH  31  32
ENDBRANCH  23  31
ENDBRANCH   9  23
TORSDOF 6
ENDMDL
MODEL 6
REMARK VINA RESULT:      -7.1      5.814      9.629
REMARK  Name = 
REMARK  6 active torsions:
REMARK  status: ('A' for Active; 'I' for Inactive)
REMARK    1  A    between atoms: N_1  and  C_2
REMARK    2  A    between atoms: N_10  and  C_11
REMARK    3  A    between atoms: C_11  and  C_12
REMARK    4  A    between atoms: C_11  and  C_19
REMARK    5  A    between atoms: C_12  and  N_13
REMARK    6  A    between atoms: C_28  and  C_29
REMARK                            x       y       z     vdW  Elec       q    Type
REMARK                         _______ _______ _______ _____ _____    ______ ____
ROOT
ATOM      1  C   UNL     1       4.581  16.572  20.943  0.00  0.00    +0.000 A 
ATOM      2  N   UNL     1       5.085  16.126  22.104  0.00  0.00    +0.000 NA
ATOM      3  C   UNL     1       4.363  15.213  22.744  0.00  0.00    +0.000 A 
ATOM      4  N   UNL     1       3.205  14.702  22.328  0.00  0.00    +0.000 NA
ATOM      5  C   UNL     1       2.697  15.159  21.160  0.00  0.00    +0.000 A 
ATOM      6  N   UNL     1       1.402  14.741  20.885  0.00  0.00    +0.000 N 
ATOM      7  C   UNL     1       0.540  14.464  22.039  0.00  0.00    +0.000 C 
ATOM      8  C   UNL     1      -0.913  14.788  21.625  0.00  0.00    +0.000 C 
ATOM      9  N   UNL     1      -1.414  14.000  20.476  0.00  0.00    +0.000 NA
ATOM     10  C   UNL     1      -0.447  14.203  19.352  0.00  0.00    +0.000 C 
ATOM     11  C   UNL     1       1.059  13.969  19.684  0.00  0.00    +0.000 C 
ATOM     12  C   UNL     1       3.372  16.127  20.376  0.00  0.00    +0.000 A 
ENDROOT
BRANCH  12  13
ATOM     13  C   UNL     1       2.790  16.752  19.146  0.00  0.00    +0.000 A 
ATOM     14  C   UNL     1       1.739  17.686  19.237  0.00  0.00    +0.000 A 
ATOM     15  C   UNL     1       1.111  18.218  18.107  0.00  0.00    +0.000 A 
ATOM     16  C   UNL     1       1.607  17.914  16.852  0.00  0.00    +0.000 A 
ATOM     17  F   UNL     1       1.035  18.450  15.767  0.00  0.00    +0.000 F 
ATOM     18  C   UNL     1       2.687  17.058  16.712  0.00  0.00    +0.000 A 
ATOM     19  C   UNL     1       3.242  16.447  17.845  0.00  0.00    +0.000 A 
ENDBRANCH  12  13
BRANCH   1  20
ATOM     20  N   UNL     1       5.355  17.609  20.412  0.00  0.00    +0.000 N 
ATOM     21  H   UNL     1       4.774  18.071  19.717  0.00  0.00    +0.000 HD
ATOM     22  H   UNL     1       5.662  18.266  21.113  0.00  0.00    +0.000 HD
ENDBRANCH   1  20
BRANCH   9  23
ATOM     23  C   UNL     1      -1.667  12.554  20.797  0.00  0.00    +0.000 C 
BRANCH  23  24
ATOM     24  C   UNL     1      -1.863  11.792  19.483  0.00  0.00    +0.000 A 
ATOM     25  C   UNL     1      -3.067  11.952  18.772  0.00  0.00    +0.000 A 
ATOM     26  C   UNL     1      -3.307  11.203  17.618  0.00  0.00    +0.000 A 
ATOM     27  C   UNL     1      -2.357  10.293  17.179  0.00  0.00    +0.000 A 
ATOM     28  F   UNL     1      -2.611   9.559  16.087  0.00  0.00    +0.000 F 
ATOM     29  C   UNL     1      -1.164  10.111  17.863  0.00  0.00    +0.000 A 
ATOM     30  C   UNL     1      -0.913  10.861  19.015  0.00  0.00    +0.000 A 
ENDBRANCH  23  24
BRANCH  23  31
ATOM     31  C   UNL     1      -2.896  12.378  21.792  0.00  0.00    +0.000 C 
BRANCH  31  32
ATOM     32  N   UNL     1      -4.050  13.339  21.822  0.00  0.00    +0.000 NA
ATOM     33  C   UNL     1      -5.289  12.570  21.549  0.00  0.00    +0.000 C 
ATOM     34  C   UNL     1      -6.582  13.353  21.777  0.00  0.00    +0.000 C 
ATOM     35  C   UNL     1      -6.627  13.874  23.203  0.00  0.00    +0.000 C 
ATOM     36  C   UNL     1      -5.427  14.775  23.420  0.00  0.00    +0.000 C 
ATOM     37  C   UNL     1      -4.114  14.056  23.104  0.00  0.00    +0.000 C 
ENDBRANCH  31  32
ENDBRANCH  23  31
ENDBRANCH   9  23
TORSDOF 6
ENDMDL
MODEL 7
REMARK VINA RESULT:      -6.9      4.053      9.257
REMARK  Name = 
REMARK  6 active torsions:
REMARK  status: ('A' for Active; 'I' for Inactive)
REMARK    1  A    between atoms: N_1  and  C_2
REMARK    2  A    between atoms: N_10  and  C_11
REMARK    3  A    between atoms: C_11  and  C_12
REMARK    4  A    between atoms: C_11  and  C_19
REMARK    5  A    between atoms: C_12  and  N_13
REMARK    6  A    between atoms: C_28  and  C_29
REMARK                            x       y       z     vdW  Elec       q    Type
REMARK                         _______ _______ _______ _____ _____    ______ ____
ROOT
ATOM      1  C   UNL     1       2.519  17.020  22.419  0.00  0.00    +0.000 A 
ATOM      2  N   UNL     1       1.496  17.288  23.245  0.00  0.00    +0.000 NA
ATOM      3  C   UNL     1       0.452  16.471  23.170  0.00  0.00    +0.000 A 
ATOM      4  N   UNL     1       0.343  15.415  22.365  0.00  0.00    +0.000 NA
ATOM      5  C   UNL     1       1.374  15.150  21.529  0.00  0.00    +0.000 A 
ATOM      6  N   UNL     1       1.119  14.169  20.582  0.00  0.00    +0.000 N 
ATOM      7  C   UNL     1      -0.275  14.014  20.152  0.00  0.00    +0.000 C 
ATOM      8  C   UNL     1      -0.261  13.532  18.683  0.00  0.00    +0.000 C 
ATOM      9  N   UNL     1       0.433  12.242  18.467  0.00  0.00    +0.000 NA
ATOM     10  C   UNL     1       1.813  12.389  19.029  0.00  0.00    +0.000 C 
ATOM     11  C   UNL     1       1.914  12.937  20.486  0.00  0.00    +0.000 C 
ATOM     12  C   UNL     1       2.550  15.941  21.515  0.00  0.00    +0.000 A 
ENDROOT
BRANCH  12  13
ATOM     13  C   UNL     1       3.659  15.763  20.523  0.00  0.00    +0.000 A 
ATOM     14  C   UNL     1       3.505  16.178  19.185  0.00  0.00    +0.000 A 
ATOM     15  C   UNL     1       4.483  15.944  18.213  0.00  0.00    +0.000 A 
ATOM     16  C   UNL     1       5.693  15.392  18.591  0.00  0.00    +0.000 A 
ATOM     17  F   UNL     1       6.647  15.199  17.672  0.00  0.00    +0.000 F 
ATOM     18  C   UNL     1       5.920  15.033  19.909  0.00  0.00    +0.000 A 
ATOM     19  C   UNL     1       4.896  15.175  20.856  0.00  0.00    +0.000 A 
ENDBRANCH  12  13
BRANCH   1  20
ATOM     20  N   UNL     1       3.511  18.002  22.494  0.00  0.00    +0.000 N 
ATOM     21  H   UNL     1       3.926  17.917  23.419  0.00  0.00    +0.000 HD
ATOM     22  H   UNL     1       4.214  17.902  21.779  0.00  0.00    +0.000 HD
ENDBRANCH   1  20
BRANCH   9  23
ATOM     23  C   UNL     1      -0.311  11.055  19.009  0.00  0.00    +0.000 C 
BRANCH  23  24
ATOM     24  C   UNL     1       0.658   9.873  19.097  0.00  0.00    +0.000 A 
ATOM     25  C   UNL     1       1.258   9.390  17.919  0.00  0.00    +0.000 A 
ATOM     26  C   UNL     1       2.077   8.259  17.959  0.00  0.00    +0.000 A 
ATOM     27  C   UNL     1       2.289   7.607  19.165  0.00  0.00    +0.000 A 
ATOM     28  F   UNL     1       3.053   6.506  19.185  0.00  0.00    +0.000 F 
ATOM     29  C   UNL     1       1.706   8.057  20.340  0.00  0.00    +0.000 A 
ATOM     30  C   UNL     1       0.891   9.192  20.310  0.00  0.00    +0.000 A 
ENDBRANCH  23  24
BRANCH  23  31
ATOM     31  C   UNL     1      -1.601  10.721  18.138  0.00  0.00    +0.000 C 
BRANCH  31  32
ATOM     32  N   UNL     1      -2.769  11.661  18.041  0.00  0.00    +0.000 NA
ATOM     33  C   UNL     1      -3.708  11.114  17.031  0.00  0.00    +0.000 C 
ATOM     34  C   UNL     1      -5.062  11.820  16.979  0.00  0.00    +0.000 C 
ATOM     35  C   UNL     1      -5.724  11.774  18.345  0.00  0.00    +0.000 C 
ATOM     36  C   UNL     1      -4.813  12.465  19.340  0.00  0.00    +0.000 C 
ATOM     37  C   UNL     1      -3.412  11.849  19.350  0.00  0.00    +0.000 C 
ENDBRANCH  31  32
ENDBRANCH  23  31
ENDBRANCH   9  23
TORSDOF 6
ENDMDL
MODEL 8
REMARK VINA RESULT:      -6.9      3.986      9.186
REMARK  Name = 
REMARK  6 active torsions:
REMARK  status: ('A' for Active; 'I' for Inactive)
REMARK    1  A    between atoms: N_1  and  C_2
REMARK    2  A    between atoms: N_10  and  C_11
REMARK    3  A    between atoms: C_11  and  C_12
REMARK    4  A    between atoms: C_11  and  C_19
REMARK    5  A    between atoms: C_12  and  N_13
REMARK    6  A    between atoms: C_28  and  C_29
REMARK                            x       y       z     vdW  Elec       q    Type
REMARK                         _______ _______ _______ _____ _____    ______ ____
ROOT
ATOM      1  C   UNL     1       2.588  17.426  21.539  0.00  0.00    +0.000 A 
ATOM      2  N   UNL     1       1.550  17.862  22.268  0.00  0.00    +0.000 NA
ATOM      3  C   UNL     1       0.474  17.083  22.281  0.00  0.00    +0.000 A 
ATOM      4  N   UNL     1       0.349  15.915  21.653  0.00  0.00    +0.000 NA
ATOM      5  C   UNL     1       1.396  15.480  20.915  0.00  0.00    +0.000 A 
ATOM      6  N   UNL     1       1.133  14.367  20.128  0.00  0.00    +0.000 N 
ATOM      7  C   UNL     1      -0.251  14.196  19.671  0.00  0.00    +0.000 C 
ATOM      8  C   UNL     1      -0.205  13.482  18.301  0.00  0.00    +0.000 C 
ATOM      9  N   UNL     1       0.440  12.149  18.325  0.00  0.00    +0.000 NA
ATOM     10  C   UNL     1       1.804  12.335  18.913  0.00  0.00    +0.000 C 
ATOM     11  C   UNL     1       1.876  13.108  20.265  0.00  0.00    +0.000 C 
ATOM     12  C   UNL     1       2.605  16.214  20.823  0.00  0.00    +0.000 A 
ENDROOT
BRANCH  12  13
ATOM     13  C   UNL     1       3.739  15.836  19.920  0.00  0.00    +0.000 A 
ATOM     14  C   UNL     1       3.616  15.943  18.521  0.00  0.00    +0.000 A 
ATOM     15  C   UNL     1       4.620  15.513  17.647  0.00  0.00    +0.000 A 
ATOM     16  C   UNL     1       5.824  15.075  18.164  0.00  0.00    +0.000 A 
ATOM     17  F   UNL     1       6.803  14.697  17.333  0.00  0.00    +0.000 F 
ATOM     18  C   UNL     1       6.022  15.019  19.534  0.00  0.00    +0.000 A 
ATOM     19  C   UNL     1       4.973  15.353  20.402  0.00  0.00    +0.000 A 
ENDBRANCH  12  13
BRANCH   1  20
ATOM     20  N   UNL     1       3.619  18.369  21.497  0.00  0.00    +0.000 N 
ATOM     21  H   UNL     1       4.270  18.048  20.785  0.00  0.00    +0.000 HD
ATOM     22  H   UNL     1       3.289  19.298  21.284  0.00  0.00    +0.000 HD
ENDBRANCH   1  20
BRANCH   9  23
ATOM     23  C   UNL     1      -0.374  11.094  19.019  0.00  0.00    +0.000 C 
BRANCH  23  24
ATOM     24  C   UNL     1       0.487   9.837  19.169  0.00  0.00    +0.000 A 
ATOM     25  C   UNL     1       0.653   9.268  20.445  0.00  0.00    +0.000 A 
ATOM     26  C   UNL     1       1.502   8.173  20.623  0.00  0.00    +0.000 A 
ATOM     27  C   UNL     1       2.190   7.654  19.536  0.00  0.00    +0.000 A 
ATOM     28  F   UNL     1       3.024   6.623  19.724  0.00  0.00    +0.000 F 
ATOM     29  C   UNL     1       2.050   8.198  18.268  0.00  0.00    +0.000 A 
ATOM     30  C   UNL     1       1.197   9.289  18.080  0.00  0.00    +0.000 A 
ENDBRANCH  23  24
BRANCH  23  31
ATOM     31  C   UNL     1      -1.741  10.809  18.256  0.00  0.00    +0.000 C 
BRANCH  31  32
ATOM     32  N   UNL     1      -2.892  11.774  18.281  0.00  0.00    +0.000 NA
ATOM     33  C   UNL     1      -3.997  11.183  17.487  0.00  0.00    +0.000 C 
ATOM     34  C   UNL     1      -5.328  11.925  17.606  0.00  0.00    +0.000 C 
ATOM     35  C   UNL     1      -5.751  12.000  19.062  0.00  0.00    +0.000 C 
ATOM     36  C   UNL     1      -4.674  12.733  19.836  0.00  0.00    +0.000 C 
ATOM     37  C   UNL     1      -3.302  12.077  19.660  0.00  0.00    +0.000 C 
ENDBRANCH  31  32
ENDBRANCH  23  31
ENDBRANCH   9  23
TORSDOF 6
ENDMDL
MODEL 9
REMARK VINA RESULT:      -6.9      5.820      8.288
REMARK  Name = 
REMARK  6 active torsions:
REMARK  status: ('A' for Active; 'I' for Inactive)
REMARK    1  A    between atoms: N_1  and  C_2
REMARK    2  A    between atoms: N_10  and  C_11
REMARK    3  A    between atoms: C_11  and  C_12
REMARK    4  A    between atoms: C_11  and  C_19
REMARK    5  A    between atoms: C_12  and  N_13
REMARK    6  A    between atoms: C_28  and  C_29
REMARK                            x       y       z     vdW  Elec       q    Type
REMARK                         _______ _______ _______ _____ _____    ______ ____
ROOT
ATOM      1  C   UNL     1      -5.362  11.865  20.162  0.00  0.00    +0.000 A 
ATOM      2  N   UNL     1      -5.736  12.258  21.389  0.00  0.00    +0.000 NA
ATOM      3  C   UNL     1      -4.804  12.860  22.121  0.00  0.00    +0.000 A 
ATOM      4  N   UNL     1      -3.555  13.116  21.737  0.00  0.00    +0.000 NA
ATOM      5  C   UNL     1      -3.180  12.714  20.501  0.00  0.00    +0.000 A 
ATOM      6  N   UNL     1      -1.821  12.826  20.238  0.00  0.00    +0.000 N 
ATOM      7  C   UNL     1      -0.917  12.713  21.389  0.00  0.00    +0.000 C 
ATOM      8  C   UNL     1       0.406  12.094  20.883  0.00  0.00    +0.000 C 
ATOM      9  N   UNL     1       1.091  12.883  19.834  0.00  0.00    +0.000 NA
ATOM     10  C   UNL     1       0.104  13.089  18.728  0.00  0.00    +0.000 C 
ATOM     11  C   UNL     1      -1.293  13.646  19.142  0.00  0.00    +0.000 C 
ATOM     12  C   UNL     1      -4.079  12.066  19.617  0.00  0.00    +0.000 A 
ENDROOT
BRANCH  12  13
ATOM     13  C   UNL     1      -3.675  11.493  18.294  0.00  0.00    +0.000 A 
ATOM     14  C   UNL     1      -2.604  10.582  18.197  0.00  0.00    +0.000 A 
ATOM     15  C   UNL     1      -2.143  10.099  16.969  0.00  0.00    +0.000 A 
ATOM     16  C   UNL     1      -2.825  10.429  15.813  0.00  0.00    +0.000 A 
ATOM     17  F   UNL     1      -2.411   9.940  14.638  0.00  0.00    +0.000 F 
ATOM     18  C   UNL     1      -3.930  11.264  15.863  0.00  0.00    +0.000 A 
ATOM     19  C   UNL     1      -4.321  11.826  17.086  0.00  0.00    +0.000 A 
ENDBRANCH  12  13
BRANCH   1  20
ATOM     20  N   UNL     1      -6.374  11.142  19.524  0.00  0.00    +0.000 N 
ATOM     21  H   UNL     1      -5.967  10.245  19.270  0.00  0.00    +0.000 HD
ATOM     22  H   UNL     1      -7.187  11.012  20.105  0.00  0.00    +0.000 HD
ENDBRANCH   1  20
BRANCH   9  23
ATOM     23  C   UNL     1       1.704  14.159  20.338  0.00  0.00    +0.000 C 
BRANCH  23  24
ATOM     24  C   UNL     1       1.998  15.063  19.138  0.00  0.00    +0.000 A 
ATOM     25  C   UNL     1       3.071  14.743  18.285  0.00  0.00    +0.000 A 
ATOM     26  C   UNL     1       3.415  15.598  17.235  0.00  0.00    +0.000 A 
ATOM     27  C   UNL     1       2.699  16.770  17.041  0.00  0.00    +0.000 A 
ATOM     28  F   UNL     1       3.057  17.596  16.049  0.00  0.00    +0.000 F 
ATOM     29  C   UNL     1       1.640  17.113  17.869  0.00  0.00    +0.000 A 
ATOM     30  C   UNL     1       1.285  16.260  18.917  0.00  0.00    +0.000 A 
ENDBRANCH  23  24
BRANCH  23  31
ATOM     31  C   UNL     1       2.997  13.882  21.222  0.00  0.00    +0.000 C 
BRANCH  31  32
ATOM     32  N   UNL     1       3.281  14.638  22.489  0.00  0.00    +0.000 NA
ATOM     33  C   UNL     1       4.749  14.631  22.702  0.00  0.00    +0.000 C 
ATOM     34  C   UNL     1       5.230  15.559  23.818  0.00  0.00    +0.000 C 
ATOM     35  C   UNL     1       4.778  16.982  23.540  0.00  0.00    +0.000 C 
ATOM     36  C   UNL     1       3.263  16.995  23.467  0.00  0.00    +0.000 C 
ATOM     37  C   UNL     1       2.737  16.003  22.428  0.00  0.00    +0.000 C 
ENDBRANCH  31  32
ENDBRANCH  23  31
ENDBRANCH   9  23
TORSDOF 6
ENDMDL
