MODEL 1
REMARK VINA RESULT:      -8.2      0.000      0.000
REMARK  Name = 
REMARK  9 active torsions:
REMARK  status: ('A' for Active; 'I' for Inactive)
REMARK    1  A    between atoms: C_1  and  C_2
REMARK    2  A    between atoms: C_2  and  C_3
REMARK    3  A    between atoms: N_5  and  C_6
REMARK    4  A    between atoms: C_6  and  C_7
REMARK    5  A    between atoms: C_6  and  C_16
REMARK    6  A    between atoms: C_10  and  N_11
REMARK    7  A    between atoms: N_11  and  C_12
REMARK    8  A    between atoms: N_11  and  C_13
REMARK    9  A    between atoms: C_25  and  O_26
REMARK                            x       y       z     vdW  Elec       q    Type
REMARK                         _______ _______ _______ _____ _____    ______ ____
ROOT
ATOM      1  C   UNL     1       2.984   5.919  19.138  0.00  0.00    +0.000 C 
ENDROOT
BRANCH   1   2
ATOM      2  C   UNL     1       2.353   7.304  19.084  0.00  0.00    +0.000 A 
ATOM      3  C   UNL     1       2.258   7.934  17.831  0.00  0.00    +0.000 A 
ATOM      4  C   UNL     1       1.530   9.113  17.671  0.00  0.00    +0.000 A 
ATOM      5  C   UNL     1       0.891   9.696  18.774  0.00  0.00    +0.000 A 
ATOM      6  C   UNL     1       0.011  10.774  18.628  0.00  0.00    +0.000 A 
ATOM      7  C   UNL     1      -0.602  11.319  19.749  0.00  0.00    +0.000 A 
ATOM      8  C   UNL     1      -0.260  10.810  20.987  0.00  0.00    +0.000 A 
ATOM      9  N   UNL     1       0.544   9.739  21.167  0.00  0.00    +0.000 NA
ATOM     10  C   UNL     1       1.073   9.168  20.062  0.00  0.00    +0.000 A 
ATOM     11  C   UNL     1       1.771   7.962  20.182  0.00  0.00    +0.000 A 
BRANCH  11  12
ATOM     12  O   UNL     1       1.804   7.382  21.435  0.00  0.00    +0.000 OA
ATOM     13  H   UNL     1       1.611   6.434  21.252  0.00  0.00    +0.000 HD
ENDBRANCH  11  12
ENDBRANCH   1   2
BRANCH   1  14
ATOM     14  C   UNL     1       3.855   5.631  17.916  0.00  0.00    +0.000 A 
ATOM     15  C   UNL     1       4.756   6.568  17.417  0.00  0.00    +0.000 A 
ATOM     16  C   UNL     1       5.544   6.284  16.286  0.00  0.00    +0.000 A 
ATOM     17  C   UNL     1       5.484   5.047  15.615  0.00  0.00    +0.000 A 
ATOM     18  C   UNL     1       4.575   4.119  16.141  0.00  0.00    +0.000 A 
ATOM     19  C   UNL     1       3.773   4.401  17.263  0.00  0.00    +0.000 A 
BRANCH  17  20
ATOM     20  N   UNL     1       6.242   4.801  14.477  0.00  0.00    +0.000 N 
ATOM     21  C   UNL     1       7.626   5.263  14.381  0.00  0.00    +0.000 C 
ATOM     22  C   UNL     1       5.885   3.765  13.508  0.00  0.00    +0.000 C 
ENDBRANCH  17  20
ENDBRANCH   1  14
BRANCH   1  25
ATOM     23  C   UNL     1       1.873   4.218  20.552  0.00  0.00    +0.000 C 
ATOM     24  O   UNL     1       2.463   4.553  21.566  0.00  0.00    +0.000 OA
ATOM     25  N   UNL     1       2.019   4.859  19.343  0.00  0.00    +0.000 N 
ATOM     26  H   UNL     1       1.560   4.507  18.508  0.00  0.00    +0.000 HD
BRANCH  23  28
ATOM     27  C   UNL     1       0.701   2.539  19.091  0.00  0.00    +0.000 C 
ATOM     28  C   UNL     1       0.862   3.093  20.495  0.00  0.00    +0.000 C 
ENDBRANCH  23  28
ENDBRANCH   1  25
TORSDOF 6
ENDMDL
MODEL 2
REMARK VINA RESULT:      -8.1      0.128      1.162
REMARK  Name = 
REMARK  9 active torsions:
REMARK  status: ('A' for Active; 'I' for Inactive)
REMARK    1  A    between atoms: C_1  and  C_2
REMARK    2  A    between atoms: C_2  and  C_3
REMARK    3  A    between atoms: N_5  and  C_6
REMARK    4  A    between atoms: C_6  and  C_7
REMARK    5  A    between atoms: C_6  and  C_16
REMARK    6  A    between atoms: C_10  and  N_11
REMARK    7  A    between atoms: N_11  and  C_12
REMARK    8  A    between atoms: N_11  and  C_13
REMARK    9  A    between atoms: C_25  and  O_26
REMARK                            x       y       z     vdW  Elec       q    Type
REMARK                         _______ _______ _______ _____ _____    ______ ____
ROOT
ATOM      1  C   UNL     1       3.011   5.820  19.151  0.00  0.00    +0.000 C 
ENDROOT
BRANCH   1   2
ATOM      2  C   UNL     1       2.410   7.218  19.077  0.00  0.00    +0.000 A 
ATOM      3  C   UNL     1       2.358   7.845  17.821  0.00  0.00    +0.000 A 
ATOM      4  C   UNL     1       1.659   9.039  17.640  0.00  0.00    +0.000 A 
ATOM      5  C   UNL     1       1.005   9.638  18.724  0.00  0.00    +0.000 A 
ATOM      6  C   UNL     1       0.151  10.733  18.554  0.00  0.00    +0.000 A 
ATOM      7  C   UNL     1      -0.479  11.294  19.658  0.00  0.00    +0.000 A 
ATOM      8  C   UNL     1      -0.178  10.782  20.906  0.00  0.00    +0.000 A 
ATOM      9  N   UNL     1       0.600   9.696  21.109  0.00  0.00    +0.000 NA
ATOM     10  C   UNL     1       1.145   9.111  20.019  0.00  0.00    +0.000 A 
ATOM     11  C   UNL     1       1.814   7.891  20.159  0.00  0.00    +0.000 A 
BRANCH  11  12
ATOM     12  O   UNL     1       1.805   7.314  21.414  0.00  0.00    +0.000 OA
ATOM     13  H   UNL     1       2.328   6.490  21.289  0.00  0.00    +0.000 HD
ENDBRANCH  11  12
ENDBRANCH   1   2
BRANCH   1  14
ATOM     14  C   UNL     1       3.884   5.501  17.938  0.00  0.00    +0.000 A 
ATOM     15  C   UNL     1       3.768   4.301  17.242  0.00  0.00    +0.000 A 
ATOM     16  C   UNL     1       4.589   4.026  16.132  0.00  0.00    +0.000 A 
ATOM     17  C   UNL     1       5.545   4.942  15.653  0.00  0.00    +0.000 A 
ATOM     18  C   UNL     1       5.637   6.145  16.367  0.00  0.00    +0.000 A 
ATOM     19  C   UNL     1       4.831   6.422  17.487  0.00  0.00    +0.000 A 
BRANCH  17  20
ATOM     20  N   UNL     1       6.370   4.635  14.580  0.00  0.00    +0.000 N 
ATOM     21  C   UNL     1       5.888   3.815  13.469  0.00  0.00    +0.000 C 
ATOM     22  C   UNL     1       7.583   5.398  14.281  0.00  0.00    +0.000 C 
ENDBRANCH  17  20
ENDBRANCH   1  14
BRANCH   1  25
ATOM     23  C   UNL     1       1.880   4.132  20.565  0.00  0.00    +0.000 C 
ATOM     24  O   UNL     1       2.496   4.440  21.572  0.00  0.00    +0.000 OA
ATOM     25  N   UNL     1       2.022   4.784  19.360  0.00  0.00    +0.000 N 
ATOM     26  H   UNL     1       1.540   4.453  18.529  0.00  0.00    +0.000 HD
BRANCH  23  28
ATOM     27  C   UNL     1       0.655   2.488  19.108  0.00  0.00    +0.000 C 
ATOM     28  C   UNL     1       0.839   3.035  20.513  0.00  0.00    +0.000 C 
ENDBRANCH  23  28
ENDBRANCH   1  25
TORSDOF 6
ENDMDL
MODEL 3
REMARK VINA RESULT:      -7.9      1.504      2.159
REMARK  Name = 
REMARK  9 active torsions:
REMARK  status: ('A' for Active; 'I' for Inactive)
REMARK    1  A    between atoms: C_1  and  C_2
REMARK    2  A    between atoms: C_2  and  C_3
REMARK    3  A    between atoms: N_5  and  C_6
REMARK    4  A    between atoms: C_6  and  C_7
REMARK    5  A    between atoms: C_6  and  C_16
REMARK    6  A    between atoms: C_10  and  N_11
REMARK    7  A    between atoms: N_11  and  C_12
REMARK    8  A    between atoms: N_11  and  C_13
REMARK    9  A    between atoms: C_25  and  O_26
REMARK                            x       y       z     vdW  Elec       q    Type
REMARK                         _______ _______ _______ _____ _____    ______ ____
ROOT
ATOM      1  C   UNL     1       4.296   4.900  18.409  0.00  0.00    +0.000 C 
ENDROOT
BRANCH   1   2
ATOM      2  C   UNL     1       3.584   6.234  18.596  0.00  0.00    +0.000 A 
ATOM      3  C   UNL     1       3.651   7.167  17.548  0.00  0.00    +0.000 A 
ATOM      4  C   UNL     1       2.877   8.327  17.565  0.00  0.00    +0.000 A 
ATOM      5  C   UNL     1       2.024   8.583  18.647  0.00  0.00    +0.000 A 
ATOM      6  C   UNL     1       1.104   9.637  18.626  0.00  0.00    +0.000 A 
ATOM      7  C   UNL     1       0.277   9.852  19.720  0.00  0.00    +0.000 A 
ATOM      8  C   UNL     1       0.446   9.046  20.829  0.00  0.00    +0.000 A 
ATOM      9  N   UNL     1       1.285   7.987  20.873  0.00  0.00    +0.000 NA
ATOM     10  C   UNL     1       2.029   7.741  19.771  0.00  0.00    +0.000 A 
ATOM     11  C   UNL     1       2.783   6.564  19.704  0.00  0.00    +0.000 A 
BRANCH  11  12
ATOM     12  O   UNL     1       2.651   5.677  20.754  0.00  0.00    +0.000 OA
ATOM     13  H   UNL     1       2.376   6.253  21.504  0.00  0.00    +0.000 HD
ENDBRANCH  11  12
ENDBRANCH   1   2
BRANCH   1  14
ATOM     14  C   UNL     1       5.050   4.828  17.082  0.00  0.00    +0.000 A 
ATOM     15  C   UNL     1       4.463   4.313  15.929  0.00  0.00    +0.000 A 
ATOM     16  C   UNL     1       5.179   4.249  14.719  0.00  0.00    +0.000 A 
ATOM     17  C   UNL     1       6.502   4.716  14.598  0.00  0.00    +0.000 A 
ATOM     18  C   UNL     1       7.067   5.236  15.771  0.00  0.00    +0.000 A 
ATOM     19  C   UNL     1       6.364   5.288  16.989  0.00  0.00    +0.000 A 
BRANCH  17  20
ATOM     20  N   UNL     1       7.204   4.609  13.404  0.00  0.00    +0.000 N 
ATOM     21  C   UNL     1       6.729   3.740  12.328  0.00  0.00    +0.000 C 
ATOM     22  C   UNL     1       8.188   5.606  12.982  0.00  0.00    +0.000 C 
ENDBRANCH  17  20
ENDBRANCH   1  14
BRANCH   1  25
ATOM     23  C   UNL     1       3.783   2.646  19.293  0.00  0.00    +0.000 C 
ATOM     24  O   UNL     1       4.814   2.573  19.940  0.00  0.00    +0.000 OA
ATOM     25  N   UNL     1       3.421   3.758  18.567  0.00  0.00    +0.000 N 
ATOM     26  H   UNL     1       2.586   3.753  17.989  0.00  0.00    +0.000 HD
BRANCH  23  28
ATOM     27  C   UNL     1       1.348   2.103  18.970  0.00  0.00    +0.000 C 
ATOM     28  C   UNL     1       2.737   1.553  19.243  0.00  0.00    +0.000 C 
ENDBRANCH  23  28
ENDBRANCH   1  25
TORSDOF 6
ENDMDL
MODEL 4
REMARK VINA RESULT:      -7.8      1.123      1.355
REMARK  Name = 
REMARK  9 active torsions:
REMARK  status: ('A' for Active; 'I' for Inactive)
REMARK    1  A    between atoms: C_1  and  C_2
REMARK    2  A    between atoms: C_2  and  C_3
REMARK    3  A    between atoms: N_5  and  C_6
REMARK    4  A    between atoms: C_6  and  C_7
REMARK    5  A    between atoms: C_6  and  C_16
REMARK    6  A    between atoms: C_10  and  N_11
REMARK    7  A    between atoms: N_11  and  C_12
REMARK    8  A    between atoms: N_11  and  C_13
REMARK    9  A    between atoms: C_25  and  O_26
REMARK                            x       y       z     vdW  Elec       q    Type
REMARK                         _______ _______ _______ _____ _____    ______ ____
ROOT
ATOM      1  C   UNL     1       3.695   5.295  18.861  0.00  0.00    +0.000 C 
ENDROOT
BRANCH   1   2
ATOM      2  C   UNL     1       3.032   6.666  18.894  0.00  0.00    +0.000 A 
ATOM      3  C   UNL     1       3.142   7.476  17.751  0.00  0.00    +0.000 A 
ATOM      4  C   UNL     1       2.411   8.658  17.633  0.00  0.00    +0.000 A 
ATOM      5  C   UNL     1       1.560   9.062  18.671  0.00  0.00    +0.000 A 
ATOM      6  C   UNL     1       0.680  10.139  18.524  0.00  0.00    +0.000 A 
ATOM      7  C   UNL     1      -0.148  10.503  19.578  0.00  0.00    +0.000 A 
ATOM      8  C   UNL     1      -0.018   9.816  20.771  0.00  0.00    +0.000 A 
ATOM      9  N   UNL     1       0.782   8.739  20.938  0.00  0.00    +0.000 NA
ATOM     10  C   UNL     1       1.525   8.347  19.879  0.00  0.00    +0.000 A 
ATOM     11  C   UNL     1       2.234   7.144  19.949  0.00  0.00    +0.000 A 
BRANCH  11  12
ATOM     12  O   UNL     1       2.062   6.382  21.088  0.00  0.00    +0.000 OA
ATOM     13  H   UNL     1       1.233   6.743  21.479  0.00  0.00    +0.000 HD
ENDBRANCH  11  12
ENDBRANCH   1   2
BRANCH   1  14
ATOM     14  C   UNL     1       4.514   5.079  17.590  0.00  0.00    +0.000 A 
ATOM     15  C   UNL     1       5.744   5.700  17.392  0.00  0.00    +0.000 A 
ATOM     16  C   UNL     1       6.479   5.492  16.209  0.00  0.00    +0.000 A 
ATOM     17  C   UNL     1       6.030   4.639  15.182  0.00  0.00    +0.000 A 
ATOM     18  C   UNL     1       4.794   4.021  15.408  0.00  0.00    +0.000 A 
ATOM     19  C   UNL     1       4.045   4.236  16.581  0.00  0.00    +0.000 A 
BRANCH  17  20
ATOM     20  N   UNL     1       6.753   4.477  14.006  0.00  0.00    +0.000 N 
ATOM     21  C   UNL     1       6.258   3.618  12.931  0.00  0.00    +0.000 C 
ATOM     22  C   UNL     1       7.797   5.416  13.594  0.00  0.00    +0.000 C 
ENDBRANCH  17  20
ENDBRANCH   1  14
BRANCH   1  25
ATOM     23  C   UNL     1       3.138   3.016  19.649  0.00  0.00    +0.000 C 
ATOM     24  O   UNL     1       4.242   2.821  20.130  0.00  0.00    +0.000 OA
ATOM     25  N   UNL     1       2.764   4.205  19.065  0.00  0.00    +0.000 N 
ATOM     26  H   UNL     1       1.858   4.304  18.617  0.00  0.00    +0.000 HD
BRANCH  23  28
ATOM     27  C   UNL     1       0.842   2.426  18.806  0.00  0.00    +0.000 C 
ATOM     28  C   UNL     1       2.013   2.003  19.676  0.00  0.00    +0.000 C 
ENDBRANCH  23  28
ENDBRANCH   1  25
TORSDOF 6
ENDMDL
MODEL 5
REMARK VINA RESULT:      -7.7      3.486      6.184
REMARK  Name = 
REMARK  9 active torsions:
REMARK  status: ('A' for Active; 'I' for Inactive)
REMARK    1  A    between atoms: C_1  and  C_2
REMARK    2  A    between atoms: C_2  and  C_3
REMARK    3  A    between atoms: N_5  and  C_6
REMARK    4  A    between atoms: C_6  and  C_7
REMARK    5  A    between atoms: C_6  and  C_16
REMARK    6  A    between atoms: C_10  and  N_11
REMARK    7  A    between atoms: N_11  and  C_12
REMARK    8  A    between atoms: N_11  and  C_13
REMARK    9  A    between atoms: C_25  and  O_26
REMARK                            x       y       z     vdW  Elec       q    Type
REMARK                         _______ _______ _______ _____ _____    ______ ____
ROOT
ATOM      1  C   UNL     1       6.197   5.473  17.424  0.00  0.00    +0.000 C 
ENDROOT
BRANCH   1   2
ATOM      2  C   UNL     1       4.970   5.294  18.309  0.00  0.00    +0.000 A 
ATOM      3  C   UNL     1       3.989   6.300  18.284  0.00  0.00    +0.000 A 
ATOM      4  C   UNL     1       2.760   6.124  18.918  0.00  0.00    +0.000 A 
ATOM      5  C   UNL     1       2.492   4.932  19.606  0.00  0.00    +0.000 A 
ATOM      6  C   UNL     1       1.216   4.641  20.103  0.00  0.00    +0.000 A 
ATOM      7  C   UNL     1       0.995   3.447  20.776  0.00  0.00    +0.000 A 
ATOM      8  C   UNL     1       2.077   2.613  20.990  0.00  0.00    +0.000 A 
ATOM      9  N   UNL     1       3.311   2.832  20.484  0.00  0.00    +0.000 NA
ATOM     10  C   UNL     1       3.494   3.961  19.763  0.00  0.00    +0.000 A 
ATOM     11  C   UNL     1       4.699   4.148  19.079  0.00  0.00    +0.000 A 
BRANCH  11  12
ATOM     12  O   UNL     1       5.609   3.110  19.121  0.00  0.00    +0.000 OA
ATOM     13  H   UNL     1       6.366   3.451  18.592  0.00  0.00    +0.000 HD
ENDBRANCH  11  12
ENDBRANCH   1   2
BRANCH   1  14
ATOM     14  C   UNL     1       7.000   6.719  17.794  0.00  0.00    +0.000 A 
ATOM     15  C   UNL     1       6.816   7.934  17.140  0.00  0.00    +0.000 A 
ATOM     16  C   UNL     1       7.573   9.068  17.493  0.00  0.00    +0.000 A 
ATOM     17  C   UNL     1       8.529   9.046  18.527  0.00  0.00    +0.000 A 
ATOM     18  C   UNL     1       8.690   7.814  19.173  0.00  0.00    +0.000 A 
ATOM     19  C   UNL     1       7.949   6.671  18.816  0.00  0.00    +0.000 A 
BRANCH  17  20
ATOM     20  N   UNL     1       9.292  10.166  18.833  0.00  0.00    +0.000 N 
ATOM     21  C   UNL     1       9.601  11.168  17.814  0.00  0.00    +0.000 C 
ATOM     22  C   UNL     1       9.490  10.626  20.208  0.00  0.00    +0.000 C 
ENDBRANCH  17  20
ENDBRANCH   1  14
BRANCH   1  25
ATOM     23  C   UNL     1       5.757   4.292  15.294  0.00  0.00    +0.000 C 
ATOM     24  O   UNL     1       5.788   3.184  15.804  0.00  0.00    +0.000 OA
ATOM     25  N   UNL     1       5.888   5.460  16.010  0.00  0.00    +0.000 N 
ATOM     26  H   UNL     1       5.924   6.359  15.538  0.00  0.00    +0.000 HD
BRANCH  23  28
ATOM     27  C   UNL     1       6.244   3.529  12.947  0.00  0.00    +0.000 C 
ATOM     28  C   UNL     1       5.517   4.537  13.820  0.00  0.00    +0.000 C 
ENDBRANCH  23  28
ENDBRANCH   1  25
TORSDOF 6
ENDMDL
MODEL 6
REMARK VINA RESULT:      -7.7      3.623      6.388
REMARK  Name = 
REMARK  9 active torsions:
REMARK  status: ('A' for Active; 'I' for Inactive)
REMARK    1  A    between atoms: C_1  and  C_2
REMARK    2  A    between atoms: C_2  and  C_3
REMARK    3  A    between atoms: N_5  and  C_6
REMARK    4  A    between atoms: C_6  and  C_7
REMARK    5  A    between atoms: C_6  and  C_16
REMARK    6  A    between atoms: C_10  and  N_11
REMARK    7  A    between atoms: N_11  and  C_12
REMARK    8  A    between atoms: N_11  and  C_13
REMARK    9  A    between atoms: C_25  and  O_26
REMARK                            x       y       z     vdW  Elec       q    Type
REMARK                         _______ _______ _______ _____ _____    ______ ____
ROOT
ATOM      1  C   UNL     1       6.554   5.606  17.173  0.00  0.00    +0.000 C 
ENDROOT
BRANCH   1   2
ATOM      2  C   UNL     1       5.212   5.402  17.865  0.00  0.00    +0.000 A 
ATOM      3  C   UNL     1       4.174   6.299  17.561  0.00  0.00    +0.000 A 
ATOM      4  C   UNL     1       2.872   6.072  18.006  0.00  0.00    +0.000 A 
ATOM      5  C   UNL     1       2.585   4.940  18.780  0.00  0.00    +0.000 A 
ATOM      6  C   UNL     1       1.271   4.579  19.098  0.00  0.00    +0.000 A 
ATOM      7  C   UNL     1       1.032   3.447  19.866  0.00  0.00    +0.000 A 
ATOM      8  C   UNL     1       2.124   2.751  20.350  0.00  0.00    +0.000 A 
ATOM      9  N   UNL     1       3.405   3.035  20.026  0.00  0.00    +0.000 NA
ATOM     10  C   UNL     1       3.619   4.093  19.213  0.00  0.00    +0.000 A 
ATOM     11  C   UNL     1       4.905   4.324  18.714  0.00  0.00    +0.000 A 
BRANCH  11  12
ATOM     12  O   UNL     1       5.873   3.390  19.027  0.00  0.00    +0.000 OA
ATOM     13  H   UNL     1       5.865   3.377  20.011  0.00  0.00    +0.000 HD
ENDBRANCH  11  12
ENDBRANCH   1   2
BRANCH   1  14
ATOM     14  C   UNL     1       7.276   6.858  17.669  0.00  0.00    +0.000 A 
ATOM     15  C   UNL     1       8.139   6.828  18.760  0.00  0.00    +0.000 A 
ATOM     16  C   UNL     1       8.788   7.996  19.203  0.00  0.00    +0.000 A 
ATOM     17  C   UNL     1       8.622   9.241  18.565  0.00  0.00    +0.000 A 
ATOM     18  C   UNL     1       7.754   9.243  17.465  0.00  0.00    +0.000 A 
ATOM     19  C   UNL     1       7.089   8.083  17.025  0.00  0.00    +0.000 A 
BRANCH  17  20
ATOM     20  N   UNL     1       9.241  10.389  19.042  0.00  0.00    +0.000 N 
ATOM     21  C   UNL     1       9.493  11.529  18.162  0.00  0.00    +0.000 C 
ATOM     22  C   UNL     1       9.316  10.703  20.469  0.00  0.00    +0.000 C 
ENDBRANCH  17  20
ENDBRANCH   1  14
BRANCH   1  25
ATOM     23  C   UNL     1       6.352   4.441  14.999  0.00  0.00    +0.000 C 
ATOM     24  O   UNL     1       6.226   3.339  15.505  0.00  0.00    +0.000 OA
ATOM     25  N   UNL     1       6.459   5.604  15.729  0.00  0.00    +0.000 N 
ATOM     26  H   UNL     1       6.629   6.494  15.270  0.00  0.00    +0.000 HD
BRANCH  23  28
ATOM     27  C   UNL     1       5.955   3.454  12.720  0.00  0.00    +0.000 C 
ATOM     28  C   UNL     1       6.351   4.691  13.506  0.00  0.00    +0.000 C 
ENDBRANCH  23  28
ENDBRANCH   1  25
TORSDOF 6
ENDMDL
MODEL 7
REMARK VINA RESULT:      -7.6      3.540      6.275
REMARK  Name = 
REMARK  9 active torsions:
REMARK  status: ('A' for Active; 'I' for Inactive)
REMARK    1  A    between atoms: C_1  and  C_2
REMARK    2  A    between atoms: C_2  and  C_3
REMARK    3  A    between atoms: N_5  and  C_6
REMARK    4  A    between atoms: C_6  and  C_7
REMARK    5  A    between atoms: C_6  and  C_16
REMARK    6  A    between atoms: C_10  and  N_11
REMARK    7  A    between atoms: N_11  and  C_12
REMARK    8  A    between atoms: N_11  and  C_13
REMARK    9  A    between atoms: C_25  and  O_26
REMARK                            x       y       z     vdW  Elec       q    Type
REMARK                         _______ _______ _______ _____ _____    ______ ____
ROOT
ATOM      1  C   UNL     1       6.122   5.313  17.457  0.00  0.00    +0.000 C 
ENDROOT
BRANCH   1   2
ATOM      2  C   UNL     1       4.884   5.149  18.330  0.00  0.00    +0.000 A 
ATOM      3  C   UNL     1       3.889   6.138  18.251  0.00  0.00    +0.000 A 
ATOM      4  C   UNL     1       2.652   5.967  18.872  0.00  0.00    +0.000 A 
ATOM      5  C   UNL     1       2.391   4.799  19.602  0.00  0.00    +0.000 A 
ATOM      6  C   UNL     1       1.113   4.507  20.091  0.00  0.00    +0.000 A 
ATOM      7  C   UNL     1       0.900   3.337  20.807  0.00  0.00    +0.000 A 
ATOM      8  C   UNL     1       1.991   2.530  21.070  0.00  0.00    +0.000 A 
ATOM      9  N   UNL     1       3.229   2.749  20.575  0.00  0.00    +0.000 NA
ATOM     10  C   UNL     1       3.406   3.851  19.812  0.00  0.00    +0.000 A 
ATOM     11  C   UNL     1       4.619   4.031  19.140  0.00  0.00    +0.000 A 
BRANCH  11  12
ATOM     12  O   UNL     1       5.544   3.010  19.237  0.00  0.00    +0.000 OA
ATOM     13  H   UNL     1       5.825   2.869  18.305  0.00  0.00    +0.000 HD
ENDBRANCH  11  12
ENDBRANCH   1   2
BRANCH   1  14
ATOM     14  C   UNL     1       6.906   6.580  17.798  0.00  0.00    +0.000 A 
ATOM     15  C   UNL     1       7.920   6.585  18.751  0.00  0.00    +0.000 A 
ATOM     16  C   UNL     1       8.624   7.766  19.054  0.00  0.00    +0.000 A 
ATOM     17  C   UNL     1       8.364   8.988  18.404  0.00  0.00    +0.000 A 
ATOM     18  C   UNL     1       7.344   8.955  17.444  0.00  0.00    +0.000 A 
ATOM     19  C   UNL     1       6.625   7.782  17.147  0.00  0.00    +0.000 A 
BRANCH  17  20
ATOM     20  N   UNL     1       9.044  10.150  18.745  0.00  0.00    +0.000 N 
ATOM     21  C   UNL     1       9.314  10.482  20.143  0.00  0.00    +0.000 C 
ATOM     22  C   UNL     1       9.864  10.887  17.783  0.00  0.00    +0.000 C 
ENDBRANCH  17  20
ENDBRANCH   1  14
BRANCH   1  25
ATOM     23  C   UNL     1       6.781   4.884  15.111  0.00  0.00    +0.000 C 
ATOM     24  O   UNL     1       7.896   4.486  15.408  0.00  0.00    +0.000 OA
ATOM     25  N   UNL     1       5.834   5.251  16.040  0.00  0.00    +0.000 N 
ATOM     26  H   UNL     1       4.942   5.640  15.749  0.00  0.00    +0.000 HD
BRANCH  23  28
ATOM     27  C   UNL     1       5.850   3.621  13.145  0.00  0.00    +0.000 C 
ATOM     28  C   UNL     1       6.268   4.975  13.690  0.00  0.00    +0.000 C 
ENDBRANCH  23  28
ENDBRANCH   1  25
TORSDOF 6
ENDMDL
MODEL 8
REMARK VINA RESULT:      -7.6      0.959      1.340
REMARK  Name = 
REMARK  9 active torsions:
REMARK  status: ('A' for Active; 'I' for Inactive)
REMARK    1  A    between atoms: C_1  and  C_2
REMARK    2  A    between atoms: C_2  and  C_3
REMARK    3  A    between atoms: N_5  and  C_6
REMARK    4  A    between atoms: C_6  and  C_7
REMARK    5  A    between atoms: C_6  and  C_16
REMARK    6  A    between atoms: C_10  and  N_11
REMARK    7  A    between atoms: N_11  and  C_12
REMARK    8  A    between atoms: N_11  and  C_13
REMARK    9  A    between atoms: C_25  and  O_26
REMARK                            x       y       z     vdW  Elec       q    Type
REMARK                         _______ _______ _______ _____ _____    ______ ____
ROOT
ATOM      1  C   UNL     1       3.528   5.432  18.862  0.00  0.00    +0.000 C 
ENDROOT
BRANCH   1   2
ATOM      2  C   UNL     1       2.866   6.802  18.934  0.00  0.00    +0.000 A 
ATOM      3  C   UNL     1       2.928   7.623  17.796  0.00  0.00    +0.000 A 
ATOM      4  C   UNL     1       2.193   8.805  17.719  0.00  0.00    +0.000 A 
ATOM      5  C   UNL     1       1.386   9.198  18.795  0.00  0.00    +0.000 A 
ATOM      6  C   UNL     1       0.500  10.277  18.695  0.00  0.00    +0.000 A 
ATOM      7  C   UNL     1      -0.283  10.630  19.786  0.00  0.00    +0.000 A 
ATOM      8  C   UNL     1      -0.103   9.932  20.966  0.00  0.00    +0.000 A 
ATOM      9  N   UNL     1       0.703   8.855  21.091  0.00  0.00    +0.000 NA
ATOM     10  C   UNL     1       1.401   8.473  19.998  0.00  0.00    +0.000 A 
ATOM     11  C   UNL     1       2.114   7.270  20.027  0.00  0.00    +0.000 A 
BRANCH  11  12
ATOM     12  O   UNL     1       1.989   6.497  21.165  0.00  0.00    +0.000 OA
ATOM     13  H   UNL     1       1.049   6.629  21.426  0.00  0.00    +0.000 HD
ENDBRANCH  11  12
ENDBRANCH   1   2
BRANCH   1  14
ATOM     14  C   UNL     1       4.291   5.226  17.553  0.00  0.00    +0.000 A 
ATOM     15  C   UNL     1       4.007   4.169  16.693  0.00  0.00    +0.000 A 
ATOM     16  C   UNL     1       4.728   3.996  15.497  0.00  0.00    +0.000 A 
ATOM     17  C   UNL     1       5.748   4.880  15.094  0.00  0.00    +0.000 A 
ATOM     18  C   UNL     1       6.009   5.939  15.973  0.00  0.00    +0.000 A 
ATOM     19  C   UNL     1       5.303   6.111  17.179  0.00  0.00    +0.000 A 
BRANCH  17  20
ATOM     20  N   UNL     1       6.472   4.668  13.928  0.00  0.00    +0.000 N 
ATOM     21  C   UNL     1       7.792   5.270  13.742  0.00  0.00    +0.000 C 
ATOM     22  C   UNL     1       6.183   3.561  13.017  0.00  0.00    +0.000 C 
ENDBRANCH  17  20
ENDBRANCH   1  14
BRANCH   1  25
ATOM     23  C   UNL     1       2.991   3.175  19.723  0.00  0.00    +0.000 C 
ATOM     24  O   UNL     1       4.094   3.008  20.216  0.00  0.00    +0.000 OA
ATOM     25  N   UNL     1       2.608   4.340  19.098  0.00  0.00    +0.000 N 
ATOM     26  H   UNL     1       1.703   4.413  18.642  0.00  0.00    +0.000 HD
BRANCH  23  28
ATOM     27  C   UNL     1       0.746   2.485  18.822  0.00  0.00    +0.000 C 
ATOM     28  C   UNL     1       1.877   2.152  19.779  0.00  0.00    +0.000 C 
ENDBRANCH  23  28
ENDBRANCH   1  25
TORSDOF 6
ENDMDL
MODEL 9
REMARK VINA RESULT:      -7.4      1.154      1.399
REMARK  Name = 
REMARK  9 active torsions:
REMARK  status: ('A' for Active; 'I' for Inactive)
REMARK    1  A    between atoms: C_1  and  C_2
REMARK    2  A    between atoms: C_2  and  C_3
REMARK    3  A    between atoms: N_5  and  C_6
REMARK    4  A    between atoms: C_6  and  C_7
REMARK    5  A    between atoms: C_6  and  C_16
REMARK    6  A    between atoms: C_10  and  N_11
REMARK    7  A    between atoms: N_11  and  C_12
REMARK    8  A    between atoms: N_11  and  C_13
REMARK    9  A    between atoms: C_25  and  O_26
REMARK                            x       y       z     vdW  Elec       q    Type
REMARK                         _______ _______ _______ _____ _____    ______ ____
ROOT
ATOM      1  C   UNL     1       3.667   5.510  19.008  0.00  0.00    +0.000 C 
ENDROOT
BRANCH   1   2
ATOM      2  C   UNL     1       2.930   6.843  18.979  0.00  0.00    +0.000 A 
ATOM      3  C   UNL     1       2.994   7.604  17.800  0.00  0.00    +0.000 A 
ATOM      4  C   UNL     1       2.199   8.738  17.630  0.00  0.00    +0.000 A 
ATOM      5  C   UNL     1       1.329   9.142  18.651  0.00  0.00    +0.000 A 
ATOM      6  C   UNL     1       0.391  10.162  18.457  0.00  0.00    +0.000 A 
ATOM      7  C   UNL     1      -0.454  10.528  19.497  0.00  0.00    +0.000 A 
ATOM      8  C   UNL     1      -0.285   9.906  20.719  0.00  0.00    +0.000 A 
ATOM      9  N   UNL     1       0.572   8.883  20.934  0.00  0.00    +0.000 NA
ATOM     10  C   UNL     1       1.334   8.483  19.891  0.00  0.00    +0.000 A 
ATOM     11  C   UNL     1       2.109   7.325  20.014  0.00  0.00    +0.000 A 
BRANCH  11  12
ATOM     12  O   UNL     1       1.979   6.609  21.188  0.00  0.00    +0.000 OA
ATOM     13  H   UNL     1       2.609   5.862  21.068  0.00  0.00    +0.000 HD
ENDBRANCH  11  12
ENDBRANCH   1   2
BRANCH   1  14
ATOM     14  C   UNL     1       4.395   5.224  17.695  0.00  0.00    +0.000 A 
ATOM     15  C   UNL     1       4.741   6.239  16.808  0.00  0.00    +0.000 A 
ATOM     16  C   UNL     1       5.406   5.951  15.601  0.00  0.00    +0.000 A 
ATOM     17  C   UNL     1       5.775   4.642  15.236  0.00  0.00    +0.000 A 
ATOM     18  C   UNL     1       5.422   3.639  16.149  0.00  0.00    +0.000 A 
ATOM     19  C   UNL     1       4.743   3.917  17.350  0.00  0.00    +0.000 A 
BRANCH  17  20
ATOM     20  N   UNL     1       6.396   4.375  14.022  0.00  0.00    +0.000 N 
ATOM     21  C   UNL     1       5.694   3.658  12.959  0.00  0.00    +0.000 C 
ATOM     22  C   UNL     1       7.583   5.103  13.574  0.00  0.00    +0.000 C 
ENDBRANCH  17  20
ENDBRANCH   1  14
BRANCH   1  25
ATOM     23  C   UNL     1       1.673   4.080  18.687  0.00  0.00    +0.000 C 
ATOM     24  O   UNL     1       1.334   4.638  17.657  0.00  0.00    +0.000 OA
ATOM     25  N   UNL     1       2.820   4.397  19.380  0.00  0.00    +0.000 N 
ATOM     26  H   UNL     1       3.030   3.954  20.269  0.00  0.00    +0.000 HD
BRANCH  23  28
ATOM     27  C   UNL     1       1.118   2.865  20.818  0.00  0.00    +0.000 C 
ATOM     28  C   UNL     1       0.914   2.931  19.315  0.00  0.00    +0.000 C 
ENDBRANCH  23  28
ENDBRANCH   1  25
TORSDOF 6
ENDMDL
