MODEL 1
REMARK VINA RESULT:      -7.6      0.000      0.000
REMARK  Name = 
REMARK  7 active torsions:
REMARK  status: ('A' for Active; 'I' for Inactive)
REMARK    1  A    between atoms: C_1  and  C_2
REMARK    2  A    between atoms: C_7  and  N_8
REMARK    3  A    between atoms: C_12  and  C_13
REMARK    4  A    between atoms: C_13  and  N_14
REMARK    5  A    between atoms: N_14  and  C_15
REMARK    6  A    between atoms: C_15  and  C_16
REMARK    7  A    between atoms: C_15  and  C_17
REMARK                            x       y       z     vdW  Elec       q    Type
REMARK                         _______ _______ _______ _____ _____    ______ ____
ROOT
ATOM      1  C   UNL     1       1.597   5.420  20.144  0.00  0.00    +0.000 C 
ATOM      2  C   UNL     1       2.618   4.877  19.182  0.00  0.00    +0.000 A 
ATOM      3  C   UNL     1       3.166   5.721  18.211  0.00  0.00    +0.000 A 
ATOM      4  C   UNL     1       4.099   5.241  17.269  0.00  0.00    +0.000 A 
ATOM      5  C   UNL     1       4.517   3.900  17.302  0.00  0.00    +0.000 A 
ATOM      6  C   UNL     1       3.954   3.040  18.250  0.00  0.00    +0.000 A 
ATOM      7  C   UNL     1       3.039   3.537  19.190  0.00  0.00    +0.000 A 
ATOM      8  N   UNL     1       5.390   3.374  16.334  0.00  0.00    +0.000 N 
ATOM      9  C   UNL     1       6.282   4.342  15.677  0.00  0.00    +0.000 C 
ATOM     10  C   UNL     1       5.450   5.515  15.153  0.00  0.00    +0.000 C 
ATOM     11  C   UNL     1       4.698   6.214  16.281  0.00  0.00    +0.000 C 
ATOM     12  H   UNL     1       5.906   2.564  16.674  0.00  0.00    +0.000 HD
ENDROOT
BRANCH   7  13
ATOM     13  N   UNL     1       2.543   2.606  20.194  0.00  0.00    +0.000 N 
ATOM     14  O   UNL     1       3.200   2.483  21.234  0.00  0.00    +0.000 OA
ATOM     15  O   UNL     1       1.504   1.987  19.924  0.00  0.00    +0.000 OA
ENDBRANCH   7  13
BRANCH   9  16
ATOM     16  C   UNL     1       7.430   4.802  16.621  0.00  0.00    +0.000 C 
BRANCH  16  17
ATOM     17  N   UNL     1       7.694   6.251  16.564  0.00  0.00    +0.000 NA
ATOM     18  H   UNL     1       7.096   6.669  15.849  0.00  0.00    +0.000 HD
BRANCH  17  19
ATOM     19  C   UNL     1       7.440   6.921  17.852  0.00  0.00    +0.000 C 
ATOM     20  C   UNL     1       8.000   6.150  19.053  0.00  0.00    +0.000 C 
ATOM     21  C   UNL     1       8.080   8.310  17.807  0.00  0.00    +0.000 C 
ENDBRANCH  17  19
ENDBRANCH  16  17
ENDBRANCH   9  16
TORSDOF 4
ENDMDL
MODEL 2
REMARK VINA RESULT:      -7.5      0.368      1.137
REMARK  Name = 
REMARK  7 active torsions:
REMARK  status: ('A' for Active; 'I' for Inactive)
REMARK    1  A    between atoms: C_1  and  C_2
REMARK    2  A    between atoms: C_7  and  N_8
REMARK    3  A    between atoms: C_12  and  C_13
REMARK    4  A    between atoms: C_13  and  N_14
REMARK    5  A    between atoms: N_14  and  C_15
REMARK    6  A    between atoms: C_15  and  C_16
REMARK    7  A    between atoms: C_15  and  C_17
REMARK                            x       y       z     vdW  Elec       q    Type
REMARK                         _______ _______ _______ _____ _____    ______ ____
ROOT
ATOM      1  C   UNL     1       1.741   5.533  20.532  0.00  0.00    +0.000 C 
ATOM      2  C   UNL     1       2.685   4.959  19.512  0.00  0.00    +0.000 A 
ATOM      3  C   UNL     1       3.201   5.784  18.509  0.00  0.00    +0.000 A 
ATOM      4  C   UNL     1       4.060   5.275  17.514  0.00  0.00    +0.000 A 
ATOM      5  C   UNL     1       4.437   3.921  17.525  0.00  0.00    +0.000 A 
ATOM      6  C   UNL     1       3.905   3.081  18.506  0.00  0.00    +0.000 A 
ATOM      7  C   UNL     1       3.063   3.606  19.498  0.00  0.00    +0.000 A 
ATOM      8  N   UNL     1       5.234   3.369  16.507  0.00  0.00    +0.000 N 
ATOM      9  C   UNL     1       6.115   4.308  15.797  0.00  0.00    +0.000 C 
ATOM     10  C   UNL     1       5.291   5.506  15.321  0.00  0.00    +0.000 C 
ATOM     11  C   UNL     1       4.631   6.229  16.490  0.00  0.00    +0.000 C 
ATOM     12  H   UNL     1       5.743   2.542  16.818  0.00  0.00    +0.000 HD
ENDROOT
BRANCH   7  13
ATOM     13  N   UNL     1       2.598   2.691  20.531  0.00  0.00    +0.000 N 
ATOM     14  O   UNL     1       1.480   2.183  20.383  0.00  0.00    +0.000 OA
ATOM     15  O   UNL     1       3.351   2.501  21.496  0.00  0.00    +0.000 OA
ENDBRANCH   7  13
BRANCH   9  16
ATOM     16  C   UNL     1       7.332   4.731  16.670  0.00  0.00    +0.000 C 
BRANCH  16  17
ATOM     17  N   UNL     1       7.748   6.129  16.461  0.00  0.00    +0.000 NA
ATOM     18  H   UNL     1       7.010   6.622  15.955  0.00  0.00    +0.000 HD
BRANCH  17  19
ATOM     19  C   UNL     1       8.013   6.834  17.729  0.00  0.00    +0.000 C 
ATOM     20  C   UNL     1       7.507   8.281  17.730  0.00  0.00    +0.000 C 
ATOM     21  C   UNL     1       7.328   6.063  18.860  0.00  0.00    +0.000 C 
ENDBRANCH  17  19
ENDBRANCH  16  17
ENDBRANCH   9  16
TORSDOF 4
ENDMDL
MODEL 3
REMARK VINA RESULT:      -7.2      3.002      5.842
REMARK  Name = 
REMARK  7 active torsions:
REMARK  status: ('A' for Active; 'I' for Inactive)
REMARK    1  A    between atoms: C_1  and  C_2
REMARK    2  A    between atoms: C_7  and  N_8
REMARK    3  A    between atoms: C_12  and  C_13
REMARK    4  A    between atoms: C_13  and  N_14
REMARK    5  A    between atoms: N_14  and  C_15
REMARK    6  A    between atoms: C_15  and  C_16
REMARK    7  A    between atoms: C_15  and  C_17
REMARK                            x       y       z     vdW  Elec       q    Type
REMARK                         _______ _______ _______ _____ _____    ______ ____
ROOT
ATOM      1  C   UNL     1       7.865   5.769  19.416  0.00  0.00    +0.000 C 
ATOM      2  C   UNL     1       6.676   5.168  18.719  0.00  0.00    +0.000 A 
ATOM      3  C   UNL     1       5.961   4.138  19.339  0.00  0.00    +0.000 A 
ATOM      4  C   UNL     1       4.862   3.525  18.702  0.00  0.00    +0.000 A 
ATOM      5  C   UNL     1       4.446   3.956  17.431  0.00  0.00    +0.000 A 
ATOM      6  C   UNL     1       5.170   4.964  16.789  0.00  0.00    +0.000 A 
ATOM      7  C   UNL     1       6.252   5.575  17.442  0.00  0.00    +0.000 A 
ATOM      8  N   UNL     1       3.400   3.319  16.741  0.00  0.00    +0.000 N 
ATOM      9  C   UNL     1       2.409   2.621  17.574  0.00  0.00    +0.000 C 
ATOM     10  C   UNL     1       3.137   1.688  18.544  0.00  0.00    +0.000 C 
ATOM     11  C   UNL     1       4.095   2.458  19.447  0.00  0.00    +0.000 C 
ATOM     12  H   UNL     1       2.951   3.932  16.062  0.00  0.00    +0.000 HD
ENDROOT
BRANCH   7  13
ATOM     13  N   UNL     1       6.921   6.666  16.748  0.00  0.00    +0.000 N 
ATOM     14  O   UNL     1       7.786   6.368  15.916  0.00  0.00    +0.000 OA
ATOM     15  O   UNL     1       6.588   7.818  17.055  0.00  0.00    +0.000 OA
ENDBRANCH   7  13
BRANCH   9  16
ATOM     16  C   UNL     1       1.464   3.619  18.304  0.00  0.00    +0.000 C 
BRANCH  16  17
ATOM     17  N   UNL     1       0.683   3.002  19.390  0.00  0.00    +0.000 NA
ATOM     18  H   UNL     1       0.970   2.028  19.493  0.00  0.00    +0.000 HD
BRANCH  17  19
ATOM     19  C   UNL     1       0.867   3.693  20.680  0.00  0.00    +0.000 C 
ATOM     20  C   UNL     1       1.528   2.813  21.746  0.00  0.00    +0.000 C 
ATOM     21  C   UNL     1       1.736   4.930  20.443  0.00  0.00    +0.000 C 
ENDBRANCH  17  19
ENDBRANCH  16  17
ENDBRANCH   9  16
TORSDOF 4
ENDMDL
MODEL 4
REMARK VINA RESULT:      -7.2      3.673      4.440
REMARK  Name = 
REMARK  7 active torsions:
REMARK  status: ('A' for Active; 'I' for Inactive)
REMARK    1  A    between atoms: C_1  and  C_2
REMARK    2  A    between atoms: C_7  and  N_8
REMARK    3  A    between atoms: C_12  and  C_13
REMARK    4  A    between atoms: C_13  and  N_14
REMARK    5  A    between atoms: N_14  and  C_15
REMARK    6  A    between atoms: C_15  and  C_16
REMARK    7  A    between atoms: C_15  and  C_17
REMARK                            x       y       z     vdW  Elec       q    Type
REMARK                         _______ _______ _______ _____ _____    ______ ____
ROOT
ATOM      1  C   UNL     1       0.900  10.466  18.908  0.00  0.00    +0.000 C 
ATOM      2  C   UNL     1       1.494   9.109  19.166  0.00  0.00    +0.000 A 
ATOM      3  C   UNL     1       2.192   8.456  18.145  0.00  0.00    +0.000 A 
ATOM      4  C   UNL     1       2.733   7.168  18.338  0.00  0.00    +0.000 A 
ATOM      5  C   UNL     1       2.600   6.519  19.577  0.00  0.00    +0.000 A 
ATOM      6  C   UNL     1       1.879   7.149  20.595  0.00  0.00    +0.000 A 
ATOM      7  C   UNL     1       1.361   8.437  20.393  0.00  0.00    +0.000 A 
ATOM      8  N   UNL     1       3.065   5.208  19.777  0.00  0.00    +0.000 N 
ATOM      9  C   UNL     1       4.167   4.774  18.904  0.00  0.00    +0.000 C 
ATOM     10  C   UNL     1       3.792   5.056  17.447  0.00  0.00    +0.000 C 
ATOM     11  C   UNL     1       3.526   6.540  17.216  0.00  0.00    +0.000 C 
ATOM     12  H   UNL     1       3.267   5.012  20.757  0.00  0.00    +0.000 HD
ENDROOT
BRANCH   7  13
ATOM     13  N   UNL     1       0.680   9.066  21.517  0.00  0.00    +0.000 N 
ATOM     14  O   UNL     1       1.329   9.864  22.203  0.00  0.00    +0.000 OA
ATOM     15  O   UNL     1      -0.498   8.740  21.716  0.00  0.00    +0.000 OA
ENDBRANCH   7  13
BRANCH   9  16
ATOM     16  C   UNL     1       5.517   5.432  19.309  0.00  0.00    +0.000 C 
BRANCH  16  17
ATOM     17  N   UNL     1       6.690   4.584  19.033  0.00  0.00    +0.000 NA
ATOM     18  H   UNL     1       6.369   3.654  18.757  0.00  0.00    +0.000 HD
BRANCH  17  19
ATOM     19  C   UNL     1       7.543   5.133  17.962  0.00  0.00    +0.000 C 
ATOM     20  C   UNL     1       7.268   4.505  16.591  0.00  0.00    +0.000 C 
ATOM     21  C   UNL     1       7.301   6.641  17.880  0.00  0.00    +0.000 C 
ENDBRANCH  17  19
ENDBRANCH  16  17
ENDBRANCH   9  16
TORSDOF 4
ENDMDL
MODEL 5
REMARK VINA RESULT:      -7.2      0.719      1.108
REMARK  Name = 
REMARK  7 active torsions:
REMARK  status: ('A' for Active; 'I' for Inactive)
REMARK    1  A    between atoms: C_1  and  C_2
REMARK    2  A    between atoms: C_7  and  N_8
REMARK    3  A    between atoms: C_12  and  C_13
REMARK    4  A    between atoms: C_13  and  N_14
REMARK    5  A    between atoms: N_14  and  C_15
REMARK    6  A    between atoms: C_15  and  C_16
REMARK    7  A    between atoms: C_15  and  C_17
REMARK                            x       y       z     vdW  Elec       q    Type
REMARK                         _______ _______ _______ _____ _____    ______ ____
ROOT
ATOM      1  C   UNL     1       1.675   5.593  20.109  0.00  0.00    +0.000 C 
ATOM      2  C   UNL     1       2.700   4.989  19.189  0.00  0.00    +0.000 A 
ATOM      3  C   UNL     1       3.254   5.768  18.168  0.00  0.00    +0.000 A 
ATOM      4  C   UNL     1       4.191   5.229  17.264  0.00  0.00    +0.000 A 
ATOM      5  C   UNL     1       4.609   3.892  17.386  0.00  0.00    +0.000 A 
ATOM      6  C   UNL     1       4.041   3.096  18.384  0.00  0.00    +0.000 A 
ATOM      7  C   UNL     1       3.121   3.652  19.286  0.00  0.00    +0.000 A 
ATOM      8  N   UNL     1       5.487   3.306  16.458  0.00  0.00    +0.000 N 
ATOM      9  C   UNL     1       6.382   4.229  15.745  0.00  0.00    +0.000 C 
ATOM     10  C   UNL     1       5.553   5.365  15.142  0.00  0.00    +0.000 C 
ATOM     11  C   UNL     1       4.796   6.136  16.218  0.00  0.00    +0.000 C 
ATOM     12  H   UNL     1       6.001   2.519  16.853  0.00  0.00    +0.000 HD
ENDROOT
BRANCH   7  13
ATOM     13  N   UNL     1       2.620   2.788  20.345  0.00  0.00    +0.000 N 
ATOM     14  O   UNL     1       1.559   2.187  20.138  0.00  0.00    +0.000 OA
ATOM     15  O   UNL     1       3.284   2.732  21.388  0.00  0.00    +0.000 OA
ENDBRANCH   7  13
BRANCH   9  16
ATOM     16  C   UNL     1       7.526   4.749  16.663  0.00  0.00    +0.000 C 
BRANCH  16  17
ATOM     17  N   UNL     1       7.346   4.397  18.082  0.00  0.00    +0.000 NA
ATOM     18  H   UNL     1       8.110   3.783  18.371  0.00  0.00    +0.000 HD
BRANCH  17  19
ATOM     19  C   UNL     1       7.328   5.582  18.960  0.00  0.00    +0.000 C 
ATOM     20  C   UNL     1       8.288   5.466  20.148  0.00  0.00    +0.000 C 
ATOM     21  C   UNL     1       7.710   6.805  18.124  0.00  0.00    +0.000 C 
ENDBRANCH  17  19
ENDBRANCH  16  17
ENDBRANCH   9  16
TORSDOF 4
ENDMDL
MODEL 6
REMARK VINA RESULT:      -7.1      2.810      5.695
REMARK  Name = 
REMARK  7 active torsions:
REMARK  status: ('A' for Active; 'I' for Inactive)
REMARK    1  A    between atoms: C_1  and  C_2
REMARK    2  A    between atoms: C_7  and  N_8
REMARK    3  A    between atoms: C_12  and  C_13
REMARK    4  A    between atoms: C_13  and  N_14
REMARK    5  A    between atoms: N_14  and  C_15
REMARK    6  A    between atoms: C_15  and  C_16
REMARK    7  A    between atoms: C_15  and  C_17
REMARK                            x       y       z     vdW  Elec       q    Type
REMARK                         _______ _______ _______ _____ _____    ______ ____
ROOT
ATOM      1  C   UNL     1       5.357   6.736  15.398  0.00  0.00    +0.000 C 
ATOM      2  C   UNL     1       4.877   6.186  16.713  0.00  0.00    +0.000 A 
ATOM      3  C   UNL     1       3.810   6.804  17.371  0.00  0.00    +0.000 A 
ATOM      4  C   UNL     1       3.354   6.340  18.622  0.00  0.00    +0.000 A 
ATOM      5  C   UNL     1       3.955   5.222  19.226  0.00  0.00    +0.000 A 
ATOM      6  C   UNL     1       5.041   4.614  18.592  0.00  0.00    +0.000 A 
ATOM      7  C   UNL     1       5.472   5.078  17.341  0.00  0.00    +0.000 A 
ATOM      8  N   UNL     1       3.571   4.779  20.504  0.00  0.00    +0.000 N 
ATOM      9  C   UNL     1       2.200   5.114  20.918  0.00  0.00    +0.000 C 
ATOM     10  C   UNL     1       1.967   6.612  20.714  0.00  0.00    +0.000 C 
ATOM     11  C   UNL     1       2.160   7.014  19.255  0.00  0.00    +0.000 C 
ATOM     12  H   UNL     1       3.774   3.791  20.650  0.00  0.00    +0.000 HD
ENDROOT
BRANCH   7  13
ATOM     13  N   UNL     1       6.564   4.357  16.702  0.00  0.00    +0.000 N 
ATOM     14  O   UNL     1       7.707   4.554  17.130  0.00  0.00    +0.000 OA
ATOM     15  O   UNL     1       6.271   3.610  15.759  0.00  0.00    +0.000 OA
ENDBRANCH   7  13
BRANCH   9  16
ATOM     16  C   UNL     1       1.145   4.241  20.179  0.00  0.00    +0.000 C 
BRANCH  16  17
ATOM     17  N   UNL     1       1.499   2.811  20.124  0.00  0.00    +0.000 NA
ATOM     18  H   UNL     1       0.784   2.273  20.616  0.00  0.00    +0.000 HD
BRANCH  17  19
ATOM     19  C   UNL     1       1.607   2.310  18.741  0.00  0.00    +0.000 C 
ATOM     20  C   UNL     1       1.432   3.409  17.687  0.00  0.00    +0.000 C 
ATOM     21  C   UNL     1       2.985   1.667  18.569  0.00  0.00    +0.000 C 
ENDBRANCH  17  19
ENDBRANCH  16  17
ENDBRANCH   9  16
TORSDOF 4
ENDMDL
MODEL 7
REMARK VINA RESULT:      -7.1      1.493      2.011
REMARK  Name = 
REMARK  7 active torsions:
REMARK  status: ('A' for Active; 'I' for Inactive)
REMARK    1  A    between atoms: C_1  and  C_2
REMARK    2  A    between atoms: C_7  and  N_8
REMARK    3  A    between atoms: C_12  and  C_13
REMARK    4  A    between atoms: C_13  and  N_14
REMARK    5  A    between atoms: N_14  and  C_15
REMARK    6  A    between atoms: C_15  and  C_16
REMARK    7  A    between atoms: C_15  and  C_17
REMARK                            x       y       z     vdW  Elec       q    Type
REMARK                         _______ _______ _______ _____ _____    ______ ____
ROOT
ATOM      1  C   UNL     1       0.783   2.649  18.936  0.00  0.00    +0.000 C 
ATOM      2  C   UNL     1       2.197   3.109  18.713  0.00  0.00    +0.000 A 
ATOM      3  C   UNL     1       2.714   3.143  17.415  0.00  0.00    +0.000 A 
ATOM      4  C   UNL     1       4.046   3.534  17.168  0.00  0.00    +0.000 A 
ATOM      5  C   UNL     1       4.881   3.922  18.230  0.00  0.00    +0.000 A 
ATOM      6  C   UNL     1       4.385   3.864  19.535  0.00  0.00    +0.000 A 
ATOM      7  C   UNL     1       3.052   3.488  19.762  0.00  0.00    +0.000 A 
ATOM      8  N   UNL     1       6.233   4.248  18.026  0.00  0.00    +0.000 N 
ATOM      9  C   UNL     1       6.583   4.732  16.682  0.00  0.00    +0.000 C 
ATOM     10  C   UNL     1       6.044   3.751  15.639  0.00  0.00    +0.000 C 
ATOM     11  C   UNL     1       4.529   3.606  15.738  0.00  0.00    +0.000 C 
ATOM     12  H   UNL     1       6.599   4.863  18.751  0.00  0.00    +0.000 HD
ENDROOT
BRANCH   7  13
ATOM     13  N   UNL     1       2.576   3.514  21.138  0.00  0.00    +0.000 N 
ATOM     14  O   UNL     1       2.732   2.492  21.817  0.00  0.00    +0.000 OA
ATOM     15  O   UNL     1       2.031   4.556  21.526  0.00  0.00    +0.000 OA
ENDBRANCH   7  13
BRANCH   9  16
ATOM     16  C   UNL     1       6.084   6.186  16.444  0.00  0.00    +0.000 C 
BRANCH  16  17
ATOM     17  N   UNL     1       6.327   7.085  17.587  0.00  0.00    +0.000 NA
ATOM     18  H   UNL     1       6.044   6.612  18.446  0.00  0.00    +0.000 HD
BRANCH  17  19
ATOM     19  C   UNL     1       7.742   7.481  17.701  0.00  0.00    +0.000 C 
ATOM     20  C   UNL     1       7.938   8.999  17.786  0.00  0.00    +0.000 C 
ATOM     21  C   UNL     1       8.324   6.831  18.959  0.00  0.00    +0.000 C 
ENDBRANCH  17  19
ENDBRANCH  16  17
ENDBRANCH   9  16
TORSDOF 4
ENDMDL
MODEL 8
REMARK VINA RESULT:      -7.1      2.089      3.772
REMARK  Name = 
REMARK  7 active torsions:
REMARK  status: ('A' for Active; 'I' for Inactive)
REMARK    1  A    between atoms: C_1  and  C_2
REMARK    2  A    between atoms: C_7  and  N_8
REMARK    3  A    between atoms: C_12  and  C_13
REMARK    4  A    between atoms: C_13  and  N_14
REMARK    5  A    between atoms: N_14  and  C_15
REMARK    6  A    between atoms: C_15  and  C_16
REMARK    7  A    between atoms: C_15  and  C_17
REMARK                            x       y       z     vdW  Elec       q    Type
REMARK                         _______ _______ _______ _____ _____    ______ ____
ROOT
ATOM      1  C   UNL     1       3.481   2.562  20.776  0.00  0.00    +0.000 C 
ATOM      2  C   UNL     1       3.827   3.373  19.558  0.00  0.00    +0.000 A 
ATOM      3  C   UNL     1       5.166   3.667  19.282  0.00  0.00    +0.000 A 
ATOM      4  C   UNL     1       5.528   4.454  18.170  0.00  0.00    +0.000 A 
ATOM      5  C   UNL     1       4.543   4.943  17.295  0.00  0.00    +0.000 A 
ATOM      6  C   UNL     1       3.199   4.681  17.576  0.00  0.00    +0.000 A 
ATOM      7  C   UNL     1       2.857   3.883  18.678  0.00  0.00    +0.000 A 
ATOM      8  N   UNL     1       4.865   5.789  16.219  0.00  0.00    +0.000 N 
ATOM      9  C   UNL     1       6.234   5.671  15.695  0.00  0.00    +0.000 C 
ATOM     10  C   UNL     1       7.226   5.780  16.855  0.00  0.00    +0.000 C 
ATOM     11  C   UNL     1       6.994   4.688  17.893  0.00  0.00    +0.000 C 
ATOM     12  H   UNL     1       4.175   5.747  15.471  0.00  0.00    +0.000 HD
ENDROOT
BRANCH   7  13
ATOM     13  N   UNL     1       1.444   3.590  18.876  0.00  0.00    +0.000 N 
ATOM     14  O   UNL     1       0.926   2.746  18.135  0.00  0.00    +0.000 OA
ATOM     15  O   UNL     1       0.856   4.223  19.763  0.00  0.00    +0.000 OA
ENDBRANCH   7  13
BRANCH   9  16
ATOM     16  C   UNL     1       6.426   4.367  14.869  0.00  0.00    +0.000 C 
BRANCH  16  17
ATOM     17  N   UNL     1       5.342   4.119  13.902  0.00  0.00    +0.000 NA
ATOM     18  H   UNL     1       4.944   5.014  13.614  0.00  0.00    +0.000 HD
BRANCH  17  19
ATOM     19  C   UNL     1       5.809   3.396  12.704  0.00  0.00    +0.000 C 
ATOM     20  C   UNL     1       4.743   3.296  11.607  0.00  0.00    +0.000 C 
ATOM     21  C   UNL     1       7.033   4.126  12.148  0.00  0.00    +0.000 C 
ENDBRANCH  17  19
ENDBRANCH  16  17
ENDBRANCH   9  16
TORSDOF 4
ENDMDL
MODEL 9
REMARK VINA RESULT:      -7.0      2.826      5.674
REMARK  Name = 
REMARK  7 active torsions:
REMARK  status: ('A' for Active; 'I' for Inactive)
REMARK    1  A    between atoms: C_1  and  C_2
REMARK    2  A    between atoms: C_7  and  N_8
REMARK    3  A    between atoms: C_12  and  C_13
REMARK    4  A    between atoms: C_13  and  N_14
REMARK    5  A    between atoms: N_14  and  C_15
REMARK    6  A    between atoms: C_15  and  C_16
REMARK    7  A    between atoms: C_15  and  C_17
REMARK                            x       y       z     vdW  Elec       q    Type
REMARK                         _______ _______ _______ _____ _____    ______ ____
ROOT
ATOM      1  C   UNL     1       6.253   6.983  16.225  0.00  0.00    +0.000 C 
ATOM      2  C   UNL     1       5.505   6.342  17.362  0.00  0.00    +0.000 A 
ATOM      3  C   UNL     1       4.244   6.829  17.718  0.00  0.00    +0.000 A 
ATOM      4  C   UNL     1       3.527   6.278  18.800  0.00  0.00    +0.000 A 
ATOM      5  C   UNL     1       4.060   5.204  19.533  0.00  0.00    +0.000 A 
ATOM      6  C   UNL     1       5.333   4.729  19.205  0.00  0.00    +0.000 A 
ATOM      7  C   UNL     1       6.026   5.277  18.116  0.00  0.00    +0.000 A 
ATOM      8  N   UNL     1       3.403   4.681  20.660  0.00  0.00    +0.000 N 
ATOM      9  C   UNL     1       1.944   4.864  20.698  0.00  0.00    +0.000 C 
ATOM     10  C   UNL     1       1.618   6.339  20.451  0.00  0.00    +0.000 C 
ATOM     11  C   UNL     1       2.144   6.809  19.099  0.00  0.00    +0.000 C 
ATOM     12  H   UNL     1       3.662   3.713  20.847  0.00  0.00    +0.000 HD
ENDROOT
BRANCH   7  13
ATOM     13  N   UNL     1       7.317   4.690  17.783  0.00  0.00    +0.000 N 
ATOM     14  O   UNL     1       7.481   4.290  16.624  0.00  0.00    +0.000 OA
ATOM     15  O   UNL     1       8.154   4.617  18.693  0.00  0.00    +0.000 OA
ENDBRANCH   7  13
BRANCH   9  16
ATOM     16  C   UNL     1       1.217   3.919  19.699  0.00  0.00    +0.000 C 
BRANCH  16  17
ATOM     17  N   UNL     1       1.750   2.545  19.696  0.00  0.00    +0.000 NA
ATOM     18  H   UNL     1       1.029   1.909  20.041  0.00  0.00    +0.000 HD
BRANCH  17  19
ATOM     19  C   UNL     1       2.173   2.107  18.353  0.00  0.00    +0.000 C 
ATOM     20  C   UNL     1       2.195   3.246  17.328  0.00  0.00    +0.000 C 
ATOM     21  C   UNL     1       3.575   1.505  18.462  0.00  0.00    +0.000 C 
ENDBRANCH  17  19
ENDBRANCH  16  17
ENDBRANCH   9  16
TORSDOF 4
ENDMDL
