MODEL 1
REMARK VINA RESULT:      -6.9      0.000      0.000
REMARK  Name = 
REMARK  4 active torsions:
REMARK  status: ('A' for Active; 'I' for Inactive)
REMARK    1  A    between atoms: C_2  and  C_3
REMARK    2  A    between atoms: C_3  and  S_4
REMARK    3  A    between atoms: S_4  and  C_5
REMARK    4  A    between atoms: N_12  and  C_13
REMARK                            x       y       z     vdW  Elec       q    Type
REMARK                         _______ _______ _______ _____ _____    ______ ____
ROOT
ATOM      1  O   UNL     1       7.860   4.383  16.896  0.00  0.00    +0.000 OA
ATOM      2  C   UNL     1       6.944   5.152  16.622  0.00  0.00    +0.000 C 
ATOM      3  N   UNL     1       6.264   5.113  15.424  0.00  0.00    +0.000 N 
ATOM      4  H   UNL     1       5.670   5.912  15.224  0.00  0.00    +0.000 HD
ENDROOT
BRANCH   3   5
ATOM      5  C   UNL     1       6.660   4.267  14.317  0.00  0.00    +0.000 C 
ATOM      6  C   UNL     1       5.452   3.780  13.525  0.00  0.00    +0.000 C 
ATOM      7  C   UNL     1       6.036   3.345  12.190  0.00  0.00    +0.000 C 
ATOM      8  C   UNL     1       7.263   4.227  11.965  0.00  0.00    +0.000 C 
ATOM      9  C   UNL     1       7.479   5.008  13.263  0.00  0.00    +0.000 C 
ENDBRANCH   3   5
BRANCH   2  10
ATOM     10  C   UNL     1       6.399   6.143  17.652  0.00  0.00    +0.000 C 
BRANCH  10  11
ATOM     11  S   UNL     1       4.765   6.819  17.169  0.00  0.00    +0.000 S 
BRANCH  11  12
ATOM     12  C   UNL     1       3.704   5.700  18.066  0.00  0.00    +0.000 A 
ATOM     13  C   UNL     1       3.188   4.552  17.457  0.00  0.00    +0.000 A 
ATOM     14  C   UNL     1       2.340   3.695  18.168  0.00  0.00    +0.000 A 
ATOM     15  C   UNL     1       2.016   3.984  19.491  0.00  0.00    +0.000 A 
ATOM     16 CL   UNL     1       0.944   2.953  20.355  0.00  0.00    +0.000 Cl
ATOM     17  C   UNL     1       2.550   5.109  20.117  0.00  0.00    +0.000 A 
ATOM     18  C   UNL     1       3.400   5.962  19.406  0.00  0.00    +0.000 A 
ENDBRANCH  11  12
ENDBRANCH  10  11
ENDBRANCH   2  10
TORSDOF 4
ENDMDL
MODEL 2
REMARK VINA RESULT:      -6.7      1.184      1.475
REMARK  Name = 
REMARK  4 active torsions:
REMARK  status: ('A' for Active; 'I' for Inactive)
REMARK    1  A    between atoms: C_2  and  C_3
REMARK    2  A    between atoms: C_3  and  S_4
REMARK    3  A    between atoms: S_4  and  C_5
REMARK    4  A    between atoms: N_12  and  C_13
REMARK                            x       y       z     vdW  Elec       q    Type
REMARK                         _______ _______ _______ _____ _____    ______ ____
ROOT
ATOM      1  O   UNL     1       7.892   4.397  16.732  0.00  0.00    +0.000 OA
ATOM      2  C   UNL     1       6.948   5.141  16.487  0.00  0.00    +0.000 C 
ATOM      3  N   UNL     1       6.203   5.053  15.331  0.00  0.00    +0.000 N 
ATOM      4  H   UNL     1       5.584   5.835  15.140  0.00  0.00    +0.000 HD
ENDROOT
BRANCH   3   5
ATOM      5  C   UNL     1       6.553   4.179  14.230  0.00  0.00    +0.000 C 
ATOM      6  C   UNL     1       5.318   3.736  13.453  0.00  0.00    +0.000 C 
ATOM      7  C   UNL     1       5.872   3.262  12.118  0.00  0.00    +0.000 C 
ATOM      8  C   UNL     1       7.133   4.089  11.873  0.00  0.00    +0.000 C 
ATOM      9  C   UNL     1       7.394   4.873  13.160  0.00  0.00    +0.000 C 
ENDBRANCH   3   5
BRANCH   2  10
ATOM     10  C   UNL     1       6.443   6.155  17.514  0.00  0.00    +0.000 C 
BRANCH  10  11
ATOM     11  S   UNL     1       6.489   5.494  19.223  0.00  0.00    +0.000 S 
BRANCH  11  12
ATOM     12  C   UNL     1       4.845   4.808  19.321  0.00  0.00    +0.000 A 
ATOM     13  C   UNL     1       3.722   5.636  19.412  0.00  0.00    +0.000 A 
ATOM     14  C   UNL     1       2.441   5.082  19.509  0.00  0.00    +0.000 A 
ATOM     15  C   UNL     1       2.284   3.698  19.506  0.00  0.00    +0.000 A 
ATOM     16 CL   UNL     1       0.713   3.014  19.663  0.00  0.00    +0.000 Cl
ATOM     17  C   UNL     1       3.393   2.864  19.383  0.00  0.00    +0.000 A 
ATOM     18  C   UNL     1       4.673   3.420  19.284  0.00  0.00    +0.000 A 
ENDBRANCH  11  12
ENDBRANCH  10  11
ENDBRANCH   2  10
TORSDOF 4
ENDMDL
MODEL 3
REMARK VINA RESULT:      -6.6      0.865      1.207
REMARK  Name = 
REMARK  4 active torsions:
REMARK  status: ('A' for Active; 'I' for Inactive)
REMARK    1  A    between atoms: C_2  and  C_3
REMARK    2  A    between atoms: C_3  and  S_4
REMARK    3  A    between atoms: S_4  and  C_5
REMARK    4  A    between atoms: N_12  and  C_13
REMARK                            x       y       z     vdW  Elec       q    Type
REMARK                         _______ _______ _______ _____ _____    ______ ____
ROOT
ATOM      1  O   UNL     1       7.841   4.415  16.816  0.00  0.00    +0.000 OA
ATOM      2  C   UNL     1       6.967   5.224  16.520  0.00  0.00    +0.000 C 
ATOM      3  N   UNL     1       6.274   5.179  15.330  0.00  0.00    +0.000 N 
ATOM      4  H   UNL     1       5.725   6.003  15.104  0.00  0.00    +0.000 HD
ENDROOT
BRANCH   3   5
ATOM      5  C   UNL     1       6.611   4.270  14.253  0.00  0.00    +0.000 C 
ATOM      6  C   UNL     1       5.366   3.789  13.517  0.00  0.00    +0.000 C 
ATOM      7  C   UNL     1       5.897   3.274  12.188  0.00  0.00    +0.000 C 
ATOM      8  C   UNL     1       7.145   4.104  11.890  0.00  0.00    +0.000 C 
ATOM      9  C   UNL     1       7.424   4.935  13.144  0.00  0.00    +0.000 C 
ENDBRANCH   3   5
BRANCH   2  10
ATOM     10  C   UNL     1       6.490   6.283  17.515  0.00  0.00    +0.000 C 
BRANCH  10  11
ATOM     11  S   UNL     1       4.752   6.785  17.216  0.00  0.00    +0.000 S 
BRANCH  11  12
ATOM     12  C   UNL     1       3.938   5.784  18.448  0.00  0.00    +0.000 A 
ATOM     13  C   UNL     1       2.824   6.263  19.145  0.00  0.00    +0.000 A 
ATOM     14  C   UNL     1       2.210   5.474  20.123  0.00  0.00    +0.000 A 
ATOM     15  C   UNL     1       2.706   4.201  20.397  0.00  0.00    +0.000 A 
ATOM     16 CL   UNL     1       1.975   3.244  21.625  0.00  0.00    +0.000 Cl
ATOM     17  C   UNL     1       3.795   3.702  19.686  0.00  0.00    +0.000 A 
ATOM     18  C   UNL     1       4.406   4.492  18.707  0.00  0.00    +0.000 A 
ENDBRANCH  11  12
ENDBRANCH  10  11
ENDBRANCH   2  10
TORSDOF 4
ENDMDL
MODEL 4
REMARK VINA RESULT:      -6.4      0.641      1.101
REMARK  Name = 
REMARK  4 active torsions:
REMARK  status: ('A' for Active; 'I' for Inactive)
REMARK    1  A    between atoms: C_2  and  C_3
REMARK    2  A    between atoms: C_3  and  S_4
REMARK    3  A    between atoms: S_4  and  C_5
REMARK    4  A    between atoms: N_12  and  C_13
REMARK                            x       y       z     vdW  Elec       q    Type
REMARK                         _______ _______ _______ _____ _____    ______ ____
ROOT
ATOM      1  O   UNL     1       7.231   4.290  17.127  0.00  0.00    +0.000 OA
ATOM      2  C   UNL     1       6.672   5.290  16.688  0.00  0.00    +0.000 C 
ATOM      3  N   UNL     1       6.376   5.459  15.352  0.00  0.00    +0.000 N 
ATOM      4  H   UNL     1       6.101   6.397  15.074  0.00  0.00    +0.000 HD
ENDROOT
BRANCH   3   5
ATOM      5  C   UNL     1       6.829   4.549  14.321  0.00  0.00    +0.000 C 
ATOM      6  C   UNL     1       5.657   3.885  13.606  0.00  0.00    +0.000 C 
ATOM      7  C   UNL     1       6.257   3.377  12.305  0.00  0.00    +0.000 C 
ATOM      8  C   UNL     1       7.398   4.337  11.969  0.00  0.00    +0.000 C 
ATOM      9  C   UNL     1       7.563   5.254  13.182  0.00  0.00    +0.000 C 
ENDBRANCH   3   5
BRANCH   2  10
ATOM     10  C   UNL     1       6.143   6.383  17.618  0.00  0.00    +0.000 C 
BRANCH  10  11
ATOM     11  S   UNL     1       4.419   6.862  17.219  0.00  0.00    +0.000 S 
BRANCH  11  12
ATOM     12  C   UNL     1       3.542   5.687  18.236  0.00  0.00    +0.000 A 
ATOM     13  C   UNL     1       4.097   5.210  19.428  0.00  0.00    +0.000 A 
ATOM     14  C   UNL     1       3.405   4.273  20.203  0.00  0.00    +0.000 A 
ATOM     15  C   UNL     1       2.155   3.820  19.790  0.00  0.00    +0.000 A 
ATOM     16 CL   UNL     1       1.319   2.641  20.723  0.00  0.00    +0.000 Cl
ATOM     17  C   UNL     1       1.579   4.313  18.621  0.00  0.00    +0.000 A 
ATOM     18  C   UNL     1       2.271   5.252  17.848  0.00  0.00    +0.000 A 
ENDBRANCH  11  12
ENDBRANCH  10  11
ENDBRANCH   2  10
TORSDOF 4
ENDMDL
MODEL 5
REMARK VINA RESULT:      -6.2      1.525      1.935
REMARK  Name = 
REMARK  4 active torsions:
REMARK  status: ('A' for Active; 'I' for Inactive)
REMARK    1  A    between atoms: C_2  and  C_3
REMARK    2  A    between atoms: C_3  and  S_4
REMARK    3  A    between atoms: S_4  and  C_5
REMARK    4  A    between atoms: N_12  and  C_13
REMARK                            x       y       z     vdW  Elec       q    Type
REMARK                         _______ _______ _______ _____ _____    ______ ____
ROOT
ATOM      1  O   UNL     1       6.445   6.450  16.358  0.00  0.00    +0.000 OA
ATOM      2  C   UNL     1       6.918   5.325  16.489  0.00  0.00    +0.000 C 
ATOM      3  N   UNL     1       7.174   4.489  15.423  0.00  0.00    +0.000 N 
ATOM      4  H   UNL     1       7.371   3.520  15.656  0.00  0.00    +0.000 HD
ENDROOT
BRANCH   3   5
ATOM      5  C   UNL     1       6.772   4.794  14.065  0.00  0.00    +0.000 C 
ATOM      6  C   UNL     1       7.980   4.989  13.155  0.00  0.00    +0.000 C 
ATOM      7  C   UNL     1       7.417   4.816  11.753  0.00  0.00    +0.000 C 
ATOM      8  C   UNL     1       6.242   3.849  11.892  0.00  0.00    +0.000 C 
ATOM      9  C   UNL     1       6.023   3.646  13.392  0.00  0.00    +0.000 C 
ENDBRANCH   3   5
BRANCH   2  10
ATOM     10  C   UNL     1       7.379   4.806  17.852  0.00  0.00    +0.000 C 
BRANCH  10  11
ATOM     11  S   UNL     1       6.439   5.556  19.235  0.00  0.00    +0.000 S 
BRANCH  11  12
ATOM     12  C   UNL     1       4.880   4.713  19.026  0.00  0.00    +0.000 A 
ATOM     13  C   UNL     1       3.784   5.358  18.445  0.00  0.00    +0.000 A 
ATOM     14  C   UNL     1       2.562   4.689  18.308  0.00  0.00    +0.000 A 
ATOM     15  C   UNL     1       2.442   3.372  18.743  0.00  0.00    +0.000 A 
ATOM     16 CL   UNL     1       0.931   2.560  18.609  0.00  0.00    +0.000 Cl
ATOM     17  C   UNL     1       3.537   2.709  19.294  0.00  0.00    +0.000 A 
ATOM     18  C   UNL     1       4.758   3.378  19.428  0.00  0.00    +0.000 A 
ENDBRANCH  11  12
ENDBRANCH  10  11
ENDBRANCH   2  10
TORSDOF 4
ENDMDL
MODEL 6
REMARK VINA RESULT:      -6.2      1.652      2.252
REMARK  Name = 
REMARK  4 active torsions:
REMARK  status: ('A' for Active; 'I' for Inactive)
REMARK    1  A    between atoms: C_2  and  C_3
REMARK    2  A    between atoms: C_3  and  S_4
REMARK    3  A    between atoms: S_4  and  C_5
REMARK    4  A    between atoms: N_12  and  C_13
REMARK                            x       y       z     vdW  Elec       q    Type
REMARK                         _______ _______ _______ _____ _____    ______ ____
ROOT
ATOM      1  O   UNL     1       5.475   6.944  15.937  0.00  0.00    +0.000 OA
ATOM      2  C   UNL     1       6.519   6.369  16.230  0.00  0.00    +0.000 C 
ATOM      3  N   UNL     1       7.205   5.563  15.348  0.00  0.00    +0.000 N 
ATOM      4  H   UNL     1       7.935   4.983  15.752  0.00  0.00    +0.000 HD
ENDROOT
BRANCH   3   5
ATOM      5  C   UNL     1       6.688   5.197  14.046  0.00  0.00    +0.000 C 
ATOM      6  C   UNL     1       7.810   5.013  13.030  0.00  0.00    +0.000 C 
ATOM      7  C   UNL     1       7.173   4.194  11.919  0.00  0.00    +0.000 C 
ATOM      8  C   UNL     1       6.099   3.341  12.594  0.00  0.00    +0.000 C 
ATOM      9  C   UNL     1       6.000   3.833  14.039  0.00  0.00    +0.000 C 
ENDBRANCH   3   5
BRANCH   2  10
ATOM     10  C   UNL     1       7.208   6.604  17.575  0.00  0.00    +0.000 C 
BRANCH  10  11
ATOM     11  S   UNL     1       7.155   5.121  18.652  0.00  0.00    +0.000 S 
BRANCH  11  12
ATOM     12  C   UNL     1       5.419   4.729  18.531  0.00  0.00    +0.000 A 
ATOM     13  C   UNL     1       4.469   5.421  19.289  0.00  0.00    +0.000 A 
ATOM     14  C   UNL     1       3.113   5.087  19.199  0.00  0.00    +0.000 A 
ATOM     15  C   UNL     1       2.708   4.066  18.343  0.00  0.00    +0.000 A 
ATOM     16 CL   UNL     1       1.046   3.629  18.258  0.00  0.00    +0.000 Cl
ATOM     17  C   UNL     1       3.642   3.392  17.559  0.00  0.00    +0.000 A 
ATOM     18  C   UNL     1       4.996   3.729  17.649  0.00  0.00    +0.000 A 
ENDBRANCH  11  12
ENDBRANCH  10  11
ENDBRANCH   2  10
TORSDOF 4
ENDMDL
MODEL 7
REMARK VINA RESULT:      -6.2      6.441      8.147
REMARK  Name = 
REMARK  4 active torsions:
REMARK  status: ('A' for Active; 'I' for Inactive)
REMARK    1  A    between atoms: C_2  and  C_3
REMARK    2  A    between atoms: C_3  and  S_4
REMARK    3  A    between atoms: S_4  and  C_5
REMARK    4  A    between atoms: N_12  and  C_13
REMARK                            x       y       z     vdW  Elec       q    Type
REMARK                         _______ _______ _______ _____ _____    ______ ____
ROOT
ATOM      1  O   UNL     1       8.295   7.143  18.751  0.00  0.00    +0.000 OA
ATOM      2  C   UNL     1       7.838   7.813  17.830  0.00  0.00    +0.000 C 
ATOM      3  N   UNL     1       6.936   7.316  16.914  0.00  0.00    +0.000 N 
ATOM      4  H   UNL     1       6.782   7.886  16.088  0.00  0.00    +0.000 HD
ENDROOT
BRANCH   3   5
ATOM      5  C   UNL     1       6.556   5.919  16.858  0.00  0.00    +0.000 C 
ATOM      6  C   UNL     1       5.042   5.754  16.778  0.00  0.00    +0.000 C 
ATOM      7  C   UNL     1       4.852   4.340  16.253  0.00  0.00    +0.000 C 
ATOM      8  C   UNL     1       6.075   4.051  15.383  0.00  0.00    +0.000 C 
ATOM      9  C   UNL     1       7.039   5.220  15.589  0.00  0.00    +0.000 C 
ENDBRANCH   3   5
BRANCH   2  10
ATOM     10  C   UNL     1       8.145   9.306  17.700  0.00  0.00    +0.000 C 
BRANCH  10  11
ATOM     11  S   UNL     1       9.091   9.947  19.133  0.00  0.00    +0.000 S 
BRANCH  11  12
ATOM     12  C   UNL     1       9.678  11.482  18.438  0.00  0.00    +0.000 A 
ATOM     13  C   UNL     1      10.888  11.542  17.740  0.00  0.00    +0.000 A 
ATOM     14  C   UNL     1      11.344  12.757  17.219  0.00  0.00    +0.000 A 
ATOM     15  C   UNL     1      10.585  13.912  17.390  0.00  0.00    +0.000 A 
ATOM     16 CL   UNL     1      11.162  15.415  16.783  0.00  0.00    +0.000 Cl
ATOM     17  C   UNL     1       9.362  13.858  18.057  0.00  0.00    +0.000 A 
ATOM     18  C   UNL     1       8.907  12.641  18.574  0.00  0.00    +0.000 A 
ENDBRANCH  11  12
ENDBRANCH  10  11
ENDBRANCH   2  10
TORSDOF 4
ENDMDL
MODEL 8
REMARK VINA RESULT:      -6.1      1.534      2.288
REMARK  Name = 
REMARK  4 active torsions:
REMARK  status: ('A' for Active; 'I' for Inactive)
REMARK    1  A    between atoms: C_2  and  C_3
REMARK    2  A    between atoms: C_3  and  S_4
REMARK    3  A    between atoms: S_4  and  C_5
REMARK    4  A    between atoms: N_12  and  C_13
REMARK                            x       y       z     vdW  Elec       q    Type
REMARK                         _______ _______ _______ _____ _____    ______ ____
ROOT
ATOM      1  O   UNL     1       7.721   5.435  14.038  0.00  0.00    +0.000 OA
ATOM      2  C   UNL     1       6.995   4.712  14.714  0.00  0.00    +0.000 C 
ATOM      3  N   UNL     1       6.198   3.730  14.169  0.00  0.00    +0.000 N 
ATOM      4  H   UNL     1       5.496   3.333  14.788  0.00  0.00    +0.000 HD
ENDROOT
BRANCH   3   5
ATOM      5  C   UNL     1       6.023   3.554  12.742  0.00  0.00    +0.000 C 
ATOM      6  C   UNL     1       6.353   2.129  12.309  0.00  0.00    +0.000 C 
ATOM      7  C   UNL     1       5.678   1.989  10.954  0.00  0.00    +0.000 C 
ATOM      8  C   UNL     1       4.461   2.912  10.998  0.00  0.00    +0.000 C 
ATOM      9  C   UNL     1       4.572   3.716  12.294  0.00  0.00    +0.000 C 
ENDBRANCH   3   5
BRANCH   2  10
ATOM     10  C   UNL     1       7.015   4.767  16.242  0.00  0.00    +0.000 C 
BRANCH  10  11
ATOM     11  S   UNL     1       5.952   6.106  16.903  0.00  0.00    +0.000 S 
BRANCH  11  12
ATOM     12  C   UNL     1       4.515   5.149  17.355  0.00  0.00    +0.000 A 
ATOM     13  C   UNL     1       3.342   5.772  17.793  0.00  0.00    +0.000 A 
ATOM     14  C   UNL     1       2.232   5.006  18.163  0.00  0.00    +0.000 A 
ATOM     15  C   UNL     1       2.292   3.617  18.087  0.00  0.00    +0.000 A 
ATOM     16 CL   UNL     1       0.941   2.672  18.577  0.00  0.00    +0.000 Cl
ATOM     17  C   UNL     1       3.445   2.987  17.621  0.00  0.00    +0.000 A 
ATOM     18  C   UNL     1       4.554   3.755  17.249  0.00  0.00    +0.000 A 
ENDBRANCH  11  12
ENDBRANCH  10  11
ENDBRANCH   2  10
TORSDOF 4
ENDMDL
MODEL 9
REMARK VINA RESULT:      -6.1      1.722      2.041
REMARK  Name = 
REMARK  4 active torsions:
REMARK  status: ('A' for Active; 'I' for Inactive)
REMARK    1  A    between atoms: C_2  and  C_3
REMARK    2  A    between atoms: C_3  and  S_4
REMARK    3  A    between atoms: S_4  and  C_5
REMARK    4  A    between atoms: N_12  and  C_13
REMARK                            x       y       z     vdW  Elec       q    Type
REMARK                         _______ _______ _______ _____ _____    ______ ____
ROOT
ATOM      1  O   UNL     1       5.828   7.110  16.182  0.00  0.00    +0.000 OA
ATOM      2  C   UNL     1       6.780   6.393  16.476  0.00  0.00    +0.000 C 
ATOM      3  N   UNL     1       7.331   5.482  15.601  0.00  0.00    +0.000 N 
ATOM      4  H   UNL     1       7.973   4.809  16.008  0.00  0.00    +0.000 HD
ENDROOT
BRANCH   3   5
ATOM      5  C   UNL     1       6.752   5.175  14.310  0.00  0.00    +0.000 C 
ATOM      6  C   UNL     1       7.811   5.146  13.214  0.00  0.00    +0.000 C 
ATOM      7  C   UNL     1       7.155   4.366  12.085  0.00  0.00    +0.000 C 
ATOM      8  C   UNL     1       6.189   3.392  12.760  0.00  0.00    +0.000 C 
ATOM      9  C   UNL     1       6.156   3.770  14.242  0.00  0.00    +0.000 C 
ENDBRANCH   3   5
BRANCH   2  10
ATOM     10  C   UNL     1       7.512   6.546  17.809  0.00  0.00    +0.000 C 
BRANCH  10  11
ATOM     11  S   UNL     1       7.329   5.066  18.876  0.00  0.00    +0.000 S 
BRANCH  11  12
ATOM     12  C   UNL     1       5.592   4.739  18.635  0.00  0.00    +0.000 A 
ATOM     13  C   UNL     1       5.162   3.706  17.796  0.00  0.00    +0.000 A 
ATOM     14  C   UNL     1       3.796   3.476  17.601  0.00  0.00    +0.000 A 
ATOM     15  C   UNL     1       2.860   4.276  18.252  0.00  0.00    +0.000 A 
ATOM     16 CL   UNL     1       1.180   4.019  17.985  0.00  0.00    +0.000 Cl
ATOM     17  C   UNL     1       3.277   5.288  19.115  0.00  0.00    +0.000 A 
ATOM     18  C   UNL     1       4.643   5.514  19.311  0.00  0.00    +0.000 A 
ENDBRANCH  11  12
ENDBRANCH  10  11
ENDBRANCH   2  10
TORSDOF 4
ENDMDL
