MODEL 1
REMARK VINA RESULT:      -7.7      0.000      0.000
REMARK  Name = 
REMARK  10 active torsions:
REMARK  status: ('A' for Active; 'I' for Inactive)
REMARK    1  A    between atoms: C_1  and  C_2
REMARK    2  A    between atoms: C_2  and  C_3
REMARK    3  A    between atoms: C_5  and  C_6
REMARK    4  A    between atoms: C_6  and  O_8
REMARK    5  A    between atoms: O_8  and  C_9
REMARK    6  A    between atoms: C_11  and  C_12
REMARK    7  A    between atoms: C_12  and  C_13
REMARK    8  A    between atoms: C_13  and  N_14
REMARK    9  A    between atoms: N_14  and  C_15
REMARK   10  A    between atoms: N_30  and  O_31
REMARK                            x       y       z     vdW  Elec       q    Type
REMARK                         _______ _______ _______ _____ _____    ______ ____
ROOT
ATOM      1  C   UNL     1      -5.911  11.476  18.617  0.00  0.00    +0.000 C 
ATOM      2  C   UNL     1      -4.795  11.020  17.713  0.00  0.00    +0.000 C 
ATOM      3  C   UNL     1      -3.476  11.240  17.872  0.00  0.00    +0.000 C 
ATOM      4  C   UNL     1      -3.001  11.981  19.002  0.00  0.00    +0.000 A 
ATOM      5  C   UNL     1      -1.832  12.691  19.328  0.00  0.00    +0.000 A 
ATOM      6  C   UNL     1      -1.996  13.153  20.703  0.00  0.00    +0.000 A 
ATOM      7  C   UNL     1      -1.265  13.975  21.602  0.00  0.00    +0.000 A 
ATOM      8  C   UNL     1      -1.764  14.310  22.862  0.00  0.00    +0.000 A 
ATOM      9  C   UNL     1      -2.959  13.771  23.300  0.00  0.00    +0.000 A 
ATOM     10  C   UNL     1      -3.689  12.913  22.477  0.00  0.00    +0.000 A 
ATOM     11  C   UNL     1      -3.219  12.666  21.168  0.00  0.00    +0.000 A 
ATOM     12  N   UNL     1      -3.893  12.202  20.047  0.00  0.00    +0.000 N 
ATOM     13  C   UNL     1      -5.382  12.232  19.916  0.00  0.00    +0.000 C 
ATOM     14  N   UNL     1      -5.875  13.650  20.212  0.00  0.00    +0.000 NA
ATOM     15  C   UNL     1      -6.791  14.239  19.243  0.00  0.00    +0.000 C 
ATOM     16  C   UNL     1      -6.459  13.818  17.827  0.00  0.00    +0.000 C 
ATOM     17  C   UNL     1      -6.832  12.358  17.740  0.00  0.00    +0.000 C 
ENDROOT
BRANCH   1  19
ATOM     18  C   UNL     1      -7.441  10.150  20.337  0.00  0.00    +0.000 C 
ATOM     19  C   UNL     1      -6.773  10.209  18.968  0.00  0.00    +0.000 C 
ENDBRANCH   1  19
BRANCH   3  20
ATOM     20  C   UNL     1      -2.631  10.559  16.832  0.00  0.00    +0.000 C 
ATOM     21  O   UNL     1      -1.785   9.714  17.105  0.00  0.00    +0.000 OA
BRANCH  20  22
ATOM     22  O   UNL     1      -2.850  11.061  15.595  0.00  0.00    +0.000 OA
ATOM     23  C   UNL     1      -3.023  10.100  14.547  0.00  0.00    +0.000 C 
ENDBRANCH  20  22
ENDBRANCH   3  20
BRANCH  14  24
ATOM     24  O   UNL     1      -4.776  14.615  20.147  0.00  0.00    +0.000 OA
ATOM     25  H   UNL     1      -4.823  14.910  19.216  0.00  0.00    +0.000 HD
ENDBRANCH  14  24
BRANCH   5  26
ATOM     26  C   UNL     1      -0.665  13.012  18.379  0.00  0.00    +0.000 C 
BRANCH  26  27
ATOM     27  C   UNL     1       0.468  11.995  18.487  0.00  0.00    +0.000 C 
BRANCH  27  28
ATOM     28  N   UNL     1       0.513  11.127  19.675  0.00  0.00    +0.000 N 
ATOM     29  H   UNL     1      -0.424  10.950  20.035  0.00  0.00    +0.000 HD
BRANCH  28  30
ATOM     30  C   UNL     1       1.168   9.891  19.391  0.00  0.00    +0.000 A 
ATOM     31  C   UNL     1       1.241   8.831  20.318  0.00  0.00    +0.000 A 
ATOM     32  C   UNL     1       1.892   7.631  20.013  0.00  0.00    +0.000 A 
ATOM     33  C   UNL     1       2.432   7.459  18.750  0.00  0.00    +0.000 A 
ATOM     34  F   UNL     1       3.058   6.312  18.452  0.00  0.00    +0.000 F 
ATOM     35  C   UNL     1       2.320   8.456  17.793  0.00  0.00    +0.000 A 
ATOM     36  C   UNL     1       1.677   9.660  18.106  0.00  0.00    +0.000 A 
ENDBRANCH  28  30
ENDBRANCH  27  28
ENDBRANCH  26  27
ENDBRANCH   5  26
TORSDOF 8
ENDMDL
MODEL 2
REMARK VINA RESULT:      -7.5      6.894     10.783
REMARK  Name = 
REMARK  10 active torsions:
REMARK  status: ('A' for Active; 'I' for Inactive)
REMARK    1  A    between atoms: C_1  and  C_2
REMARK    2  A    between atoms: C_2  and  C_3
REMARK    3  A    between atoms: C_5  and  C_6
REMARK    4  A    between atoms: C_6  and  O_8
REMARK    5  A    between atoms: O_8  and  C_9
REMARK    6  A    between atoms: C_11  and  C_12
REMARK    7  A    between atoms: C_12  and  C_13
REMARK    8  A    between atoms: C_13  and  N_14
REMARK    9  A    between atoms: N_14  and  C_15
REMARK   10  A    between atoms: N_30  and  O_31
REMARK                            x       y       z     vdW  Elec       q    Type
REMARK                         _______ _______ _______ _____ _____    ______ ____
ROOT
ATOM      1  C   UNL     1       3.871   2.956  19.579  0.00  0.00    +0.000 C 
ATOM      2  C   UNL     1       5.203   3.323  18.978  0.00  0.00    +0.000 C 
ATOM      3  C   UNL     1       5.564   4.514  18.463  0.00  0.00    +0.000 C 
ATOM      4  C   UNL     1       4.635   5.604  18.450  0.00  0.00    +0.000 A 
ATOM      5  C   UNL     1       4.496   6.807  17.734  0.00  0.00    +0.000 A 
ATOM      6  C   UNL     1       3.330   7.487  18.289  0.00  0.00    +0.000 A 
ATOM      7  C   UNL     1       2.592   8.663  17.989  0.00  0.00    +0.000 A 
ATOM      8  C   UNL     1       1.424   8.993  18.681  0.00  0.00    +0.000 A 
ATOM      9  C   UNL     1       1.004   8.216  19.743  0.00  0.00    +0.000 A 
ATOM     10  C   UNL     1       1.724   7.080  20.113  0.00  0.00    +0.000 A 
ATOM     11  C   UNL     1       2.845   6.706  19.339  0.00  0.00    +0.000 A 
ATOM     12  N   UNL     1       3.488   5.481  19.228  0.00  0.00    +0.000 N 
ATOM     13  C   UNL     1       2.861   4.186  19.637  0.00  0.00    +0.000 C 
ATOM     14  N   UNL     1       1.492   4.067  18.965  0.00  0.00    +0.000 NA
ATOM     15  C   UNL     1       1.212   2.817  18.271  0.00  0.00    +0.000 C 
ATOM     16  C   UNL     1       2.450   2.254  17.605  0.00  0.00    +0.000 C 
ATOM     17  C   UNL     1       3.335   1.778  18.731  0.00  0.00    +0.000 C 
ENDROOT
BRANCH   1  19
ATOM     18  C   UNL     1       5.204   1.240  21.108  0.00  0.00    +0.000 C 
ATOM     19  C   UNL     1       4.154   2.341  20.998  0.00  0.00    +0.000 C 
ENDBRANCH   1  19
BRANCH   3  20
ATOM     20  C   UNL     1       7.005   4.564  18.035  0.00  0.00    +0.000 C 
ATOM     21  O   UNL     1       7.402   4.108  16.968  0.00  0.00    +0.000 OA
BRANCH  20  22
ATOM     22  O   UNL     1       7.802   5.073  19.002  0.00  0.00    +0.000 OA
ATOM     23  C   UNL     1       8.101   6.471  18.899  0.00  0.00    +0.000 C 
ENDBRANCH  20  22
ENDBRANCH   3  20
BRANCH  14  24
ATOM     24  O   UNL     1       1.364   5.012  17.855  0.00  0.00    +0.000 OA
ATOM     25  H   UNL     1       1.337   4.413  17.083  0.00  0.00    +0.000 HD
ENDBRANCH  14  24
BRANCH   5  26
ATOM     26  C   UNL     1       5.341   7.255  16.531  0.00  0.00    +0.000 C 
BRANCH  26  27
ATOM     27  C   UNL     1       5.279   6.262  15.374  0.00  0.00    +0.000 C 
BRANCH  27  28
ATOM     28  N   UNL     1       6.547   5.734  14.843  0.00  0.00    +0.000 N 
ATOM     29  H   UNL     1       7.129   5.357  15.590  0.00  0.00    +0.000 HD
BRANCH  28  30
ATOM     30  C   UNL     1       6.318   4.734  13.851  0.00  0.00    +0.000 A 
ATOM     31  C   UNL     1       5.092   4.049  13.720  0.00  0.00    +0.000 A 
ATOM     32  C   UNL     1       4.897   3.071  12.739  0.00  0.00    +0.000 A 
ATOM     33  C   UNL     1       5.915   2.806  11.838  0.00  0.00    +0.000 A 
ATOM     34  F   UNL     1       5.735   1.870  10.896  0.00  0.00    +0.000 F 
ATOM     35  C   UNL     1       7.110   3.509  11.898  0.00  0.00    +0.000 A 
ATOM     36  C   UNL     1       7.304   4.479  12.888  0.00  0.00    +0.000 A 
ENDBRANCH  28  30
ENDBRANCH  27  28
ENDBRANCH  26  27
ENDBRANCH   5  26
TORSDOF 8
ENDMDL
MODEL 3
REMARK VINA RESULT:      -7.3      0.751      1.170
REMARK  Name = 
REMARK  10 active torsions:
REMARK  status: ('A' for Active; 'I' for Inactive)
REMARK    1  A    between atoms: C_1  and  C_2
REMARK    2  A    between atoms: C_2  and  C_3
REMARK    3  A    between atoms: C_5  and  C_6
REMARK    4  A    between atoms: C_6  and  O_8
REMARK    5  A    between atoms: O_8  and  C_9
REMARK    6  A    between atoms: C_11  and  C_12
REMARK    7  A    between atoms: C_12  and  C_13
REMARK    8  A    between atoms: C_13  and  N_14
REMARK    9  A    between atoms: N_14  and  C_15
REMARK   10  A    between atoms: N_30  and  O_31
REMARK                            x       y       z     vdW  Elec       q    Type
REMARK                         _______ _______ _______ _____ _____    ______ ____
ROOT
ATOM      1  C   UNL     1      -6.181  12.062  19.547  0.00  0.00    +0.000 C 
ATOM      2  C   UNL     1      -5.195  11.493  18.558  0.00  0.00    +0.000 C 
ATOM      3  C   UNL     1      -3.852  11.578  18.607  0.00  0.00    +0.000 C 
ATOM      4  C   UNL     1      -3.213  12.268  19.687  0.00  0.00    +0.000 A 
ATOM      5  C   UNL     1      -1.955  12.856  19.909  0.00  0.00    +0.000 A 
ATOM      6  C   UNL     1      -1.958  13.334  21.288  0.00  0.00    +0.000 A 
ATOM      7  C   UNL     1      -1.075  14.079  22.116  0.00  0.00    +0.000 A 
ATOM      8  C   UNL     1      -1.433  14.465  23.410  0.00  0.00    +0.000 A 
ATOM      9  C   UNL     1      -2.635  14.051  23.949  0.00  0.00    +0.000 A 
ATOM     10  C   UNL     1      -3.514  13.271  23.197  0.00  0.00    +0.000 A 
ATOM     11  C   UNL     1      -3.181  12.976  21.857  0.00  0.00    +0.000 A 
ATOM     12  N   UNL     1      -3.988  12.581  20.799  0.00  0.00    +0.000 N 
ATOM     13  C   UNL     1      -5.473  12.763  20.790  0.00  0.00    +0.000 C 
ATOM     14  N   UNL     1      -5.793  14.223  21.111  0.00  0.00    +0.000 NA
ATOM     15  C   UNL     1      -6.721  14.901  20.215  0.00  0.00    +0.000 C 
ATOM     16  C   UNL     1      -6.551  14.447  18.781  0.00  0.00    +0.000 C 
ATOM     17  C   UNL     1      -7.077  13.032  18.739  0.00  0.00    +0.000 C 
ENDROOT
BRANCH   1  19
ATOM     18  C   UNL     1      -6.898   9.510  19.375  0.00  0.00    +0.000 C 
ATOM     19  C   UNL     1      -7.136  10.890  19.979  0.00  0.00    +0.000 C 
ENDBRANCH   1  19
BRANCH   3  20
ATOM     20  C   UNL     1      -3.169  10.813  17.508  0.00  0.00    +0.000 C 
ATOM     21  O   UNL     1      -2.540   9.778  17.703  0.00  0.00    +0.000 OA
BRANCH  20  22
ATOM     22  O   UNL     1      -3.252  11.454  16.319  0.00  0.00    +0.000 OA
ATOM     23  C   UNL     1      -3.418  10.621  15.165  0.00  0.00    +0.000 C 
ENDBRANCH  20  22
ENDBRANCH   3  20
BRANCH  14  24
ATOM     24  O   UNL     1      -4.611  15.072  20.947  0.00  0.00    +0.000 OA
ATOM     25  H   UNL     1      -4.937  15.751  20.324  0.00  0.00    +0.000 HD
ENDBRANCH  14  24
BRANCH   5  26
ATOM     26  C   UNL     1      -0.844  13.055  18.865  0.00  0.00    +0.000 C 
BRANCH  26  27
ATOM     27  C   UNL     1       0.108  11.864  18.795  0.00  0.00    +0.000 C 
BRANCH  27  28
ATOM     28  N   UNL     1      -0.149  10.716  19.680  0.00  0.00    +0.000 N 
ATOM     29  H   UNL     1      -1.122  10.418  19.621  0.00  0.00    +0.000 HD
BRANCH  28  30
ATOM     30  C   UNL     1       0.716   9.622  19.376  0.00  0.00    +0.000 A 
ATOM     31  C   UNL     1       1.302   9.436  18.107  0.00  0.00    +0.000 A 
ATOM     32  C   UNL     1       2.145   8.353  17.837  0.00  0.00    +0.000 A 
ATOM     33  C   UNL     1       2.454   7.469  18.857  0.00  0.00    +0.000 A 
ATOM     34  F   UNL     1       3.260   6.428  18.606  0.00  0.00    +0.000 F 
ATOM     35  C   UNL     1       1.947   7.660  20.134  0.00  0.00    +0.000 A 
ATOM     36  C   UNL     1       1.097   8.740  20.397  0.00  0.00    +0.000 A 
ENDBRANCH  28  30
ENDBRANCH  27  28
ENDBRANCH  26  27
ENDBRANCH   5  26
TORSDOF 8
ENDMDL
MODEL 4
REMARK VINA RESULT:      -7.1      1.058      1.468
REMARK  Name = 
REMARK  10 active torsions:
REMARK  status: ('A' for Active; 'I' for Inactive)
REMARK    1  A    between atoms: C_1  and  C_2
REMARK    2  A    between atoms: C_2  and  C_3
REMARK    3  A    between atoms: C_5  and  C_6
REMARK    4  A    between atoms: C_6  and  O_8
REMARK    5  A    between atoms: O_8  and  C_9
REMARK    6  A    between atoms: C_11  and  C_12
REMARK    7  A    between atoms: C_12  and  C_13
REMARK    8  A    between atoms: C_13  and  N_14
REMARK    9  A    between atoms: N_14  and  C_15
REMARK   10  A    between atoms: N_30  and  O_31
REMARK                            x       y       z     vdW  Elec       q    Type
REMARK                         _______ _______ _______ _____ _____    ______ ____
ROOT
ATOM      1  C   UNL     1      -6.049  11.609  18.396  0.00  0.00    +0.000 C 
ATOM      2  C   UNL     1      -4.942  11.106  17.504  0.00  0.00    +0.000 C 
ATOM      3  C   UNL     1      -3.619  11.303  17.659  0.00  0.00    +0.000 C 
ATOM      4  C   UNL     1      -3.129  12.063  18.770  0.00  0.00    +0.000 A 
ATOM      5  C   UNL     1      -1.945  12.757  19.078  0.00  0.00    +0.000 A 
ATOM      6  C   UNL     1      -2.100  13.258  20.440  0.00  0.00    +0.000 A 
ATOM      7  C   UNL     1      -1.352  14.088  21.317  0.00  0.00    +0.000 A 
ATOM      8  C   UNL     1      -1.845  14.466  22.568  0.00  0.00    +0.000 A 
ATOM      9  C   UNL     1      -3.051  13.965  23.019  0.00  0.00    +0.000 A 
ATOM     10  C   UNL     1      -3.798  13.101  22.218  0.00  0.00    +0.000 A 
ATOM     11  C   UNL     1      -3.333  12.810  20.917  0.00  0.00    +0.000 A 
ATOM     12  N   UNL     1      -4.016  12.330  19.807  0.00  0.00    +0.000 N 
ATOM     13  C   UNL     1      -5.504  12.389  19.674  0.00  0.00    +0.000 C 
ATOM     14  N   UNL     1      -5.967  13.823  19.932  0.00  0.00    +0.000 NA
ATOM     15  C   UNL     1      -6.870  14.406  18.947  0.00  0.00    +0.000 C 
ATOM     16  C   UNL     1      -6.547  13.941  17.543  0.00  0.00    +0.000 C 
ATOM     17  C   UNL     1      -6.950  12.487  17.495  0.00  0.00    +0.000 C 
ENDROOT
BRANCH   1  19
ATOM     18  C   UNL     1      -7.286  10.162  20.248  0.00  0.00    +0.000 C 
ATOM     19  C   UNL     1      -6.938  10.370  18.778  0.00  0.00    +0.000 C 
ENDBRANCH   1  19
BRANCH   3  20
ATOM     20  C   UNL     1      -2.788  10.577  16.638  0.00  0.00    +0.000 C 
ATOM     21  O   UNL     1      -1.998   9.685  16.929  0.00  0.00    +0.000 OA
BRANCH  20  22
ATOM     22  O   UNL     1      -2.947  11.093  15.398  0.00  0.00    +0.000 OA
ATOM     23  C   UNL     1      -3.168  10.146  14.345  0.00  0.00    +0.000 C 
ENDBRANCH  20  22
ENDBRANCH   3  20
BRANCH  14  24
ATOM     24  O   UNL     1      -4.848  14.763  19.843  0.00  0.00    +0.000 OA
ATOM     25  H   UNL     1      -4.238  14.413  20.522  0.00  0.00    +0.000 HD
ENDBRANCH  14  24
BRANCH   5  26
ATOM     26  C   UNL     1      -0.771  13.028  18.122  0.00  0.00    +0.000 C 
BRANCH  26  27
ATOM     27  C   UNL     1       0.448  13.595  18.843  0.00  0.00    +0.000 C 
BRANCH  27  28
ATOM     28  N   UNL     1       1.656  12.759  18.929  0.00  0.00    +0.000 N 
ATOM     29  H   UNL     1       2.381  13.219  19.479  0.00  0.00    +0.000 HD
BRANCH  28  30
ATOM     30  C   UNL     1       1.364  11.477  19.481  0.00  0.00    +0.000 A 
ATOM     31  C   UNL     1       1.464  10.281  18.741  0.00  0.00    +0.000 A 
ATOM     32  C   UNL     1       1.169   9.037  19.308  0.00  0.00    +0.000 A 
ATOM     33  C   UNL     1       0.820   8.972  20.646  0.00  0.00    +0.000 A 
ATOM     34  F   UNL     1       0.535   7.784  21.196  0.00  0.00    +0.000 F 
ATOM     35  C   UNL     1       0.776  10.122  21.420  0.00  0.00    +0.000 A 
ATOM     36  C   UNL     1       1.062  11.366  20.846  0.00  0.00    +0.000 A 
ENDBRANCH  28  30
ENDBRANCH  27  28
ENDBRANCH  26  27
ENDBRANCH   5  26
TORSDOF 8
ENDMDL
MODEL 5
REMARK VINA RESULT:      -7.1      3.192      5.312
REMARK  Name = 
REMARK  10 active torsions:
REMARK  status: ('A' for Active; 'I' for Inactive)
REMARK    1  A    between atoms: C_1  and  C_2
REMARK    2  A    between atoms: C_2  and  C_3
REMARK    3  A    between atoms: C_5  and  C_6
REMARK    4  A    between atoms: C_6  and  O_8
REMARK    5  A    between atoms: O_8  and  C_9
REMARK    6  A    between atoms: C_11  and  C_12
REMARK    7  A    between atoms: C_12  and  C_13
REMARK    8  A    between atoms: C_13  and  N_14
REMARK    9  A    between atoms: N_14  and  C_15
REMARK   10  A    between atoms: N_30  and  O_31
REMARK                            x       y       z     vdW  Elec       q    Type
REMARK                         _______ _______ _______ _____ _____    ______ ____
ROOT
ATOM      1  C   UNL     1      -3.036  13.381  23.113  0.00  0.00    +0.000 C 
ATOM      2  C   UNL     1      -2.245  12.102  23.014  0.00  0.00    +0.000 C 
ATOM      3  C   UNL     1      -1.025  11.939  22.468  0.00  0.00    +0.000 C 
ATOM      4  C   UNL     1      -0.336  13.058  21.896  0.00  0.00    +0.000 A 
ATOM      5  C   UNL     1       0.709  13.239  20.974  0.00  0.00    +0.000 A 
ATOM      6  C   UNL     1       0.953  14.676  20.901  0.00  0.00    +0.000 A 
ATOM      7  C   UNL     1       1.779  15.537  20.129  0.00  0.00    +0.000 A 
ATOM      8  C   UNL     1       1.701  16.927  20.244  0.00  0.00    +0.000 A 
ATOM      9  C   UNL     1       0.868  17.499  21.186  0.00  0.00    +0.000 A 
ATOM     10  C   UNL     1       0.077  16.695  22.008  0.00  0.00    +0.000 A 
ATOM     11  C   UNL     1       0.095  15.297  21.808  0.00  0.00    +0.000 A 
ATOM     12  N   UNL     1      -0.827  14.328  22.181  0.00  0.00    +0.000 N 
ATOM     13  C   UNL     1      -2.242  14.642  22.549  0.00  0.00    +0.000 C 
ATOM     14  N   UNL     1      -2.866  15.486  21.437  0.00  0.00    +0.000 NA
ATOM     15  C   UNL     1      -4.161  15.048  20.932  0.00  0.00    +0.000 C 
ATOM     16  C   UNL     1      -4.274  13.538  20.910  0.00  0.00    +0.000 C 
ATOM     17  C   UNL     1      -4.361  13.117  22.357  0.00  0.00    +0.000 C 
ENDROOT
BRANCH   1  19
ATOM     18  C   UNL     1      -3.081  14.856  25.322  0.00  0.00    +0.000 C 
ATOM     19  C   UNL     1      -3.454  13.555  24.618  0.00  0.00    +0.000 C 
ENDBRANCH   1  19
BRANCH   3  20
ATOM     20  C   UNL     1      -0.485  10.545  22.626  0.00  0.00    +0.000 C 
ATOM     21  O   UNL     1       0.052  10.147  23.654  0.00  0.00    +0.000 OA
BRANCH  20  22
ATOM     22  O   UNL     1      -0.576   9.835  21.478  0.00  0.00    +0.000 OA
ATOM     23  C   UNL     1      -0.377   8.420  21.595  0.00  0.00    +0.000 C 
ENDBRANCH  20  22
ENDBRANCH   3  20
BRANCH  14  24
ATOM     24  O   UNL     1      -2.072  15.411  20.209  0.00  0.00    +0.000 OA
ATOM     25  H   UNL     1      -1.191  15.697  20.522  0.00  0.00    +0.000 HD
ENDBRANCH  14  24
BRANCH   5  26
ATOM     26  C   UNL     1       1.380  12.144  20.128  0.00  0.00    +0.000 C 
BRANCH  26  27
ATOM     27  C   UNL     1       0.699  11.955  18.776  0.00  0.00    +0.000 C 
BRANCH  27  28
ATOM     28  N   UNL     1       0.179  10.619  18.440  0.00  0.00    +0.000 N 
ATOM     29  H   UNL     1       0.292   9.975  19.221  0.00  0.00    +0.000 HD
BRANCH  28  30
ATOM     30  C   UNL     1      -1.193  10.678  18.052  0.00  0.00    +0.000 A 
ATOM     31  C   UNL     1      -1.748   9.837  17.064  0.00  0.00    +0.000 A 
ATOM     32  C   UNL     1      -3.096   9.919  16.702  0.00  0.00    +0.000 A 
ATOM     33  C   UNL     1      -3.921  10.810  17.367  0.00  0.00    +0.000 A 
ATOM     34  F   UNL     1      -5.214  10.894  17.025  0.00  0.00    +0.000 F 
ATOM     35  C   UNL     1      -3.422  11.605  18.389  0.00  0.00    +0.000 A 
ATOM     36  C   UNL     1      -2.069  11.527  18.741  0.00  0.00    +0.000 A 
ENDBRANCH  28  30
ENDBRANCH  27  28
ENDBRANCH  26  27
ENDBRANCH   5  26
TORSDOF 8
ENDMDL
MODEL 6
REMARK VINA RESULT:      -7.0      1.112      1.370
REMARK  Name = 
REMARK  10 active torsions:
REMARK  status: ('A' for Active; 'I' for Inactive)
REMARK    1  A    between atoms: C_1  and  C_2
REMARK    2  A    between atoms: C_2  and  C_3
REMARK    3  A    between atoms: C_5  and  C_6
REMARK    4  A    between atoms: C_6  and  O_8
REMARK    5  A    between atoms: O_8  and  C_9
REMARK    6  A    between atoms: C_11  and  C_12
REMARK    7  A    between atoms: C_12  and  C_13
REMARK    8  A    between atoms: C_13  and  N_14
REMARK    9  A    between atoms: N_14  and  C_15
REMARK   10  A    between atoms: N_30  and  O_31
REMARK                            x       y       z     vdW  Elec       q    Type
REMARK                         _______ _______ _______ _____ _____    ______ ____
ROOT
ATOM      1  C   UNL     1      -6.237  12.570  20.125  0.00  0.00    +0.000 C 
ATOM      2  C   UNL     1      -5.571  11.808  19.007  0.00  0.00    +0.000 C 
ATOM      3  C   UNL     1      -4.249  11.649  18.805  0.00  0.00    +0.000 C 
ATOM      4  C   UNL     1      -3.306  12.236  19.709  0.00  0.00    +0.000 A 
ATOM      5  C   UNL     1      -1.946  12.590  19.664  0.00  0.00    +0.000 A 
ATOM      6  C   UNL     1      -1.604  13.092  20.991  0.00  0.00    +0.000 A 
ATOM      7  C   UNL     1      -0.464  13.682  21.599  0.00  0.00    +0.000 A 
ATOM      8  C   UNL     1      -0.496  14.157  22.913  0.00  0.00    +0.000 A 
ATOM      9  C   UNL     1      -1.628  13.981  23.686  0.00  0.00    +0.000 A 
ATOM     10  C   UNL     1      -2.756  13.357  23.152  0.00  0.00    +0.000 A 
ATOM     11  C   UNL     1      -2.740  12.975  21.793  0.00  0.00    +0.000 A 
ATOM     12  N   UNL     1      -3.790  12.710  20.924  0.00  0.00    +0.000 N 
ATOM     13  C   UNL     1      -5.194  13.158  21.176  0.00  0.00    +0.000 C 
ATOM     14  N   UNL     1      -5.188  14.660  21.467  0.00  0.00    +0.000 NA
ATOM     15  C   UNL     1      -6.136  15.475  20.718  0.00  0.00    +0.000 C 
ATOM     16  C   UNL     1      -6.324  14.964  19.306  0.00  0.00    +0.000 C 
ATOM     17  C   UNL     1      -7.086  13.668  19.441  0.00  0.00    +0.000 C 
ENDROOT
BRANCH   1  19
ATOM     18  C   UNL     1      -7.340  10.159  20.297  0.00  0.00    +0.000 C 
ATOM     19  C   UNL     1      -7.281  11.601  20.790  0.00  0.00    +0.000 C 
ENDBRANCH   1  19
BRANCH   3  20
ATOM     20  C   UNL     1      -3.932  10.747  17.645  0.00  0.00    +0.000 C 
ATOM     21  O   UNL     1      -3.662   9.558  17.775  0.00  0.00    +0.000 OA
BRANCH  20  22
ATOM     22  O   UNL     1      -3.885  11.425  16.475  0.00  0.00    +0.000 OA
ATOM     23  C   UNL     1      -3.291  10.735  15.370  0.00  0.00    +0.000 C 
ENDBRANCH  20  22
ENDBRANCH   3  20
BRANCH  14  24
ATOM     24  O   UNL     1      -3.929  15.275  21.042  0.00  0.00    +0.000 OA
ATOM     25  H   UNL     1      -3.732  15.869  21.794  0.00  0.00    +0.000 HD
ENDBRANCH  14  24
BRANCH   5  26
ATOM     26  C   UNL     1      -1.036  12.559  18.424  0.00  0.00    +0.000 C 
BRANCH  26  27
ATOM     27  C   UNL     1      -0.458  11.171  18.162  0.00  0.00    +0.000 C 
BRANCH  27  28
ATOM     28  N   UNL     1       1.006  11.022  18.135  0.00  0.00    +0.000 N 
ATOM     29  H   UNL     1       1.461  11.779  18.642  0.00  0.00    +0.000 HD
BRANCH  28  30
ATOM     30  C   UNL     1       1.411   9.763  18.670  0.00  0.00    +0.000 A 
ATOM     31  C   UNL     1       1.122   9.362  19.992  0.00  0.00    +0.000 A 
ATOM     32  C   UNL     1       1.533   8.122  20.490  0.00  0.00    +0.000 A 
ATOM     33  C   UNL     1       2.194   7.242  19.650  0.00  0.00    +0.000 A 
ATOM     34  F   UNL     1       2.591   6.052  20.122  0.00  0.00    +0.000 F 
ATOM     35  C   UNL     1       2.435   7.578  18.326  0.00  0.00    +0.000 A 
ATOM     36  C   UNL     1       2.031   8.825  17.834  0.00  0.00    +0.000 A 
ENDBRANCH  28  30
ENDBRANCH  27  28
ENDBRANCH  26  27
ENDBRANCH   5  26
TORSDOF 8
ENDMDL
MODEL 7
REMARK VINA RESULT:      -7.0      3.391      7.971
REMARK  Name = 
REMARK  10 active torsions:
REMARK  status: ('A' for Active; 'I' for Inactive)
REMARK    1  A    between atoms: C_1  and  C_2
REMARK    2  A    between atoms: C_2  and  C_3
REMARK    3  A    between atoms: C_5  and  C_6
REMARK    4  A    between atoms: C_6  and  O_8
REMARK    5  A    between atoms: O_8  and  C_9
REMARK    6  A    between atoms: C_11  and  C_12
REMARK    7  A    between atoms: C_12  and  C_13
REMARK    8  A    between atoms: C_13  and  N_14
REMARK    9  A    between atoms: N_14  and  C_15
REMARK   10  A    between atoms: N_30  and  O_31
REMARK                            x       y       z     vdW  Elec       q    Type
REMARK                         _______ _______ _______ _____ _____    ______ ____
ROOT
ATOM      1  C   UNL     1       0.162  11.830  20.912  0.00  0.00    +0.000 C 
ATOM      2  C   UNL     1      -0.920  12.246  21.877  0.00  0.00    +0.000 C 
ATOM      3  C   UNL     1      -2.236  12.363  21.622  0.00  0.00    +0.000 C 
ATOM      4  C   UNL     1      -2.745  12.079  20.314  0.00  0.00    +0.000 A 
ATOM      5  C   UNL     1      -3.905  12.402  19.586  0.00  0.00    +0.000 A 
ATOM      6  C   UNL     1      -3.798  11.708  18.307  0.00  0.00    +0.000 A 
ATOM      7  C   UNL     1      -4.547  11.664  17.100  0.00  0.00    +0.000 A 
ATOM      8  C   UNL     1      -4.105  10.946  15.987  0.00  0.00    +0.000 A 
ATOM      9  C   UNL     1      -2.955  10.184  16.066  0.00  0.00    +0.000 A 
ATOM     10  C   UNL     1      -2.212  10.150  17.246  0.00  0.00    +0.000 A 
ATOM     11  C   UNL     1      -2.620  10.961  18.328  0.00  0.00    +0.000 A 
ATOM     12  N   UNL     1      -1.904  11.415  19.427  0.00  0.00    +0.000 N 
ATOM     13  C   UNL     1      -0.409  11.438  19.478  0.00  0.00    +0.000 C 
ATOM     14  N   UNL     1       0.116  12.162  18.237  0.00  0.00    +0.000 NA
ATOM     15  C   UNL     1       1.102  13.212  18.461  0.00  0.00    +0.000 C 
ATOM     16  C   UNL     1       0.832  13.973  19.742  0.00  0.00    +0.000 C 
ATOM     17  C   UNL     1       1.158  13.013  20.860  0.00  0.00    +0.000 C 
ENDROOT
BRANCH   1  19
ATOM     18  C   UNL     1       0.204   9.716  22.520  0.00  0.00    +0.000 C 
ATOM     19  C   UNL     1       0.960  10.655  21.586  0.00  0.00    +0.000 C 
ENDBRANCH   1  19
BRANCH   3  20
ATOM     20  C   UNL     1      -3.048  12.706  22.841  0.00  0.00    +0.000 C 
ATOM     21  O   UNL     1      -4.049  12.081  23.176  0.00  0.00    +0.000 OA
BRANCH  20  22
ATOM     22  O   UNL     1      -2.599  13.828  23.447  0.00  0.00    +0.000 OA
ATOM     23  C   UNL     1      -3.087  15.068  22.919  0.00  0.00    +0.000 C 
ENDBRANCH  20  22
ENDBRANCH   3  20
BRANCH  14  24
ATOM     24  O   UNL     1      -0.943  12.939  17.590  0.00  0.00    +0.000 OA
ATOM     25  H   UNL     1      -1.716  12.349  17.696  0.00  0.00    +0.000 HD
ENDBRANCH  14  24
BRANCH   5  26
ATOM     26  C   UNL     1      -5.008  13.383  20.016  0.00  0.00    +0.000 C 
BRANCH  26  27
ATOM     27  C   UNL     1      -6.377  12.717  20.105  0.00  0.00    +0.000 C 
BRANCH  27  28
ATOM     28  N   UNL     1      -7.571  13.547  19.873  0.00  0.00    +0.000 N 
ATOM     29  H   UNL     1      -7.775  14.130  20.683  0.00  0.00    +0.000 HD
BRANCH  28  30
ATOM     30  C   UNL     1      -7.419  14.361  18.711  0.00  0.00    +0.000 A 
ATOM     31  C   UNL     1      -7.526  13.853  17.399  0.00  0.00    +0.000 A 
ATOM     32  C   UNL     1      -7.372  14.675  16.278  0.00  0.00    +0.000 A 
ATOM     33  C   UNL     1      -7.160  16.031  16.459  0.00  0.00    +0.000 A 
ATOM     34  F   UNL     1      -7.010  16.824  15.389  0.00  0.00    +0.000 F 
ATOM     35  C   UNL     1      -7.116  16.573  17.735  0.00  0.00    +0.000 A 
ATOM     36  C   UNL     1      -7.261  15.746  18.855  0.00  0.00    +0.000 A 
ENDBRANCH  28  30
ENDBRANCH  27  28
ENDBRANCH  26  27
ENDBRANCH   5  26
TORSDOF 8
ENDMDL
MODEL 8
REMARK VINA RESULT:      -7.0      3.073      6.609
REMARK  Name = 
REMARK  10 active torsions:
REMARK  status: ('A' for Active; 'I' for Inactive)
REMARK    1  A    between atoms: C_1  and  C_2
REMARK    2  A    between atoms: C_2  and  C_3
REMARK    3  A    between atoms: C_5  and  C_6
REMARK    4  A    between atoms: C_6  and  O_8
REMARK    5  A    between atoms: O_8  and  C_9
REMARK    6  A    between atoms: C_11  and  C_12
REMARK    7  A    between atoms: C_12  and  C_13
REMARK    8  A    between atoms: C_13  and  N_14
REMARK    9  A    between atoms: N_14  and  C_15
REMARK   10  A    between atoms: N_30  and  O_31
REMARK                            x       y       z     vdW  Elec       q    Type
REMARK                         _______ _______ _______ _____ _____    ______ ____
ROOT
ATOM      1  C   UNL     1       0.387   9.575  20.103  0.00  0.00    +0.000 C 
ATOM      2  C   UNL     1      -0.751   9.621  19.115  0.00  0.00    +0.000 C 
ATOM      3  C   UNL     1      -1.625  10.628  18.927  0.00  0.00    +0.000 C 
ATOM      4  C   UNL     1      -1.529  11.822  19.711  0.00  0.00    +0.000 A 
ATOM      5  C   UNL     1      -2.391  12.877  20.059  0.00  0.00    +0.000 A 
ATOM      6  C   UNL     1      -1.601  13.815  20.850  0.00  0.00    +0.000 A 
ATOM      7  C   UNL     1      -1.854  15.011  21.574  0.00  0.00    +0.000 A 
ATOM      8  C   UNL     1      -0.861  15.635  22.331  0.00  0.00    +0.000 A 
ATOM      9  C   UNL     1       0.430  15.140  22.325  0.00  0.00    +0.000 A 
ATOM     10  C   UNL     1       0.743  13.999  21.586  0.00  0.00    +0.000 A 
ATOM     11  C   UNL     1      -0.296  13.325  20.907  0.00  0.00    +0.000 A 
ATOM     12  N   UNL     1      -0.362  12.018  20.442  0.00  0.00    +0.000 N 
ATOM     13  C   UNL     1       0.546  10.931  20.923  0.00  0.00    +0.000 C 
ATOM     14  N   UNL     1       0.505  10.894  22.451  0.00  0.00    +0.000 NA
ATOM     15  C   UNL     1       0.282   9.592  23.067  0.00  0.00    +0.000 C 
ATOM     16  C   UNL     1      -0.662   8.737  22.249  0.00  0.00    +0.000 C 
ATOM     17  C   UNL     1       0.110   8.352  21.010  0.00  0.00    +0.000 C 
ENDROOT
BRANCH   1  19
ATOM     18  C   UNL     1       1.699   9.455  17.795  0.00  0.00    +0.000 C 
ATOM     19  C   UNL     1       1.685   9.201  19.299  0.00  0.00    +0.000 C 
ENDBRANCH   1  19
BRANCH   3  20
ATOM     20  C   UNL     1      -2.578  10.381  17.789  0.00  0.00    +0.000 C 
ATOM     21  O   UNL     1      -3.423   9.493  17.804  0.00  0.00    +0.000 OA
BRANCH  20  22
ATOM     22  O   UNL     1      -2.319  11.184  16.731  0.00  0.00    +0.000 OA
ATOM     23  C   UNL     1      -2.966  10.833  15.501  0.00  0.00    +0.000 C 
ENDBRANCH  20  22
ENDBRANCH   3  20
BRANCH  14  24
ATOM     24  O   UNL     1      -0.655  11.624  22.967  0.00  0.00    +0.000 OA
ATOM     25  H   UNL     1      -1.236  11.658  22.181  0.00  0.00    +0.000 HD
ENDBRANCH  14  24
BRANCH   5  26
ATOM     26  C   UNL     1      -3.897  12.962  19.757  0.00  0.00    +0.000 C 
BRANCH  26  27
ATOM     27  C   UNL     1      -4.710  11.957  20.568  0.00  0.00    +0.000 C 
BRANCH  27  28
ATOM     28  N   UNL     1      -5.707  12.475  21.519  0.00  0.00    +0.000 N 
ATOM     29  H   UNL     1      -6.271  11.720  21.908  0.00  0.00    +0.000 HD
BRANCH  28  30
ATOM     30  C   UNL     1      -5.086  13.212  22.572  0.00  0.00    +0.000 A 
ATOM     31  C   UNL     1      -4.102  12.661  23.419  0.00  0.00    +0.000 A 
ATOM     32  C   UNL     1      -3.512  13.406  24.444  0.00  0.00    +0.000 A 
ATOM     33  C   UNL     1      -3.864  14.736  24.600  0.00  0.00    +0.000 A 
ATOM     34  F   UNL     1      -3.304  15.457  25.581  0.00  0.00    +0.000 F 
ATOM     35  C   UNL     1      -4.781  15.328  23.742  0.00  0.00    +0.000 A 
ATOM     36  C   UNL     1      -5.376  14.575  22.724  0.00  0.00    +0.000 A 
ENDBRANCH  28  30
ENDBRANCH  27  28
ENDBRANCH  26  27
ENDBRANCH   5  26
TORSDOF 8
ENDMDL
MODEL 9
REMARK VINA RESULT:      -6.8      1.668      4.347
REMARK  Name = 
REMARK  10 active torsions:
REMARK  status: ('A' for Active; 'I' for Inactive)
REMARK    1  A    between atoms: C_1  and  C_2
REMARK    2  A    between atoms: C_2  and  C_3
REMARK    3  A    between atoms: C_5  and  C_6
REMARK    4  A    between atoms: C_6  and  O_8
REMARK    5  A    between atoms: O_8  and  C_9
REMARK    6  A    between atoms: C_11  and  C_12
REMARK    7  A    between atoms: C_12  and  C_13
REMARK    8  A    between atoms: C_13  and  N_14
REMARK    9  A    between atoms: N_14  and  C_15
REMARK   10  A    between atoms: N_30  and  O_31
REMARK                            x       y       z     vdW  Elec       q    Type
REMARK                         _______ _______ _______ _____ _____    ______ ____
ROOT
ATOM      1  C   UNL     1      -5.920  13.398  19.930  0.00  0.00    +0.000 C 
ATOM      2  C   UNL     1      -4.679  13.650  20.748  0.00  0.00    +0.000 C 
ATOM      3  C   UNL     1      -3.445  13.156  20.529  0.00  0.00    +0.000 C 
ATOM      4  C   UNL     1      -3.203  12.288  19.415  0.00  0.00    +0.000 A 
ATOM      5  C   UNL     1      -2.227  11.340  19.064  0.00  0.00    +0.000 A 
ATOM      6  C   UNL     1      -2.569  10.868  17.726  0.00  0.00    +0.000 A 
ATOM      7  C   UNL     1      -2.078   9.877  16.833  0.00  0.00    +0.000 A 
ATOM      8  C   UNL     1      -2.715   9.602  15.621  0.00  0.00    +0.000 A 
ATOM      9  C   UNL     1      -3.800  10.358  15.220  0.00  0.00    +0.000 A 
ATOM     10  C   UNL     1      -4.286  11.380  16.036  0.00  0.00    +0.000 A 
ATOM     11  C   UNL     1      -3.693  11.576  17.303  0.00  0.00    +0.000 A 
ATOM     12  N   UNL     1      -4.186  12.215  18.433  0.00  0.00    +0.000 N 
ATOM     13  C   UNL     1      -5.639  12.497  18.646  0.00  0.00    +0.000 C 
ATOM     14  N   UNL     1      -6.428  11.201  18.451  0.00  0.00    +0.000 NA
ATOM     15  C   UNL     1      -7.381  10.853  19.497  0.00  0.00    +0.000 C 
ATOM     16  C   UNL     1      -6.881  11.253  20.869  0.00  0.00    +0.000 C 
ATOM     17  C   UNL     1      -6.943  12.761  20.900  0.00  0.00    +0.000 C 
ENDROOT
BRANCH   1  19
ATOM     18  C   UNL     1      -7.612  14.856  18.491  0.00  0.00    +0.000 C 
ATOM     19  C   UNL     1      -6.526  14.801  19.561  0.00  0.00    +0.000 C 
ENDBRANCH   1  19
BRANCH   3  20
ATOM     20  C   UNL     1      -2.415  13.689  21.485  0.00  0.00    +0.000 C 
ATOM     21  O   UNL     1      -2.047  13.078  22.483  0.00  0.00    +0.000 OA
BRANCH  20  22
ATOM     22  O   UNL     1      -2.029  14.945  21.164  0.00  0.00    +0.000 OA
ATOM     23  C   UNL     1      -0.997  15.054  20.176  0.00  0.00    +0.000 C 
ENDBRANCH  20  22
ENDBRANCH   3  20
BRANCH  14  24
ATOM     24  O   UNL     1      -5.547  10.033  18.507  0.00  0.00    +0.000 OA
ATOM     25  H   UNL     1      -4.747  10.406  18.928  0.00  0.00    +0.000 HD
ENDBRANCH  14  24
BRANCH   5  26
ATOM     26  C   UNL     1      -1.092  10.824  19.964  0.00  0.00    +0.000 C 
BRANCH  26  27
ATOM     27  C   UNL     1       0.260  11.432  19.602  0.00  0.00    +0.000 C 
BRANCH  27  28
ATOM     28  N   UNL     1       1.009  10.843  18.479  0.00  0.00    +0.000 N 
ATOM     29  H   UNL     1       1.807  11.424  18.226  0.00  0.00    +0.000 HD
BRANCH  28  30
ATOM     30  C   UNL     1       1.444   9.519  18.782  0.00  0.00    +0.000 A 
ATOM     31  C   UNL     1       2.078   8.684  17.838  0.00  0.00    +0.000 A 
ATOM     32  C   UNL     1       2.493   7.389  18.163  0.00  0.00    +0.000 A 
ATOM     33  C   UNL     1       2.327   6.932  19.459  0.00  0.00    +0.000 A 
ATOM     34  F   UNL     1       2.722   5.692  19.778  0.00  0.00    +0.000 F 
ATOM     35  C   UNL     1       1.767   7.751  20.429  0.00  0.00    +0.000 A 
ATOM     36  C   UNL     1       1.344   9.043  20.097  0.00  0.00    +0.000 A 
ENDBRANCH  28  30
ENDBRANCH  27  28
ENDBRANCH  26  27
ENDBRANCH   5  26
TORSDOF 8
ENDMDL
