MODEL 1
REMARK VINA RESULT:      -6.6      0.000      0.000
REMARK  Name = 
REMARK  4 active torsions:
REMARK  status: ('A' for Active; 'I' for Inactive)
REMARK    1  A    between atoms: C_1  and  N_2
REMARK    2  A    between atoms: C_3  and  C_4
REMARK    3  A    between atoms: C_10  and  C_11
REMARK    4  A    between atoms: C_11  and  C_13
REMARK                            x       y       z     vdW  Elec       q    Type
REMARK                         _______ _______ _______ _____ _____    ______ ____
ROOT
ATOM      1  C   UNL     1       3.975   7.667  17.034  0.00  0.00    +0.000 C 
ATOM      2  N   UNL     1       3.833   6.490  17.873  0.00  0.00    +0.000 N 
ATOM      3  C   UNL     1       4.409   5.233  17.700  0.00  0.00    +0.000 A 
ATOM      4  C   UNL     1       3.871   4.414  18.708  0.00  0.00    +0.000 A 
ATOM      5  C   UNL     1       2.966   5.222  19.487  0.00  0.00    +0.000 A 
ATOM      6  C   UNL     1       2.130   4.970  20.600  0.00  0.00    +0.000 A 
ATOM      7  C   UNL     1       1.368   6.004  21.156  0.00  0.00    +0.000 A 
ATOM      8  C   UNL     1       1.429   7.286  20.626  0.00  0.00    +0.000 A 
ATOM      9  C   UNL     1       2.239   7.562  19.524  0.00  0.00    +0.000 A 
ATOM     10  C   UNL     1       2.994   6.510  18.970  0.00  0.00    +0.000 A 
ENDROOT
BRANCH   3  11
ATOM     11  C   UNL     1       5.309   4.910  16.569  0.00  0.00    +0.000 A 
ATOM     12  C   UNL     1       6.690   5.149  16.647  0.00  0.00    +0.000 A 
ATOM     13  C   UNL     1       7.517   4.980  15.533  0.00  0.00    +0.000 A 
ATOM     14  C   UNL     1       6.995   4.466  14.352  0.00  0.00    +0.000 A 
ATOM     15  C   UNL     1       5.645   4.134  14.282  0.00  0.00    +0.000 A 
ATOM     16  C   UNL     1       4.801   4.388  15.369  0.00  0.00    +0.000 A 
ENDBRANCH   3  11
BRANCH   4  17
ATOM     17  C   UNL     1       4.108   2.987  18.968  0.00  0.00    +0.000 C 
ATOM     18  O   UNL     1       4.929   2.638  19.824  0.00  0.00    +0.000 OA
BRANCH  17  19
ATOM     19  C   UNL     1       3.369   1.925  18.175  0.00  0.00    +0.000 C 
ATOM     20 CL   UNL     1       1.616   2.101  18.410  0.00  0.00    +0.000 Cl
ENDBRANCH  17  19
ENDBRANCH   4  17
TORSDOF 3
ENDMDL
MODEL 2
REMARK VINA RESULT:      -6.4      2.449      5.980
REMARK  Name = 
REMARK  4 active torsions:
REMARK  status: ('A' for Active; 'I' for Inactive)
REMARK    1  A    between atoms: C_1  and  N_2
REMARK    2  A    between atoms: C_3  and  C_4
REMARK    3  A    between atoms: C_10  and  C_11
REMARK    4  A    between atoms: C_11  and  C_13
REMARK                            x       y       z     vdW  Elec       q    Type
REMARK                         _______ _______ _______ _____ _____    ______ ____
ROOT
ATOM      1  C   UNL     1       2.940   3.157  16.542  0.00  0.00    +0.000 C 
ATOM      2  N   UNL     1       4.222   3.750  16.880  0.00  0.00    +0.000 N 
ATOM      3  C   UNL     1       4.668   4.190  18.125  0.00  0.00    +0.000 A 
ATOM      4  C   UNL     1       5.921   4.787  17.903  0.00  0.00    +0.000 A 
ATOM      5  C   UNL     1       6.208   4.683  16.494  0.00  0.00    +0.000 A 
ATOM      6  C   UNL     1       7.284   5.099  15.675  0.00  0.00    +0.000 A 
ATOM      7  C   UNL     1       7.274   4.818  14.304  0.00  0.00    +0.000 A 
ATOM      8  C   UNL     1       6.214   4.123  13.736  0.00  0.00    +0.000 A 
ATOM      9  C   UNL     1       5.138   3.705  14.519  0.00  0.00    +0.000 A 
ATOM     10  C   UNL     1       5.156   4.002  15.895  0.00  0.00    +0.000 A 
ENDROOT
BRANCH   3  11
ATOM     11  C   UNL     1       3.844   4.097  19.353  0.00  0.00    +0.000 A 
ATOM     12  C   UNL     1       3.774   2.907  20.093  0.00  0.00    +0.000 A 
ATOM     13  C   UNL     1       2.889   2.774  21.166  0.00  0.00    +0.000 A 
ATOM     14  C   UNL     1       2.136   3.865  21.584  0.00  0.00    +0.000 A 
ATOM     15  C   UNL     1       2.259   5.083  20.921  0.00  0.00    +0.000 A 
ATOM     16  C   UNL     1       3.079   5.188  19.793  0.00  0.00    +0.000 A 
ENDBRANCH   3  11
BRANCH   4  17
ATOM     17  C   UNL     1       6.818   5.444  18.864  0.00  0.00    +0.000 C 
ATOM     18  O   UNL     1       6.765   5.154  20.064  0.00  0.00    +0.000 OA
BRANCH  17  19
ATOM     19  C   UNL     1       7.801   6.503  18.402  0.00  0.00    +0.000 C 
ATOM     20 CL   UNL     1       6.928   7.861  17.659  0.00  0.00    +0.000 Cl
ENDBRANCH  17  19
ENDBRANCH   4  17
TORSDOF 3
ENDMDL
MODEL 3
REMARK VINA RESULT:      -6.3      0.198      1.089
REMARK  Name = 
REMARK  4 active torsions:
REMARK  status: ('A' for Active; 'I' for Inactive)
REMARK    1  A    between atoms: C_1  and  N_2
REMARK    2  A    between atoms: C_3  and  C_4
REMARK    3  A    between atoms: C_10  and  C_11
REMARK    4  A    between atoms: C_11  and  C_13
REMARK                            x       y       z     vdW  Elec       q    Type
REMARK                         _______ _______ _______ _____ _____    ______ ____
ROOT
ATOM      1  C   UNL     1       3.875   7.768  17.047  0.00  0.00    +0.000 C 
ATOM      2  N   UNL     1       3.790   6.572  17.865  0.00  0.00    +0.000 N 
ATOM      3  C   UNL     1       4.399   5.336  17.653  0.00  0.00    +0.000 A 
ATOM      4  C   UNL     1       3.911   4.482  18.657  0.00  0.00    +0.000 A 
ATOM      5  C   UNL     1       3.003   5.247  19.475  0.00  0.00    +0.000 A 
ATOM      6  C   UNL     1       2.205   4.948  20.604  0.00  0.00    +0.000 A 
ATOM      7  C   UNL     1       1.426   5.947  21.200  0.00  0.00    +0.000 A 
ATOM      8  C   UNL     1       1.435   7.241  20.694  0.00  0.00    +0.000 A 
ATOM      9  C   UNL     1       2.208   7.562  19.578  0.00  0.00    +0.000 A 
ATOM     10  C   UNL     1       2.980   6.545  18.983  0.00  0.00    +0.000 A 
ENDROOT
BRANCH   3  11
ATOM     11  C   UNL     1       5.279   5.062  16.493  0.00  0.00    +0.000 A 
ATOM     12  C   UNL     1       4.799   4.388  15.360  0.00  0.00    +0.000 A 
ATOM     13  C   UNL     1       5.660   4.003  14.329  0.00  0.00    +0.000 A 
ATOM     14  C   UNL     1       6.998   4.380  14.364  0.00  0.00    +0.000 A 
ATOM     15  C   UNL     1       7.475   5.131  15.435  0.00  0.00    +0.000 A 
ATOM     16  C   UNL     1       6.631   5.438  16.508  0.00  0.00    +0.000 A 
ENDBRANCH   3  11
BRANCH   4  17
ATOM     17  C   UNL     1       4.197   3.058  18.883  0.00  0.00    +0.000 C 
ATOM     18  O   UNL     1       5.098   2.719  19.659  0.00  0.00    +0.000 OA
BRANCH  17  19
ATOM     19  C   UNL     1       3.411   1.988  18.150  0.00  0.00    +0.000 C 
ATOM     20 CL   UNL     1       1.824   1.764  18.920  0.00  0.00    +0.000 Cl
ENDBRANCH  17  19
ENDBRANCH   4  17
TORSDOF 3
ENDMDL
MODEL 4
REMARK VINA RESULT:      -6.3      2.355      3.473
REMARK  Name = 
REMARK  4 active torsions:
REMARK  status: ('A' for Active; 'I' for Inactive)
REMARK    1  A    between atoms: C_1  and  N_2
REMARK    2  A    between atoms: C_3  and  C_4
REMARK    3  A    between atoms: C_10  and  C_11
REMARK    4  A    between atoms: C_11  and  C_13
REMARK                            x       y       z     vdW  Elec       q    Type
REMARK                         _______ _______ _______ _____ _____    ______ ____
ROOT
ATOM      1  C   UNL     1       4.172   1.704  17.688  0.00  0.00    +0.000 C 
ATOM      2  N   UNL     1       3.677   3.036  17.987  0.00  0.00    +0.000 N 
ATOM      3  C   UNL     1       4.082   4.251  17.438  0.00  0.00    +0.000 A 
ATOM      4  C   UNL     1       3.384   5.249  18.141  0.00  0.00    +0.000 A 
ATOM      5  C   UNL     1       2.550   4.593  19.116  0.00  0.00    +0.000 A 
ATOM      6  C   UNL     1       1.648   5.047  20.107  0.00  0.00    +0.000 A 
ATOM      7  C   UNL     1       0.955   4.128  20.902  0.00  0.00    +0.000 A 
ATOM      8  C   UNL     1       1.139   2.763  20.722  0.00  0.00    +0.000 A 
ATOM      9  C   UNL     1       2.026   2.287  19.757  0.00  0.00    +0.000 A 
ATOM     10  C   UNL     1       2.724   3.223  18.970  0.00  0.00    +0.000 A 
ENDROOT
BRANCH   3  11
ATOM     11  C   UNL     1       5.135   4.354  16.401  0.00  0.00    +0.000 A 
ATOM     12  C   UNL     1       6.472   4.602  16.745  0.00  0.00    +0.000 A 
ATOM     13  C   UNL     1       7.438   4.841  15.765  0.00  0.00    +0.000 A 
ATOM     14  C   UNL     1       7.105   4.731  14.420  0.00  0.00    +0.000 A 
ATOM     15  C   UNL     1       5.804   4.393  14.057  0.00  0.00    +0.000 A 
ATOM     16  C   UNL     1       4.818   4.242  15.038  0.00  0.00    +0.000 A 
ENDBRANCH   3  11
BRANCH   4  17
ATOM     17  C   UNL     1       3.458   6.710  17.993  0.00  0.00    +0.000 C 
ATOM     18  O   UNL     1       4.391   7.227  17.368  0.00  0.00    +0.000 OA
BRANCH  17  19
ATOM     19  C   UNL     1       2.408   7.604  18.626  0.00  0.00    +0.000 C 
ATOM     20 CL   UNL     1       2.179   9.064  17.639  0.00  0.00    +0.000 Cl
ENDBRANCH  17  19
ENDBRANCH   4  17
TORSDOF 3
ENDMDL
MODEL 5
REMARK VINA RESULT:      -6.2      1.863      5.404
REMARK  Name = 
REMARK  4 active torsions:
REMARK  status: ('A' for Active; 'I' for Inactive)
REMARK    1  A    between atoms: C_1  and  N_2
REMARK    2  A    between atoms: C_3  and  C_4
REMARK    3  A    between atoms: C_10  and  C_11
REMARK    4  A    between atoms: C_11  and  C_13
REMARK                            x       y       z     vdW  Elec       q    Type
REMARK                         _______ _______ _______ _____ _____    ______ ____
ROOT
ATOM      1  C   UNL     1       5.198   8.197  17.440  0.00  0.00    +0.000 C 
ATOM      2  N   UNL     1       4.533   6.910  17.344  0.00  0.00    +0.000 N 
ATOM      3  C   UNL     1       3.296   6.536  17.865  0.00  0.00    +0.000 A 
ATOM      4  C   UNL     1       3.160   5.162  17.602  0.00  0.00    +0.000 A 
ATOM      5  C   UNL     1       4.346   4.733  16.904  0.00  0.00    +0.000 A 
ATOM      6  C   UNL     1       4.795   3.491  16.396  0.00  0.00    +0.000 A 
ATOM      7  C   UNL     1       6.022   3.407  15.728  0.00  0.00    +0.000 A 
ATOM      8  C   UNL     1       6.806   4.540  15.551  0.00  0.00    +0.000 A 
ATOM      9  C   UNL     1       6.391   5.776  16.047  0.00  0.00    +0.000 A 
ATOM     10  C   UNL     1       5.158   5.845  16.725  0.00  0.00    +0.000 A 
ENDROOT
BRANCH   3  11
ATOM     11  C   UNL     1       2.433   7.465  18.630  0.00  0.00    +0.000 A 
ATOM     12  C   UNL     1       1.842   8.580  18.017  0.00  0.00    +0.000 A 
ATOM     13  C   UNL     1       1.147   9.534  18.766  0.00  0.00    +0.000 A 
ATOM     14  C   UNL     1       0.940   9.332  20.126  0.00  0.00    +0.000 A 
ATOM     15  C   UNL     1       1.438   8.185  20.737  0.00  0.00    +0.000 A 
ATOM     16  C   UNL     1       2.209   7.277  20.003  0.00  0.00    +0.000 A 
ENDBRANCH   3  11
BRANCH   4  17
ATOM     17  C   UNL     1       2.063   4.253  17.964  0.00  0.00    +0.000 C 
ATOM     18  O   UNL     1       1.064   4.163  17.241  0.00  0.00    +0.000 OA
BRANCH  17  19
ATOM     19  C   UNL     1       2.128   3.434  19.239  0.00  0.00    +0.000 C 
ATOM     20 CL   UNL     1       0.850   3.951  20.360  0.00  0.00    +0.000 Cl
ENDBRANCH  17  19
ENDBRANCH   4  17
TORSDOF 3
ENDMDL
MODEL 6
REMARK VINA RESULT:      -6.2      2.355      3.630
REMARK  Name = 
REMARK  4 active torsions:
REMARK  status: ('A' for Active; 'I' for Inactive)
REMARK    1  A    between atoms: C_1  and  N_2
REMARK    2  A    between atoms: C_3  and  C_4
REMARK    3  A    between atoms: C_10  and  C_11
REMARK    4  A    between atoms: C_11  and  C_13
REMARK                            x       y       z     vdW  Elec       q    Type
REMARK                         _______ _______ _______ _____ _____    ______ ____
ROOT
ATOM      1  C   UNL     1       4.196   1.791  17.659  0.00  0.00    +0.000 C 
ATOM      2  N   UNL     1       3.683   3.111  17.979  0.00  0.00    +0.000 N 
ATOM      3  C   UNL     1       4.051   4.337  17.427  0.00  0.00    +0.000 A 
ATOM      4  C   UNL     1       3.353   5.318  18.153  0.00  0.00    +0.000 A 
ATOM      5  C   UNL     1       2.556   4.640  19.144  0.00  0.00    +0.000 A 
ATOM      6  C   UNL     1       1.671   5.072  20.160  0.00  0.00    +0.000 A 
ATOM      7  C   UNL     1       1.014   4.135  20.966  0.00  0.00    +0.000 A 
ATOM      8  C   UNL     1       1.219   2.775  20.773  0.00  0.00    +0.000 A 
ATOM      9  C   UNL     1       2.091   2.321  19.783  0.00  0.00    +0.000 A 
ATOM     10  C   UNL     1       2.752   3.275  18.986  0.00  0.00    +0.000 A 
ENDROOT
BRANCH   3  11
ATOM     11  C   UNL     1       5.076   4.465  16.365  0.00  0.00    +0.000 A 
ATOM     12  C   UNL     1       4.742   4.317  15.010  0.00  0.00    +0.000 A 
ATOM     13  C   UNL     1       5.728   4.295  14.021  0.00  0.00    +0.000 A 
ATOM     14  C   UNL     1       7.057   4.528  14.359  0.00  0.00    +0.000 A 
ATOM     15  C   UNL     1       7.398   4.770  15.687  0.00  0.00    +0.000 A 
ATOM     16  C   UNL     1       6.421   4.703  16.686  0.00  0.00    +0.000 A 
ENDBRANCH   3  11
BRANCH   4  17
ATOM     17  C   UNL     1       3.396   6.780  18.013  0.00  0.00    +0.000 C 
ATOM     18  O   UNL     1       4.317   7.320  17.388  0.00  0.00    +0.000 OA
BRANCH  17  19
ATOM     19  C   UNL     1       2.329   7.649  18.652  0.00  0.00    +0.000 C 
ATOM     20 CL   UNL     1       2.087   9.123  17.689  0.00  0.00    +0.000 Cl
ENDBRANCH  17  19
ENDBRANCH   4  17
TORSDOF 3
ENDMDL
MODEL 7
REMARK VINA RESULT:      -6.2      1.887      5.384
REMARK  Name = 
REMARK  4 active torsions:
REMARK  status: ('A' for Active; 'I' for Inactive)
REMARK    1  A    between atoms: C_1  and  N_2
REMARK    2  A    between atoms: C_3  and  C_4
REMARK    3  A    between atoms: C_10  and  C_11
REMARK    4  A    between atoms: C_11  and  C_13
REMARK                            x       y       z     vdW  Elec       q    Type
REMARK                         _______ _______ _______ _____ _____    ______ ____
ROOT
ATOM      1  C   UNL     1       5.321   8.146  17.527  0.00  0.00    +0.000 C 
ATOM      2  N   UNL     1       4.605   6.890  17.393  0.00  0.00    +0.000 N 
ATOM      3  C   UNL     1       3.353   6.552  17.901  0.00  0.00    +0.000 A 
ATOM      4  C   UNL     1       3.161   5.193  17.598  0.00  0.00    +0.000 A 
ATOM      5  C   UNL     1       4.331   4.736  16.890  0.00  0.00    +0.000 A 
ATOM      6  C   UNL     1       4.731   3.493  16.347  0.00  0.00    +0.000 A 
ATOM      7  C   UNL     1       5.955   3.378  15.678  0.00  0.00    +0.000 A 
ATOM      8  C   UNL     1       6.784   4.482  15.536  0.00  0.00    +0.000 A 
ATOM      9  C   UNL     1       6.418   5.719  16.067  0.00  0.00    +0.000 A 
ATOM     10  C   UNL     1       5.188   5.819  16.744  0.00  0.00    +0.000 A 
ENDROOT
BRANCH   3  11
ATOM     11  C   UNL     1       2.526   7.493  18.692  0.00  0.00    +0.000 A 
ATOM     12  C   UNL     1       2.278   7.274  20.056  0.00  0.00    +0.000 A 
ATOM     13  C   UNL     1       1.384   8.079  20.766  0.00  0.00    +0.000 A 
ATOM     14  C   UNL     1       0.803   9.183  20.151  0.00  0.00    +0.000 A 
ATOM     15  C   UNL     1       1.108   9.473  18.824  0.00  0.00    +0.000 A 
ATOM     16  C   UNL     1       1.934   8.614  18.090  0.00  0.00    +0.000 A 
ENDBRANCH   3  11
BRANCH   4  17
ATOM     17  C   UNL     1       2.027   4.319  17.932  0.00  0.00    +0.000 C 
ATOM     18  O   UNL     1       1.028   4.290  17.205  0.00  0.00    +0.000 OA
BRANCH  17  19
ATOM     19  C   UNL     1       2.056   3.462  19.184  0.00  0.00    +0.000 C 
ATOM     20 CL   UNL     1       0.868   4.065  20.360  0.00  0.00    +0.000 Cl
ENDBRANCH  17  19
ENDBRANCH   4  17
TORSDOF 3
ENDMDL
MODEL 8
REMARK VINA RESULT:      -6.1      1.328      1.336
REMARK  Name = 
REMARK  4 active torsions:
REMARK  status: ('A' for Active; 'I' for Inactive)
REMARK    1  A    between atoms: C_1  and  N_2
REMARK    2  A    between atoms: C_3  and  C_4
REMARK    3  A    between atoms: C_10  and  C_11
REMARK    4  A    between atoms: C_11  and  C_13
REMARK                            x       y       z     vdW  Elec       q    Type
REMARK                         _______ _______ _______ _____ _____    ______ ____
ROOT
ATOM      1  C   UNL     1       4.466   7.389  17.453  0.00  0.00    +0.000 C 
ATOM      2  N   UNL     1       3.927   6.110  17.879  0.00  0.00    +0.000 N 
ATOM      3  C   UNL     1       4.189   4.846  17.354  0.00  0.00    +0.000 A 
ATOM      4  C   UNL     1       3.337   3.957  18.033  0.00  0.00    +0.000 A 
ATOM      5  C   UNL     1       2.569   4.728  18.978  0.00  0.00    +0.000 A 
ATOM      6  C   UNL     1       1.560   4.411  19.919  0.00  0.00    +0.000 A 
ATOM      7  C   UNL     1       1.015   5.413  20.729  0.00  0.00    +0.000 A 
ATOM      8  C   UNL     1       1.462   6.724  20.624  0.00  0.00    +0.000 A 
ATOM      9  C   UNL     1       2.452   7.065  19.702  0.00  0.00    +0.000 A 
ATOM     10  C   UNL     1       2.985   6.049  18.887  0.00  0.00    +0.000 A 
ENDROOT
BRANCH   3  11
ATOM     11  C   UNL     1       5.118   4.621  16.222  0.00  0.00    +0.000 A 
ATOM     12  C   UNL     1       6.501   4.812  16.368  0.00  0.00    +0.000 A 
ATOM     13  C   UNL     1       7.360   4.740  15.269  0.00  0.00    +0.000 A 
ATOM     14  C   UNL     1       6.866   4.371  14.023  0.00  0.00    +0.000 A 
ATOM     15  C   UNL     1       5.511   4.086  13.876  0.00  0.00    +0.000 A 
ATOM     16  C   UNL     1       4.638   4.245  14.958  0.00  0.00    +0.000 A 
ENDBRANCH   3  11
BRANCH   4  17
ATOM     17  C   UNL     1       3.174   2.508  17.850  0.00  0.00    +0.000 C 
ATOM     18  O   UNL     1       2.289   2.069  17.106  0.00  0.00    +0.000 OA
BRANCH  17  19
ATOM     19  C   UNL     1       4.068   1.531  18.590  0.00  0.00    +0.000 C 
ATOM     20 CL   UNL     1       4.503   2.190  20.182  0.00  0.00    +0.000 Cl
ENDBRANCH  17  19
ENDBRANCH   4  17
TORSDOF 3
ENDMDL
MODEL 9
REMARK VINA RESULT:      -6.1      2.471      5.933
REMARK  Name = 
REMARK  4 active torsions:
REMARK  status: ('A' for Active; 'I' for Inactive)
REMARK    1  A    between atoms: C_1  and  N_2
REMARK    2  A    between atoms: C_3  and  C_4
REMARK    3  A    between atoms: C_10  and  C_11
REMARK    4  A    between atoms: C_11  and  C_13
REMARK                            x       y       z     vdW  Elec       q    Type
REMARK                         _______ _______ _______ _____ _____    ______ ____
ROOT
ATOM      1  C   UNL     1       4.242   1.885  17.593  0.00  0.00    +0.000 C 
ATOM      2  N   UNL     1       4.224   3.337  17.577  0.00  0.00    +0.000 N 
ATOM      3  C   UNL     1       3.531   4.201  18.423  0.00  0.00    +0.000 A 
ATOM      4  C   UNL     1       3.750   5.497  17.923  0.00  0.00    +0.000 A 
ATOM      5  C   UNL     1       4.596   5.377  16.762  0.00  0.00    +0.000 A 
ATOM      6  C   UNL     1       5.140   6.303  15.841  0.00  0.00    +0.000 A 
ATOM      7  C   UNL     1       5.969   5.859  14.804  0.00  0.00    +0.000 A 
ATOM      8  C   UNL     1       6.270   4.509  14.673  0.00  0.00    +0.000 A 
ATOM      9  C   UNL     1       5.743   3.574  15.564  0.00  0.00    +0.000 A 
ATOM     10  C   UNL     1       4.904   4.033  16.597  0.00  0.00    +0.000 A 
ENDROOT
BRANCH   3  11
ATOM     11  C   UNL     1       2.671   3.723  19.531  0.00  0.00    +0.000 A 
ATOM     12  C   UNL     1       3.219   3.341  20.765  0.00  0.00    +0.000 A 
ATOM     13  C   UNL     1       2.428   2.757  21.757  0.00  0.00    +0.000 A 
ATOM     14  C   UNL     1       1.055   2.643  21.574  0.00  0.00    +0.000 A 
ATOM     15  C   UNL     1       0.477   3.102  20.393  0.00  0.00    +0.000 A 
ATOM     16  C   UNL     1       1.283   3.604  19.366  0.00  0.00    +0.000 A 
ENDBRANCH   3  11
BRANCH   4  17
ATOM     17  C   UNL     1       3.226   6.779  18.412  0.00  0.00    +0.000 C 
ATOM     18  O   UNL     1       2.874   6.900  19.592  0.00  0.00    +0.000 OA
BRANCH  17  19
ATOM     19  C   UNL     1       3.085   7.964  17.474  0.00  0.00    +0.000 C 
ATOM     20 CL   UNL     1       1.597   8.861  17.848  0.00  0.00    +0.000 Cl
ENDBRANCH  17  19
ENDBRANCH   4  17
TORSDOF 3
ENDMDL
