MODEL 1
REMARK VINA RESULT:      -7.0      0.000      0.000
REMARK  Name = 
REMARK  7 active torsions:
REMARK  status: ('A' for Active; 'I' for Inactive)
REMARK    1  A    between atoms: C_1  and  O_2
REMARK    2  A    between atoms: O_2  and  C_3
REMARK    3  A    between atoms: C_6  and  N_7
REMARK    4  A    between atoms: N_7  and  S_8
REMARK    5  A    between atoms: S_8  and  C_11
REMARK    6  A    between atoms: C_11  and  C_12
REMARK    7  A    between atoms: C_15  and  N_16
REMARK                            x       y       z     vdW  Elec       q    Type
REMARK                         _______ _______ _______ _____ _____    ______ ____
ROOT
ATOM      1  S   UNL     1       3.799   2.688  18.317  0.00  0.00    +0.000 S 
ATOM      2  O   UNL     1       3.510   1.283  18.109  0.00  0.00    +0.000 OA
ATOM      3  O   UNL     1       4.303   3.163  19.588  0.00  0.00    +0.000 OA
ENDROOT
BRANCH   1   4
ATOM      4  N   UNL     1       4.964   3.049  17.127  0.00  0.00    +0.000 N 
ATOM      5  H   UNL     1       5.669   2.308  17.165  0.00  0.00    +0.000 HD
BRANCH   4   9
ATOM      6  C   UNL     1       6.645   6.929  17.177  0.00  0.00    +0.000 A 
ATOM      7  C   UNL     1       5.717   6.582  16.191  0.00  0.00    +0.000 A 
ATOM      8  C   UNL     1       5.152   5.304  16.160  0.00  0.00    +0.000 A 
ATOM      9  C   UNL     1       5.527   4.361  17.114  0.00  0.00    +0.000 A 
ATOM     10  C   UNL     1       6.472   4.692  18.085  0.00  0.00    +0.000 A 
ATOM     11  C   UNL     1       7.033   5.973  18.118  0.00  0.00    +0.000 A 
BRANCH   6  13
ATOM     12  C   UNL     1       8.201   8.515  17.989  0.00  0.00    +0.000 C 
ATOM     13  O   UNL     1       7.127   8.207  17.105  0.00  0.00    +0.000 OA
ENDBRANCH   6  13
ENDBRANCH   4   9
ENDBRANCH   1   4
BRANCH   1  14
ATOM     14  C   UNL     1       2.380   3.667  17.792  0.00  0.00    +0.000 C 
BRANCH  14  15
ATOM     15  C   UNL     1       2.199   4.848  18.714  0.00  0.00    +0.000 A 
ATOM     16  C   UNL     1       1.660   4.686  19.998  0.00  0.00    +0.000 A 
ATOM     17  C   UNL     1       1.498   5.788  20.848  0.00  0.00    +0.000 A 
ATOM     18  C   UNL     1       1.907   7.063  20.455  0.00  0.00    +0.000 A 
ATOM     19  C   UNL     1       2.386   7.234  19.156  0.00  0.00    +0.000 A 
ATOM     20  C   UNL     1       2.552   6.138  18.299  0.00  0.00    +0.000 A 
BRANCH  18  21
ATOM     21  N   UNL     1       1.622   8.175  21.255  0.00  0.00    +0.000 N 
ATOM     22  H   UNL     1       1.030   7.972  22.054  0.00  0.00    +0.000 HD
ATOM     23  H   UNL     1       2.438   8.724  21.506  0.00  0.00    +0.000 HD
ENDBRANCH  18  21
ENDBRANCH  14  15
ENDBRANCH   1  14
TORSDOF 6
ENDMDL
MODEL 2
REMARK VINA RESULT:      -7.0      2.683      6.332
REMARK  Name = 
REMARK  7 active torsions:
REMARK  status: ('A' for Active; 'I' for Inactive)
REMARK    1  A    between atoms: C_1  and  O_2
REMARK    2  A    between atoms: O_2  and  C_3
REMARK    3  A    between atoms: C_6  and  N_7
REMARK    4  A    between atoms: N_7  and  S_8
REMARK    5  A    between atoms: S_8  and  C_11
REMARK    6  A    between atoms: C_11  and  C_12
REMARK    7  A    between atoms: C_15  and  N_16
REMARK                            x       y       z     vdW  Elec       q    Type
REMARK                         _______ _______ _______ _____ _____    ______ ____
ROOT
ATOM      1  S   UNL     1       7.272   5.668  18.258  0.00  0.00    +0.000 S 
ATOM      2  O   UNL     1       8.152   6.667  18.832  0.00  0.00    +0.000 OA
ATOM      3  O   UNL     1       7.782   4.377  17.849  0.00  0.00    +0.000 OA
ENDROOT
BRANCH   1   4
ATOM      4  N   UNL     1       6.101   5.406  19.468  0.00  0.00    +0.000 N 
ATOM      5  H   UNL     1       6.554   4.865  20.210  0.00  0.00    +0.000 HD
BRANCH   4   9
ATOM      6  C   UNL     1       2.313   3.894  18.356  0.00  0.00    +0.000 A 
ATOM      7  C   UNL     1       3.414   3.036  18.427  0.00  0.00    +0.000 A 
ATOM      8  C   UNL     1       4.673   3.520  18.792  0.00  0.00    +0.000 A 
ATOM      9  C   UNL     1       4.836   4.874  19.076  0.00  0.00    +0.000 A 
ATOM     10  C   UNL     1       3.747   5.741  18.982  0.00  0.00    +0.000 A 
ATOM     11  C   UNL     1       2.487   5.254  18.621  0.00  0.00    +0.000 A 
BRANCH   6  13
ATOM     12  C   UNL     1       0.611   2.342  18.896  0.00  0.00    +0.000 C 
ATOM     13  O   UNL     1       1.134   3.307  17.988  0.00  0.00    +0.000 OA
ENDBRANCH   6  13
ENDBRANCH   4   9
ENDBRANCH   1   4
BRANCH   1  14
ATOM     14  C   UNL     1       6.310   6.420  16.932  0.00  0.00    +0.000 C 
BRANCH  14  15
ATOM     15  C   UNL     1       6.296   5.512  15.728  0.00  0.00    +0.000 A 
ATOM     16  C   UNL     1       5.227   4.634  15.498  0.00  0.00    +0.000 A 
ATOM     17  C   UNL     1       5.221   3.795  14.376  0.00  0.00    +0.000 A 
ATOM     18  C   UNL     1       6.254   3.842  13.439  0.00  0.00    +0.000 A 
ATOM     19  C   UNL     1       7.346   4.671  13.699  0.00  0.00    +0.000 A 
ATOM     20  C   UNL     1       7.360   5.514  14.818  0.00  0.00    +0.000 A 
BRANCH  18  21
ATOM     21  N   UNL     1       6.305   2.912  12.395  0.00  0.00    +0.000 N 
ATOM     22  H   UNL     1       5.540   2.988  11.733  0.00  0.00    +0.000 HD
ATOM     23  H   UNL     1       7.210   2.854  11.938  0.00  0.00    +0.000 HD
ENDBRANCH  18  21
ENDBRANCH  14  15
ENDBRANCH   1  14
TORSDOF 6
ENDMDL
MODEL 3
REMARK VINA RESULT:      -6.9      2.690      6.355
REMARK  Name = 
REMARK  7 active torsions:
REMARK  status: ('A' for Active; 'I' for Inactive)
REMARK    1  A    between atoms: C_1  and  O_2
REMARK    2  A    between atoms: O_2  and  C_3
REMARK    3  A    between atoms: C_6  and  N_7
REMARK    4  A    between atoms: N_7  and  S_8
REMARK    5  A    between atoms: S_8  and  C_11
REMARK    6  A    between atoms: C_11  and  C_12
REMARK    7  A    between atoms: C_15  and  N_16
REMARK                            x       y       z     vdW  Elec       q    Type
REMARK                         _______ _______ _______ _____ _____    ______ ____
ROOT
ATOM      1  S   UNL     1       7.372   5.677  18.237  0.00  0.00    +0.000 S 
ATOM      2  O   UNL     1       8.181   6.735  18.810  0.00  0.00    +0.000 OA
ATOM      3  O   UNL     1       7.978   4.448  17.771  0.00  0.00    +0.000 OA
ENDROOT
BRANCH   1   4
ATOM      4  N   UNL     1       6.276   5.278  19.479  0.00  0.00    +0.000 N 
ATOM      5  H   UNL     1       6.774   4.667  20.133  0.00  0.00    +0.000 HD
BRANCH   4   9
ATOM      6  C   UNL     1       2.514   3.728  18.330  0.00  0.00    +0.000 A 
ATOM      7  C   UNL     1       2.642   5.081  18.655  0.00  0.00    +0.000 A 
ATOM      8  C   UNL     1       3.878   5.609  19.038  0.00  0.00    +0.000 A 
ATOM      9  C   UNL     1       4.991   4.776  19.108  0.00  0.00    +0.000 A 
ATOM     10  C   UNL     1       4.866   3.419  18.810  0.00  0.00    +0.000 A 
ATOM     11  C   UNL     1       3.630   2.893  18.422  0.00  0.00    +0.000 A 
BRANCH   6  13
ATOM     12  C   UNL     1       0.593   2.464  18.890  0.00  0.00    +0.000 C 
ATOM     13  O   UNL     1       1.256   3.327  17.970  0.00  0.00    +0.000 OA
ENDBRANCH   6  13
ENDBRANCH   4   9
ENDBRANCH   1   4
BRANCH   1  14
ATOM     14  C   UNL     1       6.298   6.375  16.969  0.00  0.00    +0.000 C 
BRANCH  14  15
ATOM     15  C   UNL     1       6.296   5.486  15.750  0.00  0.00    +0.000 A 
ATOM     16  C   UNL     1       7.360   5.509  14.838  0.00  0.00    +0.000 A 
ATOM     17  C   UNL     1       7.351   4.679  13.709  0.00  0.00    +0.000 A 
ATOM     18  C   UNL     1       6.306   3.781  13.487  0.00  0.00    +0.000 A 
ATOM     19  C   UNL     1       5.218   3.802  14.361  0.00  0.00    +0.000 A 
ATOM     20  C   UNL     1       5.219   4.628  15.493  0.00  0.00    +0.000 A 
BRANCH  18  21
ATOM     21  N   UNL     1       6.240   3.053  12.294  0.00  0.00    +0.000 N 
ATOM     22  H   UNL     1       5.310   2.995  11.894  0.00  0.00    +0.000 HD
ATOM     23  H   UNL     1       6.942   3.318  11.609  0.00  0.00    +0.000 HD
ENDBRANCH  18  21
ENDBRANCH  14  15
ENDBRANCH   1  14
TORSDOF 6
ENDMDL
MODEL 4
REMARK VINA RESULT:      -6.9      0.674      1.674
REMARK  Name = 
REMARK  7 active torsions:
REMARK  status: ('A' for Active; 'I' for Inactive)
REMARK    1  A    between atoms: C_1  and  O_2
REMARK    2  A    between atoms: O_2  and  C_3
REMARK    3  A    between atoms: C_6  and  N_7
REMARK    4  A    between atoms: N_7  and  S_8
REMARK    5  A    between atoms: S_8  and  C_11
REMARK    6  A    between atoms: C_11  and  C_12
REMARK    7  A    between atoms: C_15  and  N_16
REMARK                            x       y       z     vdW  Elec       q    Type
REMARK                         _______ _______ _______ _____ _____    ______ ____
ROOT
ATOM      1  S   UNL     1       3.946   3.087  18.131  0.00  0.00    +0.000 S 
ATOM      2  O   UNL     1       3.738   1.693  17.793  0.00  0.00    +0.000 OA
ATOM      3  O   UNL     1       4.391   3.471  19.454  0.00  0.00    +0.000 OA
ENDROOT
BRANCH   1   4
ATOM      4  N   UNL     1       5.121   3.611  17.014  0.00  0.00    +0.000 N 
ATOM      5  H   UNL     1       5.655   2.784  16.732  0.00  0.00    +0.000 HD
BRANCH   4   9
ATOM      6  C   UNL     1       7.553   6.925  18.005  0.00  0.00    +0.000 A 
ATOM      7  C   UNL     1       7.793   5.681  18.595  0.00  0.00    +0.000 A 
ATOM      8  C   UNL     1       6.998   4.576  18.280  0.00  0.00    +0.000 A 
ATOM      9  C   UNL     1       5.947   4.718  17.377  0.00  0.00    +0.000 A 
ATOM     10  C   UNL     1       5.686   5.962  16.803  0.00  0.00    +0.000 A 
ATOM     11  C   UNL     1       6.485   7.066  17.116  0.00  0.00    +0.000 A 
BRANCH   6  13
ATOM     12  C   UNL     1       8.071   9.232  17.911  0.00  0.00    +0.000 C 
ATOM     13  O   UNL     1       8.396   7.931  18.391  0.00  0.00    +0.000 OA
ENDBRANCH   6  13
ENDBRANCH   4   9
ENDBRANCH   1   4
BRANCH   1  14
ATOM     14  C   UNL     1       2.491   4.036  17.651  0.00  0.00    +0.000 C 
BRANCH  14  15
ATOM     15  C   UNL     1       2.245   5.141  18.647  0.00  0.00    +0.000 A 
ATOM     16  C   UNL     1       2.552   6.474  18.338  0.00  0.00    +0.000 A 
ATOM     17  C   UNL     1       2.318   7.494  19.270  0.00  0.00    +0.000 A 
ATOM     18  C   UNL     1       1.736   7.217  20.507  0.00  0.00    +0.000 A 
ATOM     19  C   UNL     1       1.488   5.884  20.838  0.00  0.00    +0.000 A 
ATOM     20  C   UNL     1       1.718   4.857  19.913  0.00  0.00    +0.000 A 
BRANCH  18  21
ATOM     21  N   UNL     1       1.628   8.218  21.479  0.00  0.00    +0.000 N 
ATOM     22  H   UNL     1       0.800   8.798  21.387  0.00  0.00    +0.000 HD
ATOM     23  H   UNL     1       1.768   7.889  22.429  0.00  0.00    +0.000 HD
ENDBRANCH  18  21
ENDBRANCH  14  15
ENDBRANCH   1  14
TORSDOF 6
ENDMDL
MODEL 5
REMARK VINA RESULT:      -6.8      2.812      5.601
REMARK  Name = 
REMARK  7 active torsions:
REMARK  status: ('A' for Active; 'I' for Inactive)
REMARK    1  A    between atoms: C_1  and  O_2
REMARK    2  A    between atoms: O_2  and  C_3
REMARK    3  A    between atoms: C_6  and  N_7
REMARK    4  A    between atoms: N_7  and  S_8
REMARK    5  A    between atoms: S_8  and  C_11
REMARK    6  A    between atoms: C_11  and  C_12
REMARK    7  A    between atoms: C_15  and  N_16
REMARK                            x       y       z     vdW  Elec       q    Type
REMARK                         _______ _______ _______ _____ _____    ______ ____
ROOT
ATOM      1  S   UNL     1       2.573   4.538  19.806  0.00  0.00    +0.000 S 
ATOM      2  O   UNL     1       2.233   4.390  21.207  0.00  0.00    +0.000 OA
ATOM      3  O   UNL     1       1.547   4.512  18.786  0.00  0.00    +0.000 OA
ENDROOT
BRANCH   1   4
ATOM      4  N   UNL     1       3.348   6.053  19.728  0.00  0.00    +0.000 N 
ATOM      5  H   UNL     1       3.907   6.147  20.581  0.00  0.00    +0.000 HD
BRANCH   4   9
ATOM      6  C   UNL     1       1.043   9.484  18.838  0.00  0.00    +0.000 A 
ATOM      7  C   UNL     1       1.016   8.939  20.125  0.00  0.00    +0.000 A 
ATOM      8  C   UNL     1       1.772   7.805  20.436  0.00  0.00    +0.000 A 
ATOM      9  C   UNL     1       2.550   7.204  19.450  0.00  0.00    +0.000 A 
ATOM     10  C   UNL     1       2.561   7.727  18.156  0.00  0.00    +0.000 A 
ATOM     11  C   UNL     1       1.809   8.865  17.848  0.00  0.00    +0.000 A 
BRANCH   6  13
ATOM     12  C   UNL     1      -1.001  10.368  18.039  0.00  0.00    +0.000 C 
ATOM     13  O   UNL     1       0.264  10.593  18.654  0.00  0.00    +0.000 OA
ENDBRANCH   6  13
ENDBRANCH   4   9
ENDBRANCH   1   4
BRANCH   1  14
ATOM     14  C   UNL     1       3.903   3.392  19.397  0.00  0.00    +0.000 C 
BRANCH  14  15
ATOM     15  C   UNL     1       4.780   3.984  18.321  0.00  0.00    +0.000 A 
ATOM     16  C   UNL     1       4.376   3.985  16.979  0.00  0.00    +0.000 A 
ATOM     17  C   UNL     1       5.196   4.539  15.987  0.00  0.00    +0.000 A 
ATOM     18  C   UNL     1       6.413   5.140  16.315  0.00  0.00    +0.000 A 
ATOM     19  C   UNL     1       6.843   5.084  17.641  0.00  0.00    +0.000 A 
ATOM     20  C   UNL     1       6.029   4.533  18.639  0.00  0.00    +0.000 A 
BRANCH  18  21
ATOM     21  N   UNL     1       7.283   5.571  15.307  0.00  0.00    +0.000 N 
ATOM     22  H   UNL     1       7.493   4.865  14.610  0.00  0.00    +0.000 HD
ATOM     23  H   UNL     1       7.026   6.462  14.893  0.00  0.00    +0.000 HD
ENDBRANCH  18  21
ENDBRANCH  14  15
ENDBRANCH   1  14
TORSDOF 6
ENDMDL
MODEL 6
REMARK VINA RESULT:      -6.7      2.793      5.458
REMARK  Name = 
REMARK  7 active torsions:
REMARK  status: ('A' for Active; 'I' for Inactive)
REMARK    1  A    between atoms: C_1  and  O_2
REMARK    2  A    between atoms: O_2  and  C_3
REMARK    3  A    between atoms: C_6  and  N_7
REMARK    4  A    between atoms: N_7  and  S_8
REMARK    5  A    between atoms: S_8  and  C_11
REMARK    6  A    between atoms: C_11  and  C_12
REMARK    7  A    between atoms: C_15  and  N_16
REMARK                            x       y       z     vdW  Elec       q    Type
REMARK                         _______ _______ _______ _____ _____    ______ ____
ROOT
ATOM      1  S   UNL     1       2.392   4.481  19.904  0.00  0.00    +0.000 S 
ATOM      2  O   UNL     1       2.037   4.219  21.285  0.00  0.00    +0.000 OA
ATOM      3  O   UNL     1       1.372   4.583  18.882  0.00  0.00    +0.000 OA
ENDROOT
BRANCH   1   4
ATOM      4  N   UNL     1       3.218   5.969  19.966  0.00  0.00    +0.000 N 
ATOM      5  H   UNL     1       3.636   6.040  20.899  0.00  0.00    +0.000 HD
BRANCH   4   9
ATOM      6  C   UNL     1       1.197   9.476  18.746  0.00  0.00    +0.000 A 
ATOM      7  C   UNL     1       1.036   8.995  20.048  0.00  0.00    +0.000 A 
ATOM      8  C   UNL     1       1.696   7.836  20.467  0.00  0.00    +0.000 A 
ATOM      9  C   UNL     1       2.514   7.148  19.575  0.00  0.00    +0.000 A 
ATOM     10  C   UNL     1       2.659   7.608  18.266  0.00  0.00    +0.000 A 
ATOM     11  C   UNL     1       2.002   8.770  17.849  0.00  0.00    +0.000 A 
BRANCH   6  13
ATOM     12  C   UNL     1      -0.709  10.810  19.177  0.00  0.00    +0.000 C 
ATOM     13  O   UNL     1       0.501  10.617  18.451  0.00  0.00    +0.000 OA
ENDBRANCH   6  13
ENDBRANCH   4   9
ENDBRANCH   1   4
BRANCH   1  14
ATOM     14  C   UNL     1       3.684   3.331  19.398  0.00  0.00    +0.000 C 
BRANCH  14  15
ATOM     15  C   UNL     1       4.635   4.012  18.445  0.00  0.00    +0.000 A 
ATOM     16  C   UNL     1       5.881   4.484  18.883  0.00  0.00    +0.000 A 
ATOM     17  C   UNL     1       6.758   5.114  17.991  0.00  0.00    +0.000 A 
ATOM     18  C   UNL     1       6.435   5.250  16.640  0.00  0.00    +0.000 A 
ATOM     19  C   UNL     1       5.171   4.835  16.218  0.00  0.00    +0.000 A 
ATOM     20  C   UNL     1       4.287   4.204  17.102  0.00  0.00    +0.000 A 
BRANCH  18  21
ATOM     21  N   UNL     1       7.256   5.994  15.787  0.00  0.00    +0.000 N 
ATOM     22  H   UNL     1       6.926   6.937  15.611  0.00  0.00    +0.000 HD
ATOM     23  H   UNL     1       8.241   5.966  16.033  0.00  0.00    +0.000 HD
ENDBRANCH  18  21
ENDBRANCH  14  15
ENDBRANCH   1  14
TORSDOF 6
ENDMDL
MODEL 7
REMARK VINA RESULT:      -6.7      2.896      5.676
REMARK  Name = 
REMARK  7 active torsions:
REMARK  status: ('A' for Active; 'I' for Inactive)
REMARK    1  A    between atoms: C_1  and  O_2
REMARK    2  A    between atoms: O_2  and  C_3
REMARK    3  A    between atoms: C_6  and  N_7
REMARK    4  A    between atoms: N_7  and  S_8
REMARK    5  A    between atoms: S_8  and  C_11
REMARK    6  A    between atoms: C_11  and  C_12
REMARK    7  A    between atoms: C_15  and  N_16
REMARK                            x       y       z     vdW  Elec       q    Type
REMARK                         _______ _______ _______ _____ _____    ______ ____
ROOT
ATOM      1  S   UNL     1       2.441   4.662  19.437  0.00  0.00    +0.000 S 
ATOM      2  O   UNL     1       1.763   4.456  20.701  0.00  0.00    +0.000 OA
ATOM      3  O   UNL     1       1.702   4.683  18.193  0.00  0.00    +0.000 OA
ENDROOT
BRANCH   1   4
ATOM      4  N   UNL     1       3.198   6.178  19.618  0.00  0.00    +0.000 N 
ATOM      5  H   UNL     1       3.660   6.174  20.532  0.00  0.00    +0.000 HD
BRANCH   4   9
ATOM      6  C   UNL     1       0.834   9.630  19.006  0.00  0.00    +0.000 A 
ATOM      7  C   UNL     1       1.538   9.066  17.938  0.00  0.00    +0.000 A 
ATOM      8  C   UNL     1       2.325   7.926  18.123  0.00  0.00    +0.000 A 
ATOM      9  C   UNL     1       2.418   7.352  19.388  0.00  0.00    +0.000 A 
ATOM     10  C   UNL     1       1.740   7.924  20.465  0.00  0.00    +0.000 A 
ATOM     11  C   UNL     1       0.949   9.062  20.276  0.00  0.00    +0.000 A 
BRANCH   6  13
ATOM     12  C   UNL     1      -1.153  10.506  18.066  0.00  0.00    +0.000 C 
ATOM     13  O   UNL     1       0.100  10.743  18.702  0.00  0.00    +0.000 OA
ENDBRANCH   6  13
ENDBRANCH   4   9
ENDBRANCH   1   4
BRANCH   1  14
ATOM     14  C   UNL     1       3.840   3.532  19.325  0.00  0.00    +0.000 C 
BRANCH  14  15
ATOM     15  C   UNL     1       4.804   4.008  18.266  0.00  0.00    +0.000 A 
ATOM     16  C   UNL     1       6.005   4.640  18.614  0.00  0.00    +0.000 A 
ATOM     17  C   UNL     1       6.895   5.077  17.624  0.00  0.00    +0.000 A 
ATOM     18  C   UNL     1       6.628   4.857  16.272  0.00  0.00    +0.000 A 
ATOM     19  C   UNL     1       5.405   4.283  15.923  0.00  0.00    +0.000 A 
ATOM     20  C   UNL     1       4.510   3.842  16.907  0.00  0.00    +0.000 A 
BRANCH  18  21
ATOM     21  N   UNL     1       7.455   5.411  15.288  0.00  0.00    +0.000 N 
ATOM     22  H   UNL     1       7.167   6.332  14.974  0.00  0.00    +0.000 HD
ATOM     23  H   UNL     1       8.445   5.368  15.508  0.00  0.00    +0.000 HD
ENDBRANCH  18  21
ENDBRANCH  14  15
ENDBRANCH   1  14
TORSDOF 6
ENDMDL
MODEL 8
REMARK VINA RESULT:      -6.7      2.821      5.494
REMARK  Name = 
REMARK  7 active torsions:
REMARK  status: ('A' for Active; 'I' for Inactive)
REMARK    1  A    between atoms: C_1  and  O_2
REMARK    2  A    between atoms: O_2  and  C_3
REMARK    3  A    between atoms: C_6  and  N_7
REMARK    4  A    between atoms: N_7  and  S_8
REMARK    5  A    between atoms: S_8  and  C_11
REMARK    6  A    between atoms: C_11  and  C_12
REMARK    7  A    between atoms: C_15  and  N_16
REMARK                            x       y       z     vdW  Elec       q    Type
REMARK                         _______ _______ _______ _____ _____    ______ ____
ROOT
ATOM      1  S   UNL     1       2.426   4.555  19.543  0.00  0.00    +0.000 S 
ATOM      2  O   UNL     1       1.844   4.297  20.844  0.00  0.00    +0.000 OA
ATOM      3  O   UNL     1       1.593   4.658  18.364  0.00  0.00    +0.000 OA
ENDROOT
BRANCH   1   4
ATOM      4  N   UNL     1       3.234   6.042  19.740  0.00  0.00    +0.000 N 
ATOM      5  H   UNL     1       3.626   6.046  20.686  0.00  0.00    +0.000 HD
BRANCH   4   9
ATOM      6  C   UNL     1       1.075   9.568  18.854  0.00  0.00    +0.000 A 
ATOM      7  C   UNL     1       1.892   8.986  17.880  0.00  0.00    +0.000 A 
ATOM      8  C   UNL     1       2.613   7.821  18.157  0.00  0.00    +0.000 A 
ATOM      9  C   UNL     1       2.527   7.241  19.420  0.00  0.00    +0.000 A 
ATOM     10  C   UNL     1       1.734   7.831  20.405  0.00  0.00    +0.000 A 
ATOM     11  C   UNL     1       1.010   8.994  20.125  0.00  0.00    +0.000 A 
BRANCH   6  13
ATOM     12  C   UNL     1       0.394  11.762  19.421  0.00  0.00    +0.000 C 
ATOM     13  O   UNL     1       0.420  10.705  18.467  0.00  0.00    +0.000 OA
ENDBRANCH   6  13
ENDBRANCH   4   9
ENDBRANCH   1   4
BRANCH   1  14
ATOM     14  C   UNL     1       3.783   3.402  19.263  0.00  0.00    +0.000 C 
BRANCH  14  15
ATOM     15  C   UNL     1       4.716   3.950  18.211  0.00  0.00    +0.000 A 
ATOM     16  C   UNL     1       4.377   3.908  16.851  0.00  0.00    +0.000 A 
ATOM     17  C   UNL     1       5.249   4.421  15.883  0.00  0.00    +0.000 A 
ATOM     18  C   UNL     1       6.453   5.024  16.247  0.00  0.00    +0.000 A 
ATOM     19  C   UNL     1       6.818   5.011  17.595  0.00  0.00    +0.000 A 
ATOM     20  C   UNL     1       5.953   4.501  18.571  0.00  0.00    +0.000 A 
BRANCH  18  21
ATOM     21  N   UNL     1       7.375   5.414  15.269  0.00  0.00    +0.000 N 
ATOM     22  H   UNL     1       7.571   4.700  14.576  0.00  0.00    +0.000 HD
ATOM     23  H   UNL     1       7.176   6.317  14.851  0.00  0.00    +0.000 HD
ENDBRANCH  18  21
ENDBRANCH  14  15
ENDBRANCH   1  14
TORSDOF 6
ENDMDL
MODEL 9
REMARK VINA RESULT:      -6.6      2.404      3.041
REMARK  Name = 
REMARK  7 active torsions:
REMARK  status: ('A' for Active; 'I' for Inactive)
REMARK    1  A    between atoms: C_1  and  O_2
REMARK    2  A    between atoms: O_2  and  C_3
REMARK    3  A    between atoms: C_6  and  N_7
REMARK    4  A    between atoms: N_7  and  S_8
REMARK    5  A    between atoms: S_8  and  C_11
REMARK    6  A    between atoms: C_11  and  C_12
REMARK    7  A    between atoms: C_15  and  N_16
REMARK                            x       y       z     vdW  Elec       q    Type
REMARK                         _______ _______ _______ _____ _____    ______ ____
ROOT
ATOM      1  S   UNL     1       1.829   4.139  19.389  0.00  0.00    +0.000 S 
ATOM      2  O   UNL     1       1.429   4.631  18.086  0.00  0.00    +0.000 OA
ATOM      3  O   UNL     1       0.897   3.420  20.231  0.00  0.00    +0.000 OA
ENDROOT
BRANCH   1   4
ATOM      4  N   UNL     1       3.136   3.099  19.053  0.00  0.00    +0.000 N 
ATOM      5  H   UNL     1       3.450   2.714  19.948  0.00  0.00    +0.000 HD
BRANCH   4   9
ATOM      6  C   UNL     1       6.324   4.641  16.743  0.00  0.00    +0.000 A 
ATOM      7  C   UNL     1       5.221   4.060  16.111  0.00  0.00    +0.000 A 
ATOM      8  C   UNL     1       4.159   3.545  16.860  0.00  0.00    +0.000 A 
ATOM      9  C   UNL     1       4.206   3.599  18.251  0.00  0.00    +0.000 A 
ATOM     10  C   UNL     1       5.316   4.154  18.889  0.00  0.00    +0.000 A 
ATOM     11  C   UNL     1       6.375   4.673  18.138  0.00  0.00    +0.000 A 
BRANCH   6  13
ATOM     12  C   UNL     1       7.078   4.900  14.515  0.00  0.00    +0.000 C 
ATOM     13  O   UNL     1       7.299   5.110  15.907  0.00  0.00    +0.000 OA
ENDBRANCH   6  13
ENDBRANCH   4   9
ENDBRANCH   1   4
BRANCH   1  14
ATOM     14  C   UNL     1       2.614   5.475  20.310  0.00  0.00    +0.000 C 
BRANCH  14  15
ATOM     15  C   UNL     1       2.374   6.792  19.613  0.00  0.00    +0.000 A 
ATOM     16  C   UNL     1       2.961   7.069  18.370  0.00  0.00    +0.000 A 
ATOM     17  C   UNL     1       2.730   8.293  17.729  0.00  0.00    +0.000 A 
ATOM     18  C   UNL     1       1.879   9.247  18.288  0.00  0.00    +0.000 A 
ATOM     19  C   UNL     1       1.344   8.996  19.553  0.00  0.00    +0.000 A 
ATOM     20  C   UNL     1       1.568   7.775  20.201  0.00  0.00    +0.000 A 
BRANCH  18  21
ATOM     21  N   UNL     1       1.758  10.515  17.708  0.00  0.00    +0.000 N 
ATOM     22  H   UNL     1       0.935  10.629  17.127  0.00  0.00    +0.000 HD
ATOM     23  H   UNL     1       1.882  11.281  18.362  0.00  0.00    +0.000 HD
ENDBRANCH  18  21
ENDBRANCH  14  15
ENDBRANCH   1  14
TORSDOF 6
ENDMDL
