MODEL 1
REMARK VINA RESULT:      -7.4      0.000      0.000
REMARK  Name = 
REMARK  9 active torsions:
REMARK  status: ('A' for Active; 'I' for Inactive)
REMARK    1  A    between atoms: C_1  and  C_2
REMARK    2  A    between atoms: C_2  and  O_3
REMARK    3  A    between atoms: O_3  and  C_4
REMARK    4  A    between atoms: C_7  and  N_8
REMARK    5  A    between atoms: C_9  and  C_11
REMARK    6  A    between atoms: C_16  and  N_17
REMARK    7  A    between atoms: C_18  and  C_20
REMARK    8  A    between atoms: C_20  and  N_21
REMARK    9  A    between atoms: C_25  and  C_26
REMARK                            x       y       z     vdW  Elec       q    Type
REMARK                         _______ _______ _______ _____ _____    ______ ____
ROOT
ATOM      1  C   UNL     1       0.194  10.224  18.233  0.00  0.00    +0.000 A 
ATOM      2  C   UNL     1      -1.041   9.651  17.867  0.00  0.00    +0.000 A 
ATOM      3  C   UNL     1      -2.243  10.360  17.940  0.00  0.00    +0.000 A 
ATOM      4  C   UNL     1      -2.243  11.674  18.375  0.00  0.00    +0.000 A 
ATOM      5  C   UNL     1      -1.042  12.275  18.743  0.00  0.00    +0.000 A 
ATOM      6  C   UNL     1       0.186  11.584  18.687  0.00  0.00    +0.000 A 
ENDROOT
BRANCH   1   8
ATOM      7  N   UNL     1       1.545   8.152  18.742  0.00  0.00    +0.000 N 
ATOM      8  C   UNL     1       1.477   9.421  18.134  0.00  0.00    +0.000 C 
ATOM      9  O   UNL     1       2.395   9.922  17.478  0.00  0.00    +0.000 OA
ATOM     10  H   UNL     1       0.723   7.788  19.199  0.00  0.00    +0.000 HD
BRANCH   7  14
ATOM     11  C   UNL     1       4.959   5.617  18.456  0.00  0.00    +0.000 A 
ATOM     12  C   UNL     1       4.018   5.431  19.468  0.00  0.00    +0.000 A 
ATOM     13  C   UNL     1       2.849   6.200  19.537  0.00  0.00    +0.000 A 
ATOM     14  C   UNL     1       2.599   7.199  18.602  0.00  0.00    +0.000 A 
ATOM     15  C   UNL     1       3.479   7.296  17.505  0.00  0.00    +0.000 A 
ATOM     16  C   UNL     1       4.661   6.520  17.439  0.00  0.00    +0.000 A 
BRANCH  11  17
ATOM     17  O   UNL     1       6.103   4.890  18.632  0.00  0.00    +0.000 OA
BRANCH  17  19
ATOM     18  C   UNL     1       7.957   6.378  18.842  0.00  0.00    +0.000 C 
ATOM     19  C   UNL     1       7.312   5.287  17.991  0.00  0.00    +0.000 C 
ENDBRANCH  17  19
ENDBRANCH  11  17
ENDBRANCH   7  14
ENDBRANCH   1   8
BRANCH   6  20
ATOM     20  N   UNL     1       1.376  12.317  19.005  0.00  0.00    +0.000 N 
ATOM     21  C   UNL     1       1.747  12.702  20.293  0.00  0.00    +0.000 C 
ATOM     22  O   UNL     1       1.276  12.203  21.320  0.00  0.00    +0.000 OA
ATOM     23  H   UNL     1       2.063  12.393  18.253  0.00  0.00    +0.000 HD
BRANCH  21  24
ATOM     24  C   UNL     1       2.793  13.839  20.417  0.00  0.00    +0.000 C 
BRANCH  24  25
ATOM     25  N   UNL     1       2.165  15.121  20.815  0.00  0.00    +0.000 NA
ATOM     26  C   UNL     1       2.906  16.323  20.372  0.00  0.00    +0.000 C 
ATOM     27  C   UNL     1       2.678  16.756  18.912  0.00  0.00    +0.000 C 
ATOM     28  N   UNL     1       1.256  16.950  18.619  0.00  0.00    +0.000 N 
ATOM     29  C   UNL     1       0.929  17.882  17.649  0.00  0.00    +0.000 C 
ATOM     30  C   UNL     1      -0.532  18.094  17.326  0.00  0.00    +0.000 C 
ATOM     31  O   UNL     1       1.777  18.558  17.064  0.00  0.00    +0.000 OA
ATOM     32  C   UNL     1       0.408  15.820  19.008  0.00  0.00    +0.000 C 
ATOM     33  C   UNL     1       0.745  15.240  20.412  0.00  0.00    +0.000 C 
ENDBRANCH  24  25
ENDBRANCH  21  24
ENDBRANCH   6  20
TORSDOF 7
ENDMDL
MODEL 2
REMARK VINA RESULT:      -7.3      2.182      9.188
REMARK  Name = 
REMARK  9 active torsions:
REMARK  status: ('A' for Active; 'I' for Inactive)
REMARK    1  A    between atoms: C_1  and  C_2
REMARK    2  A    between atoms: C_2  and  O_3
REMARK    3  A    between atoms: O_3  and  C_4
REMARK    4  A    between atoms: C_7  and  N_8
REMARK    5  A    between atoms: C_9  and  C_11
REMARK    6  A    between atoms: C_16  and  N_17
REMARK    7  A    between atoms: C_18  and  C_20
REMARK    8  A    between atoms: C_20  and  N_21
REMARK    9  A    between atoms: C_25  and  C_26
REMARK                            x       y       z     vdW  Elec       q    Type
REMARK                         _______ _______ _______ _____ _____    ______ ____
ROOT
ATOM      1  C   UNL     1      -0.427  11.693  18.611  0.00  0.00    +0.000 A 
ATOM      2  C   UNL     1      -1.575  12.356  18.134  0.00  0.00    +0.000 A 
ATOM      3  C   UNL     1      -2.717  11.665  17.719  0.00  0.00    +0.000 A 
ATOM      4  C   UNL     1      -2.746  10.282  17.780  0.00  0.00    +0.000 A 
ATOM      5  C   UNL     1      -1.632   9.593  18.249  0.00  0.00    +0.000 A 
ATOM      6  C   UNL     1      -0.463  10.261  18.668  0.00  0.00    +0.000 A 
ENDROOT
BRANCH   1   8
ATOM      7  N   UNL     1       1.405  13.370  18.152  0.00  0.00    +0.000 N 
ATOM      8  C   UNL     1       0.790  12.481  19.056  0.00  0.00    +0.000 C 
ATOM      9  O   UNL     1       1.157  12.322  20.225  0.00  0.00    +0.000 OA
ATOM     10  H   UNL     1       0.998  13.491  17.238  0.00  0.00    +0.000 HD
BRANCH   7  14
ATOM     11  C   UNL     1       4.483  16.277  18.638  0.00  0.00    +0.000 A 
ATOM     12  C   UNL     1       3.201  16.508  19.137  0.00  0.00    +0.000 A 
ATOM     13  C   UNL     1       2.195  15.536  19.060  0.00  0.00    +0.000 A 
ATOM     14  C   UNL     1       2.439  14.308  18.454  0.00  0.00    +0.000 A 
ATOM     15  C   UNL     1       3.765  14.024  18.073  0.00  0.00    +0.000 A 
ATOM     16  C   UNL     1       4.780  15.008  18.150  0.00  0.00    +0.000 A 
BRANCH  11  17
ATOM     17  O   UNL     1       5.286  17.383  18.661  0.00  0.00    +0.000 OA
BRANCH  17  19
ATOM     18  C   UNL     1       6.509  17.151  20.697  0.00  0.00    +0.000 C 
ATOM     19  C   UNL     1       6.610  17.298  19.180  0.00  0.00    +0.000 C 
ENDBRANCH  17  19
ENDBRANCH  11  17
ENDBRANCH   7  14
ENDBRANCH   1   8
BRANCH   6  20
ATOM     20  N   UNL     1       0.598   9.466  19.214  0.00  0.00    +0.000 N 
ATOM     21  C   UNL     1       1.650   8.932  18.470  0.00  0.00    +0.000 C 
ATOM     22  O   UNL     1       1.962   9.328  17.343  0.00  0.00    +0.000 OA
ATOM     23  H   UNL     1       0.661   9.453  20.233  0.00  0.00    +0.000 HD
BRANCH  21  24
ATOM     24  C   UNL     1       2.441   7.761  19.106  0.00  0.00    +0.000 C 
BRANCH  24  25
ATOM     25  N   UNL     1       2.967   6.832  18.077  0.00  0.00    +0.000 NA
ATOM     26  C   UNL     1       4.331   6.331  18.351  0.00  0.00    +0.000 C 
ATOM     27  C   UNL     1       4.433   5.161  19.346  0.00  0.00    +0.000 C 
ATOM     28  N   UNL     1       3.594   4.030  18.942  0.00  0.00    +0.000 N 
ATOM     29  C   UNL     1       4.013   2.764  19.314  0.00  0.00    +0.000 C 
ATOM     30  C   UNL     1       3.160   1.583  18.914  0.00  0.00    +0.000 C 
ATOM     31  O   UNL     1       5.061   2.565  19.930  0.00  0.00    +0.000 OA
ATOM     32  C   UNL     1       2.207   4.395  18.645  0.00  0.00    +0.000 C 
ATOM     33  C   UNL     1       2.069   5.689  17.792  0.00  0.00    +0.000 C 
ENDBRANCH  24  25
ENDBRANCH  21  24
ENDBRANCH   6  20
TORSDOF 7
ENDMDL
MODEL 3
REMARK VINA RESULT:      -7.2      2.324      2.594
REMARK  Name = 
REMARK  9 active torsions:
REMARK  status: ('A' for Active; 'I' for Inactive)
REMARK    1  A    between atoms: C_1  and  C_2
REMARK    2  A    between atoms: C_2  and  O_3
REMARK    3  A    between atoms: O_3  and  C_4
REMARK    4  A    between atoms: C_7  and  N_8
REMARK    5  A    between atoms: C_9  and  C_11
REMARK    6  A    between atoms: C_16  and  N_17
REMARK    7  A    between atoms: C_18  and  C_20
REMARK    8  A    between atoms: C_20  and  N_21
REMARK    9  A    between atoms: C_25  and  C_26
REMARK                            x       y       z     vdW  Elec       q    Type
REMARK                         _______ _______ _______ _____ _____    ______ ____
ROOT
ATOM      1  C   UNL     1       0.427   9.636  20.875  0.00  0.00    +0.000 A 
ATOM      2  C   UNL     1       0.045   8.852  21.983  0.00  0.00    +0.000 A 
ATOM      3  C   UNL     1      -0.613   9.395  23.090  0.00  0.00    +0.000 A 
ATOM      4  C   UNL     1      -0.918  10.746  23.115  0.00  0.00    +0.000 A 
ATOM      5  C   UNL     1      -0.560  11.551  22.038  0.00  0.00    +0.000 A 
ATOM      6  C   UNL     1       0.111  11.033  20.910  0.00  0.00    +0.000 A 
ENDROOT
BRANCH   1   8
ATOM      7  N   UNL     1       2.010   7.923  19.908  0.00  0.00    +0.000 N 
ATOM      8  C   UNL     1       1.135   9.005  19.691  0.00  0.00    +0.000 C 
ATOM      9  O   UNL     1       0.869   9.465  18.577  0.00  0.00    +0.000 OA
ATOM     10  H   UNL     1       2.117   7.564  20.844  0.00  0.00    +0.000 HD
BRANCH   7  14
ATOM     11  C   UNL     1       4.189   5.530  17.133  0.00  0.00    +0.000 A 
ATOM     12  C   UNL     1       3.253   4.951  17.992  0.00  0.00    +0.000 A 
ATOM     13  C   UNL     1       2.469   5.726  18.856  0.00  0.00    +0.000 A 
ATOM     14  C   UNL     1       2.617   7.108  18.904  0.00  0.00    +0.000 A 
ATOM     15  C   UNL     1       3.460   7.704  17.945  0.00  0.00    +0.000 A 
ATOM     16  C   UNL     1       4.254   6.919  17.074  0.00  0.00    +0.000 A 
BRANCH  11  17
ATOM     17  O   UNL     1       4.966   4.619  16.477  0.00  0.00    +0.000 OA
BRANCH  17  19
ATOM     18  C   UNL     1       6.946   4.683  17.810  0.00  0.00    +0.000 C 
ATOM     19  C   UNL     1       6.377   4.804  16.398  0.00  0.00    +0.000 C 
ENDBRANCH  17  19
ENDBRANCH  11  17
ENDBRANCH   7  14
ENDBRANCH   1   8
BRANCH   6  20
ATOM     20  N   UNL     1       0.359  11.927  19.817  0.00  0.00    +0.000 N 
ATOM     21  C   UNL     1       1.389  12.868  19.783  0.00  0.00    +0.000 C 
ATOM     22  O   UNL     1       2.374  12.833  20.528  0.00  0.00    +0.000 OA
ATOM     23  H   UNL     1      -0.147  11.722  18.955  0.00  0.00    +0.000 HD
BRANCH  21  24
ATOM     24  C   UNL     1       1.255  14.025  18.761  0.00  0.00    +0.000 C 
BRANCH  24  25
ATOM     25  N   UNL     1       1.309  15.350  19.424  0.00  0.00    +0.000 NA
ATOM     26  C   UNL     1       1.212  16.497  18.494  0.00  0.00    +0.000 C 
ATOM     27  C   UNL     1      -0.207  16.874  18.032  0.00  0.00    +0.000 C 
ATOM     28  N   UNL     1      -1.101  17.117  19.168  0.00  0.00    +0.000 N 
ATOM     29  C   UNL     1      -2.135  18.018  18.980  0.00  0.00    +0.000 C 
ATOM     30  C   UNL     1      -3.073  18.280  20.135  0.00  0.00    +0.000 C 
ATOM     31  O   UNL     1      -2.300  18.629  17.923  0.00  0.00    +0.000 OA
ATOM     32  C   UNL     1      -1.102  16.044  20.165  0.00  0.00    +0.000 C 
ATOM     33  C   UNL     1       0.319  15.513  20.513  0.00  0.00    +0.000 C 
ENDBRANCH  24  25
ENDBRANCH  21  24
ENDBRANCH   6  20
TORSDOF 7
ENDMDL
MODEL 4
REMARK VINA RESULT:      -7.2      4.013      5.525
REMARK  Name = 
REMARK  9 active torsions:
REMARK  status: ('A' for Active; 'I' for Inactive)
REMARK    1  A    between atoms: C_1  and  C_2
REMARK    2  A    between atoms: C_2  and  O_3
REMARK    3  A    between atoms: O_3  and  C_4
REMARK    4  A    between atoms: C_7  and  N_8
REMARK    5  A    between atoms: C_9  and  C_11
REMARK    6  A    between atoms: C_16  and  N_17
REMARK    7  A    between atoms: C_18  and  C_20
REMARK    8  A    between atoms: C_20  and  N_21
REMARK    9  A    between atoms: C_25  and  C_26
REMARK                            x       y       z     vdW  Elec       q    Type
REMARK                         _______ _______ _______ _____ _____    ______ ____
ROOT
ATOM      1  C   UNL     1       0.950   8.790  21.120  0.00  0.00    +0.000 A 
ATOM      2  C   UNL     1       1.350   8.849  22.470  0.00  0.00    +0.000 A 
ATOM      3  C   UNL     1       0.619   9.547  23.435  0.00  0.00    +0.000 A 
ATOM      4  C   UNL     1      -0.546  10.203  23.076  0.00  0.00    +0.000 A 
ATOM      5  C   UNL     1      -0.975  10.165  21.752  0.00  0.00    +0.000 A 
ATOM      6  C   UNL     1      -0.255   9.475  20.754  0.00  0.00    +0.000 A 
ENDROOT
BRANCH   1   8
ATOM      7  N   UNL     1       2.220   6.721  20.425  0.00  0.00    +0.000 N 
ATOM      8  C   UNL     1       1.770   8.017  20.105  0.00  0.00    +0.000 C 
ATOM      9  O   UNL     1       1.968   8.568  19.018  0.00  0.00    +0.000 OA
ATOM     10  H   UNL     1       1.953   6.319  21.310  0.00  0.00    +0.000 HD
BRANCH   7  14
ATOM     11  C   UNL     1       4.012   4.245  17.455  0.00  0.00    +0.000 A 
ATOM     12  C   UNL     1       4.796   4.892  18.410  0.00  0.00    +0.000 A 
ATOM     13  C   UNL     1       4.225   5.647  19.442  0.00  0.00    +0.000 A 
ATOM     14  C   UNL     1       2.845   5.796  19.535  0.00  0.00    +0.000 A 
ATOM     15  C   UNL     1       2.050   5.035  18.655  0.00  0.00    +0.000 A 
ATOM     16  C   UNL     1       2.629   4.275  17.611  0.00  0.00    +0.000 A 
BRANCH  11  17
ATOM     17  O   UNL     1       4.736   3.687  16.439  0.00  0.00    +0.000 OA
BRANCH  17  19
ATOM     18  C   UNL     1       6.833   4.339  15.505  0.00  0.00    +0.000 C 
ATOM     19  C   UNL     1       5.318   4.512  15.434  0.00  0.00    +0.000 C 
ENDBRANCH  17  19
ENDBRANCH  11  17
ENDBRANCH   7  14
ENDBRANCH   1   8
BRANCH   6  20
ATOM     20  N   UNL     1      -0.825   9.424  19.440  0.00  0.00    +0.000 N 
ATOM     21  C   UNL     1      -0.711  10.439  18.489  0.00  0.00    +0.000 C 
ATOM     22  O   UNL     1       0.133  11.340  18.546  0.00  0.00    +0.000 OA
ATOM     23  H   UNL     1      -1.175   8.512  19.144  0.00  0.00    +0.000 HD
BRANCH  21  24
ATOM     24  C   UNL     1      -1.726  10.427  17.318  0.00  0.00    +0.000 C 
BRANCH  24  25
ATOM     25  N   UNL     1      -2.550  11.659  17.294  0.00  0.00    +0.000 NA
ATOM     26  C   UNL     1      -3.914  11.467  16.756  0.00  0.00    +0.000 C 
ATOM     27  C   UNL     1      -4.950  10.889  17.737  0.00  0.00    +0.000 C 
ATOM     28  N   UNL     1      -5.041  11.685  18.964  0.00  0.00    +0.000 N 
ATOM     29  C   UNL     1      -6.260  11.705  19.619  0.00  0.00    +0.000 C 
ATOM     30  C   UNL     1      -6.374  12.516  20.890  0.00  0.00    +0.000 C 
ATOM     31  O   UNL     1      -7.253  11.116  19.193  0.00  0.00    +0.000 OA
ATOM     32  C   UNL     1      -3.747  11.944  19.602  0.00  0.00    +0.000 C 
ATOM     33  C   UNL     1      -2.627  12.351  18.601  0.00  0.00    +0.000 C 
ENDBRANCH  24  25
ENDBRANCH  21  24
ENDBRANCH   6  20
TORSDOF 7
ENDMDL
MODEL 5
REMARK VINA RESULT:      -7.2      6.716      8.528
REMARK  Name = 
REMARK  9 active torsions:
REMARK  status: ('A' for Active; 'I' for Inactive)
REMARK    1  A    between atoms: C_1  and  C_2
REMARK    2  A    between atoms: C_2  and  O_3
REMARK    3  A    between atoms: O_3  and  C_4
REMARK    4  A    between atoms: C_7  and  N_8
REMARK    5  A    between atoms: C_9  and  C_11
REMARK    6  A    between atoms: C_16  and  N_17
REMARK    7  A    between atoms: C_18  and  C_20
REMARK    8  A    between atoms: C_20  and  N_21
REMARK    9  A    between atoms: C_25  and  C_26
REMARK                            x       y       z     vdW  Elec       q    Type
REMARK                         _______ _______ _______ _____ _____    ______ ____
ROOT
ATOM      1  C   UNL     1      10.005  11.736  18.649  0.00  0.00    +0.000 A 
ATOM      2  C   UNL     1      11.136  11.629  17.814  0.00  0.00    +0.000 A 
ATOM      3  C   UNL     1      11.930  12.733  17.490  0.00  0.00    +0.000 A 
ATOM      4  C   UNL     1      11.618  13.981  18.003  0.00  0.00    +0.000 A 
ATOM      5  C   UNL     1      10.510  14.124  18.833  0.00  0.00    +0.000 A 
ATOM      6  C   UNL     1       9.686  13.031  19.173  0.00  0.00    +0.000 A 
ENDROOT
BRANCH   1   8
ATOM      7  N   UNL     1       8.607   9.758  17.933  0.00  0.00    +0.000 N 
ATOM      8  C   UNL     1       9.173  10.511  18.980  0.00  0.00    +0.000 C 
ATOM      9  O   UNL     1       9.070  10.218  20.175  0.00  0.00    +0.000 OA
ATOM     10  H   UNL     1       8.800  10.029  16.981  0.00  0.00    +0.000 HD
BRANCH   7  14
ATOM     11  C   UNL     1       6.821   5.889  17.913  0.00  0.00    +0.000 A 
ATOM     12  C   UNL     1       7.880   6.179  18.774  0.00  0.00    +0.000 A 
ATOM     13  C   UNL     1       8.431   7.465  18.854  0.00  0.00    +0.000 A 
ATOM     14  C   UNL     1       7.950   8.495  18.054  0.00  0.00    +0.000 A 
ATOM     15  C   UNL     1       6.797   8.238  17.287  0.00  0.00    +0.000 A 
ATOM     16  C   UNL     1       6.243   6.938  17.205  0.00  0.00    +0.000 A 
BRANCH  11  17
ATOM     17  O   UNL     1       6.514   4.559  17.854  0.00  0.00    +0.000 OA
BRANCH  17  19
ATOM     18  C   UNL     1       4.394   3.724  17.141  0.00  0.00    +0.000 C 
ATOM     19  C   UNL     1       5.262   4.088  18.344  0.00  0.00    +0.000 C 
ENDBRANCH  17  19
ENDBRANCH  11  17
ENDBRANCH   7  14
ENDBRANCH   1   8
BRANCH   6  20
ATOM     20  N   UNL     1       8.621  13.266  20.103  0.00  0.00    +0.000 N 
ATOM     21  C   UNL     1       8.802  13.608  21.443  0.00  0.00    +0.000 C 
ATOM     22  O   UNL     1       9.861  14.048  21.901  0.00  0.00    +0.000 OA
ATOM     23  H   UNL     1       7.689  13.357  19.694  0.00  0.00    +0.000 HD
BRANCH  21  24
ATOM     24  C   UNL     1       7.597  13.394  22.395  0.00  0.00    +0.000 C 
BRANCH  24  25
ATOM     25  N   UNL     1       8.037  12.993  23.753  0.00  0.00    +0.000 NA
ATOM     26  C   UNL     1       7.609  13.917  24.827  0.00  0.00    +0.000 C 
ATOM     27  C   UNL     1       6.164  13.744  25.329  0.00  0.00    +0.000 C 
ATOM     28  N   UNL     1       5.901  12.369  25.764  0.00  0.00    +0.000 N 
ATOM     29  C   UNL     1       4.959  12.189  26.762  0.00  0.00    +0.000 C 
ATOM     30  C   UNL     1       4.667  10.779  27.221  0.00  0.00    +0.000 C 
ATOM     31  O   UNL     1       4.375  13.128  27.303  0.00  0.00    +0.000 OA
ATOM     32  C   UNL     1       6.279  11.352  24.780  0.00  0.00    +0.000 C 
ATOM     33  C   UNL     1       7.662  11.607  24.116  0.00  0.00    +0.000 C 
ENDBRANCH  24  25
ENDBRANCH  21  24
ENDBRANCH   6  20
TORSDOF 7
ENDMDL
MODEL 6
REMARK VINA RESULT:      -7.1      6.287      8.525
REMARK  Name = 
REMARK  9 active torsions:
REMARK  status: ('A' for Active; 'I' for Inactive)
REMARK    1  A    between atoms: C_1  and  C_2
REMARK    2  A    between atoms: C_2  and  O_3
REMARK    3  A    between atoms: O_3  and  C_4
REMARK    4  A    between atoms: C_7  and  N_8
REMARK    5  A    between atoms: C_9  and  C_11
REMARK    6  A    between atoms: C_16  and  N_17
REMARK    7  A    between atoms: C_18  and  C_20
REMARK    8  A    between atoms: C_20  and  N_21
REMARK    9  A    between atoms: C_25  and  C_26
REMARK                            x       y       z     vdW  Elec       q    Type
REMARK                         _______ _______ _______ _____ _____    ______ ____
ROOT
ATOM      1  C   UNL     1      10.191  11.601  19.099  0.00  0.00    +0.000 A 
ATOM      2  C   UNL     1      11.114  11.623  18.033  0.00  0.00    +0.000 A 
ATOM      3  C   UNL     1      11.995  12.689  17.831  0.00  0.00    +0.000 A 
ATOM      4  C   UNL     1      11.985  13.766  18.701  0.00  0.00    +0.000 A 
ATOM      5  C   UNL     1      11.089  13.778  19.767  0.00  0.00    +0.000 A 
ATOM      6  C   UNL     1      10.184  12.721  19.993  0.00  0.00    +0.000 A 
ENDROOT
BRANCH   1   8
ATOM      7  N   UNL     1       8.832   9.692  18.156  0.00  0.00    +0.000 N 
ATOM      8  C   UNL     1       9.255  10.422  19.284  0.00  0.00    +0.000 C 
ATOM      9  O   UNL     1       8.941  10.141  20.445  0.00  0.00    +0.000 OA
ATOM     10  H   UNL     1       9.193   9.947  17.250  0.00  0.00    +0.000 HD
BRANCH   7  14
ATOM     11  C   UNL     1       6.845   5.938  17.806  0.00  0.00    +0.000 A 
ATOM     12  C   UNL     1       7.858   6.122  18.748  0.00  0.00    +0.000 A 
ATOM     13  C   UNL     1       8.471   7.367  18.935  0.00  0.00    +0.000 A 
ATOM     14  C   UNL     1       8.102   8.465  18.164  0.00  0.00    +0.000 A 
ATOM     15  C   UNL     1       6.991   8.314  17.312  0.00  0.00    +0.000 A 
ATOM     16  C   UNL     1       6.374   7.054  17.121  0.00  0.00    +0.000 A 
BRANCH  11  17
ATOM     17  O   UNL     1       6.472   4.633  17.652  0.00  0.00    +0.000 OA
BRANCH  17  19
ATOM     18  C   UNL     1       4.344   3.962  16.804  0.00  0.00    +0.000 C 
ATOM     19  C   UNL     1       5.177   4.203  18.061  0.00  0.00    +0.000 C 
ENDBRANCH  17  19
ENDBRANCH  11  17
ENDBRANCH   7  14
ENDBRANCH   1   8
BRANCH   6  20
ATOM     20  N   UNL     1       9.362  12.789  21.166  0.00  0.00    +0.000 N 
ATOM     21  C   UNL     1       8.260  13.631  21.312  0.00  0.00    +0.000 C 
ATOM     22  O   UNL     1       7.682  14.175  20.365  0.00  0.00    +0.000 OA
ATOM     23  H   UNL     1       9.504  12.043  21.849  0.00  0.00    +0.000 HD
BRANCH  21  24
ATOM     24  C   UNL     1       7.765  13.903  22.755  0.00  0.00    +0.000 C 
BRANCH  24  25
ATOM     25  N   UNL     1       6.395  13.381  22.973  0.00  0.00    +0.000 NA
ATOM     26  C   UNL     1       6.342  11.945  23.325  0.00  0.00    +0.000 C 
ATOM     27  C   UNL     1       6.622  11.602  24.799  0.00  0.00    +0.000 C 
ATOM     28  N   UNL     1       5.736  12.337  25.706  0.00  0.00    +0.000 N 
ATOM     29  C   UNL     1       5.418  11.734  26.911  0.00  0.00    +0.000 C 
ATOM     30  C   UNL     1       4.511  12.478  27.864  0.00  0.00    +0.000 C 
ATOM     31  O   UNL     1       5.821  10.612  27.219  0.00  0.00    +0.000 OA
ATOM     32  C   UNL     1       5.703  13.782  25.463  0.00  0.00    +0.000 C 
ATOM     33  C   UNL     1       5.609  14.160  23.956  0.00  0.00    +0.000 C 
ENDBRANCH  24  25
ENDBRANCH  21  24
ENDBRANCH   6  20
TORSDOF 7
ENDMDL
MODEL 7
REMARK VINA RESULT:      -7.1      4.042      5.382
REMARK  Name = 
REMARK  9 active torsions:
REMARK  status: ('A' for Active; 'I' for Inactive)
REMARK    1  A    between atoms: C_1  and  C_2
REMARK    2  A    between atoms: C_2  and  O_3
REMARK    3  A    between atoms: O_3  and  C_4
REMARK    4  A    between atoms: C_7  and  N_8
REMARK    5  A    between atoms: C_9  and  C_11
REMARK    6  A    between atoms: C_16  and  N_17
REMARK    7  A    between atoms: C_18  and  C_20
REMARK    8  A    between atoms: C_20  and  N_21
REMARK    9  A    between atoms: C_25  and  C_26
REMARK                            x       y       z     vdW  Elec       q    Type
REMARK                         _______ _______ _______ _____ _____    ______ ____
ROOT
ATOM      1  C   UNL     1       0.869   8.941  20.903  0.00  0.00    +0.000 A 
ATOM      2  C   UNL     1       1.142   8.871  22.285  0.00  0.00    +0.000 A 
ATOM      3  C   UNL     1       0.425   9.614  23.226  0.00  0.00    +0.000 A 
ATOM      4  C   UNL     1      -0.600  10.447  22.811  0.00  0.00    +0.000 A 
ATOM      5  C   UNL     1      -0.901  10.541  21.455  0.00  0.00    +0.000 A 
ATOM      6  C   UNL     1      -0.191   9.809  20.480  0.00  0.00    +0.000 A 
ENDROOT
BRANCH   1   8
ATOM      7  N   UNL     1       2.156   6.852  20.307  0.00  0.00    +0.000 N 
ATOM      8  C   UNL     1       1.668   8.114  19.915  0.00  0.00    +0.000 C 
ATOM      9  O   UNL     1       1.817   8.591  18.786  0.00  0.00    +0.000 OA
ATOM     10  H   UNL     1       1.929   6.509  21.227  0.00  0.00    +0.000 HD
BRANCH   7  14
ATOM     11  C   UNL     1       3.909   4.215  17.454  0.00  0.00    +0.000 A 
ATOM     12  C   UNL     1       4.705   4.907  18.368  0.00  0.00    +0.000 A 
ATOM     13  C   UNL     1       4.147   5.717  19.365  0.00  0.00    +0.000 A 
ATOM     14  C   UNL     1       2.769   5.879  19.461  0.00  0.00    +0.000 A 
ATOM     15  C   UNL     1       1.962   5.077  18.629  0.00  0.00    +0.000 A 
ATOM     16  C   UNL     1       2.528   4.261  17.621  0.00  0.00    +0.000 A 
BRANCH  11  17
ATOM     17  O   UNL     1       4.621   3.601  16.464  0.00  0.00    +0.000 OA
BRANCH  17  19
ATOM     18  C   UNL     1       5.724   5.060  14.929  0.00  0.00    +0.000 C 
ATOM     19  C   UNL     1       5.908   4.090  16.095  0.00  0.00    +0.000 C 
ENDBRANCH  17  19
ENDBRANCH  11  17
ENDBRANCH   7  14
ENDBRANCH   1   8
BRANCH   6  20
ATOM     20  N   UNL     1      -0.633   9.910  19.120  0.00  0.00    +0.000 N 
ATOM     21  C   UNL     1      -1.034  11.096  18.505  0.00  0.00    +0.000 C 
ATOM     22  O   UNL     1      -0.766  12.220  18.942  0.00  0.00    +0.000 OA
ATOM     23  H   UNL     1      -0.467   9.087  18.539  0.00  0.00    +0.000 HD
BRANCH  21  24
ATOM     24  C   UNL     1      -1.883  10.970  17.214  0.00  0.00    +0.000 C 
BRANCH  24  25
ATOM     25  N   UNL     1      -3.227  10.408  17.495  0.00  0.00    +0.000 NA
ATOM     26  C   UNL     1      -3.739  10.710  18.849  0.00  0.00    +0.000 C 
ATOM     27  C   UNL     1      -4.369  12.103  19.037  0.00  0.00    +0.000 C 
ATOM     28  N   UNL     1      -5.439  12.351  18.067  0.00  0.00    +0.000 N 
ATOM     29  C   UNL     1      -6.465  13.195  18.456  0.00  0.00    +0.000 C 
ATOM     30  C   UNL     1      -7.576  13.469  17.469  0.00  0.00    +0.000 C 
ATOM     31  O   UNL     1      -6.519  13.703  19.576  0.00  0.00    +0.000 OA
ATOM     32  C   UNL     1      -5.054  12.092  16.678  0.00  0.00    +0.000 C 
ATOM     33  C   UNL     1      -4.248  10.774  16.487  0.00  0.00    +0.000 C 
ENDBRANCH  24  25
ENDBRANCH  21  24
ENDBRANCH   6  20
TORSDOF 7
ENDMDL
MODEL 8
REMARK VINA RESULT:      -7.1      2.688      3.490
REMARK  Name = 
REMARK  9 active torsions:
REMARK  status: ('A' for Active; 'I' for Inactive)
REMARK    1  A    between atoms: C_1  and  C_2
REMARK    2  A    between atoms: C_2  and  O_3
REMARK    3  A    between atoms: O_3  and  C_4
REMARK    4  A    between atoms: C_7  and  N_8
REMARK    5  A    between atoms: C_9  and  C_11
REMARK    6  A    between atoms: C_16  and  N_17
REMARK    7  A    between atoms: C_18  and  C_20
REMARK    8  A    between atoms: C_20  and  N_21
REMARK    9  A    between atoms: C_25  and  C_26
REMARK                            x       y       z     vdW  Elec       q    Type
REMARK                         _______ _______ _______ _____ _____    ______ ____
ROOT
ATOM      1  C   UNL     1       0.637   9.491  20.718  0.00  0.00    +0.000 A 
ATOM      2  C   UNL     1      -0.181   8.712  21.561  0.00  0.00    +0.000 A 
ATOM      3  C   UNL     1      -0.860   9.259  22.654  0.00  0.00    +0.000 A 
ATOM      4  C   UNL     1      -0.745  10.611  22.930  0.00  0.00    +0.000 A 
ATOM      5  C   UNL     1       0.052  11.412  22.118  0.00  0.00    +0.000 A 
ATOM      6  C   UNL     1       0.755  10.888  21.012  0.00  0.00    +0.000 A 
ENDROOT
BRANCH   1   8
ATOM      7  N   UNL     1       2.096   7.678  19.736  0.00  0.00    +0.000 N 
ATOM      8  C   UNL     1       1.353   8.858  19.539  0.00  0.00    +0.000 C 
ATOM      9  O   UNL     1       1.207   9.408  18.443  0.00  0.00    +0.000 OA
ATOM     10  H   UNL     1       2.104   7.256  20.652  0.00  0.00    +0.000 HD
BRANCH   7  14
ATOM     11  C   UNL     1       4.185   5.216  16.954  0.00  0.00    +0.000 A 
ATOM     12  C   UNL     1       3.103   4.713  17.677  0.00  0.00    +0.000 A 
ATOM     13  C   UNL     1       2.353   5.523  18.538  0.00  0.00    +0.000 A 
ATOM     14  C   UNL     1       2.680   6.863  18.718  0.00  0.00    +0.000 A 
ATOM     15  C   UNL     1       3.682   7.403  17.889  0.00  0.00    +0.000 A 
ATOM     16  C   UNL     1       4.442   6.582  17.021  0.00  0.00    +0.000 A 
BRANCH  11  17
ATOM     17  O   UNL     1       4.891   4.255  16.287  0.00  0.00    +0.000 OA
BRANCH  17  19
ATOM     18  C   UNL     1       7.264   4.478  16.160  0.00  0.00    +0.000 C 
ATOM     19  C   UNL     1       5.946   4.623  15.403  0.00  0.00    +0.000 C 
ENDBRANCH  17  19
ENDBRANCH  11  17
ENDBRANCH   7  14
ENDBRANCH   1   8
BRANCH   6  20
ATOM     20  N   UNL     1       1.480  11.811  20.189  0.00  0.00    +0.000 N 
ATOM     21  C   UNL     1       0.892  12.691  19.280  0.00  0.00    +0.000 C 
ATOM     22  O   UNL     1      -0.304  13.000  19.301  0.00  0.00    +0.000 OA
ATOM     23  H   UNL     1       2.465  11.936  20.427  0.00  0.00    +0.000 HD
BRANCH  21  24
ATOM     24  C   UNL     1       1.807  13.284  18.179  0.00  0.00    +0.000 C 
BRANCH  24  25
ATOM     25  N   UNL     1       2.181  14.688  18.474  0.00  0.00    +0.000 NA
ATOM     26  C   UNL     1       2.555  14.931  19.885  0.00  0.00    +0.000 C 
ATOM     27  C   UNL     1       3.993  14.548  20.277  0.00  0.00    +0.000 C 
ATOM     28  N   UNL     1       4.984  15.197  19.414  0.00  0.00    +0.000 N 
ATOM     29  C   UNL     1       6.223  15.471  19.965  0.00  0.00    +0.000 C 
ATOM     30  C   UNL     1       7.262  16.135  19.090  0.00  0.00    +0.000 C 
ATOM     31  O   UNL     1       6.499  15.222  21.139  0.00  0.00    +0.000 OA
ATOM     32  C   UNL     1       4.728  15.024  17.982  0.00  0.00    +0.000 C 
ATOM     33  C   UNL     1       3.236  15.224  17.584  0.00  0.00    +0.000 C 
ENDBRANCH  24  25
ENDBRANCH  21  24
ENDBRANCH   6  20
TORSDOF 7
ENDMDL
MODEL 9
REMARK VINA RESULT:      -7.1      3.520      9.859
REMARK  Name = 
REMARK  9 active torsions:
REMARK  status: ('A' for Active; 'I' for Inactive)
REMARK    1  A    between atoms: C_1  and  C_2
REMARK    2  A    between atoms: C_2  and  O_3
REMARK    3  A    between atoms: O_3  and  C_4
REMARK    4  A    between atoms: C_7  and  N_8
REMARK    5  A    between atoms: C_9  and  C_11
REMARK    6  A    between atoms: C_16  and  N_17
REMARK    7  A    between atoms: C_18  and  C_20
REMARK    8  A    between atoms: C_20  and  N_21
REMARK    9  A    between atoms: C_25  and  C_26
REMARK                            x       y       z     vdW  Elec       q    Type
REMARK                         _______ _______ _______ _____ _____    ______ ____
ROOT
ATOM      1  C   UNL     1       2.041   5.380  20.180  0.00  0.00    +0.000 A 
ATOM      2  C   UNL     1       0.965   4.635  20.702  0.00  0.00    +0.000 A 
ATOM      3  C   UNL     1       0.957   3.237  20.703  0.00  0.00    +0.000 A 
ATOM      4  C   UNL     1       2.037   2.541  20.188  0.00  0.00    +0.000 A 
ATOM      5  C   UNL     1       3.120   3.243  19.666  0.00  0.00    +0.000 A 
ATOM      6  C   UNL     1       3.154   4.653  19.644  0.00  0.00    +0.000 A 
ENDROOT
BRANCH   1   8
ATOM      7  N   UNL     1       1.797   7.600  19.000  0.00  0.00    +0.000 N 
ATOM      8  C   UNL     1       2.012   6.897  20.202  0.00  0.00    +0.000 C 
ATOM      9  O   UNL     1       2.144   7.437  21.304  0.00  0.00    +0.000 OA
ATOM     10  H   UNL     1       1.628   7.077  18.155  0.00  0.00    +0.000 HD
BRANCH   7  14
ATOM     11  C   UNL     1       1.374  11.841  18.943  0.00  0.00    +0.000 A 
ATOM     12  C   UNL     1       2.113  11.186  17.957  0.00  0.00    +0.000 A 
ATOM     13  C   UNL     1       2.201   9.789  17.910  0.00  0.00    +0.000 A 
ATOM     14  C   UNL     1       1.568   9.004  18.868  0.00  0.00    +0.000 A 
ATOM     15  C   UNL     1       0.714   9.655  19.780  0.00  0.00    +0.000 A 
ATOM     16  C   UNL     1       0.628  11.068  19.828  0.00  0.00    +0.000 A 
BRANCH  11  17
ATOM     17  O   UNL     1       1.525  13.199  18.928  0.00  0.00    +0.000 OA
BRANCH  17  19
ATOM     18  C   UNL     1       2.852  13.888  20.788  0.00  0.00    +0.000 C 
ATOM     19  C   UNL     1       2.778  13.786  19.266  0.00  0.00    +0.000 C 
ENDBRANCH  17  19
ENDBRANCH  11  17
ENDBRANCH   7  14
ENDBRANCH   1   8
BRANCH   6  20
ATOM     20  N   UNL     1       4.350   5.281  19.164  0.00  0.00    +0.000 N 
ATOM     21  C   UNL     1       4.488   5.860  17.902  0.00  0.00    +0.000 C 
ATOM     22  O   UNL     1       3.533   6.174  17.184  0.00  0.00    +0.000 OA
ATOM     23  H   UNL     1       5.068   5.461  19.867  0.00  0.00    +0.000 HD
BRANCH  21  24
ATOM     24  C   UNL     1       5.931   6.089  17.384  0.00  0.00    +0.000 C 
BRANCH  24  25
ATOM     25  N   UNL     1       6.553   4.826  16.918  0.00  0.00    +0.000 NA
ATOM     26  C   UNL     1       5.590   3.832  16.396  0.00  0.00    +0.000 C 
ATOM     27  C   UNL     1       5.122   4.045  14.944  0.00  0.00    +0.000 C 
ATOM     28  N   UNL     1       6.252   4.131  14.016  0.00  0.00    +0.000 N 
ATOM     29  C   UNL     1       6.041   3.704  12.717  0.00  0.00    +0.000 C 
ATOM     30  C   UNL     1       7.192   3.790  11.741  0.00  0.00    +0.000 C 
ATOM     31  O   UNL     1       4.967   3.235  12.338  0.00  0.00    +0.000 OA
ATOM     32  C   UNL     1       7.282   5.092  14.421  0.00  0.00    +0.000 C 
ATOM     33  C   UNL     1       7.640   5.025  15.934  0.00  0.00    +0.000 C 
ENDBRANCH  24  25
ENDBRANCH  21  24
ENDBRANCH   6  20
TORSDOF 7
ENDMDL
