MODEL 1
REMARK VINA RESULT:      -7.5      0.000      0.000
REMARK  Name = 
REMARK  10 active torsions:
REMARK  status: ('A' for Active; 'I' for Inactive)
REMARK    1  A    between atoms: C_1  and  C_2
REMARK    2  A    between atoms: C_2  and  O_3
REMARK    3  A    between atoms: O_3  and  C_4
REMARK    4  A    between atoms: C_7  and  C_8
REMARK    5  A    between atoms: C_10  and  C_11
REMARK    6  A    between atoms: C_14  and  C_15
REMARK    7  A    between atoms: C_15  and  CA_16
REMARK    8  A    between atoms: CA_16  and  N_17
REMARK    9  A    between atoms: CA_16  and  C_18
REMARK   10  A    between atoms: C_18  and  OXT_20
REMARK                            x       y       z     vdW  Elec       q    Type
REMARK                         _______ _______ _______ _____ _____    ______ ____
ROOT
ATOM      1  C   UNL     1       2.611   7.500  18.690  0.00  0.00    +0.000 A 
ATOM      2  C   UNL     1       2.755   6.406  19.556  0.00  0.00    +0.000 A 
ATOM      3  C   UNL     1       3.750   5.445  19.338  0.00  0.00    +0.000 A 
ATOM      4  C   UNL     1       4.612   5.555  18.239  0.00  0.00    +0.000 A 
ATOM      5  C   UNL     1       4.453   6.635  17.362  0.00  0.00    +0.000 A 
ATOM      6  C   UNL     1       3.466   7.597  17.585  0.00  0.00    +0.000 A 
ENDROOT
BRANCH   1   9
ATOM      7  C   UNL     1       0.333   9.816  20.018  0.00  0.00    +0.000 A 
ATOM      8  N   UNL     1       1.165   8.819  20.226  0.00  0.00    +0.000 NA
ATOM      9  C   UNL     1       1.615   8.534  18.954  0.00  0.00    +0.000 A 
ATOM     10  N   UNL     1       1.081   9.313  17.999  0.00  0.00    +0.000 NA
ATOM     11  O   UNL     1       0.235  10.163  18.701  0.00  0.00    +0.000 OA
BRANCH   7  15
ATOM     12  C   UNL     1      -2.054  12.081  22.742  0.00  0.00    +0.000 A 
ATOM     13  C   UNL     1      -1.945  12.465  21.406  0.00  0.00    +0.000 A 
ATOM     14  C   UNL     1      -1.154  11.728  20.521  0.00  0.00    +0.000 A 
ATOM     15  C   UNL     1      -0.447  10.601  20.965  0.00  0.00    +0.000 A 
ATOM     16  C   UNL     1      -0.528  10.255  22.322  0.00  0.00    +0.000 A 
ATOM     17  C   UNL     1      -1.318  10.994  23.207  0.00  0.00    +0.000 A 
BRANCH  12  18
ATOM     18  O   UNL     1      -2.898  12.840  23.504  0.00  0.00    +0.000 OA
BRANCH  18  20
ATOM     19  C   UNL     1      -4.339  14.735  23.534  0.00  0.00    +0.000 C 
ATOM     20  C   UNL     1      -2.959  14.228  23.166  0.00  0.00    +0.000 C 
ENDBRANCH  18  20
ENDBRANCH  12  18
ENDBRANCH   7  15
ENDBRANCH   1   9
BRANCH   4  21
ATOM     21  C   UNL     1       5.752   4.585  18.022  0.00  0.00    +0.000 C 
BRANCH  21  22
ATOM     22  CA  UNL     1       7.130   5.220  17.797  0.00  0.00    +0.000 C 
BRANCH  22  23
ATOM     23  N   UNL     1       8.072   4.170  17.328  0.00  0.00    +0.000 NA
ATOM     24  H1  UNL     1       7.547   3.539  16.712  0.00  0.00    +0.000 HD
ATOM     25  H2  UNL     1       8.313   3.571  18.121  0.00  0.00    +0.000 HD
ENDBRANCH  22  23
BRANCH  22  26
ATOM     26  C   UNL     1       7.670   5.834  19.097  0.00  0.00    +0.000 C 
ATOM     27  O   UNL     1       7.509   5.329  20.202  0.00  0.00    +0.000 OA
BRANCH  26  28
ATOM     28  OXT UNL     1       8.376   6.974  18.921  0.00  0.00    +0.000 OA
ATOM     29  HXT UNL     1       8.028   7.559  18.220  0.00  0.00    +0.000 HD
ENDBRANCH  26  28
ENDBRANCH  22  26
ENDBRANCH  21  22
ENDBRANCH   4  21
TORSDOF 9
ENDMDL
MODEL 2
REMARK VINA RESULT:      -7.4      2.910      3.511
REMARK  Name = 
REMARK  10 active torsions:
REMARK  status: ('A' for Active; 'I' for Inactive)
REMARK    1  A    between atoms: C_1  and  C_2
REMARK    2  A    between atoms: C_2  and  O_3
REMARK    3  A    between atoms: O_3  and  C_4
REMARK    4  A    between atoms: C_7  and  C_8
REMARK    5  A    between atoms: C_10  and  C_11
REMARK    6  A    between atoms: C_14  and  C_15
REMARK    7  A    between atoms: C_15  and  CA_16
REMARK    8  A    between atoms: CA_16  and  N_17
REMARK    9  A    between atoms: CA_16  and  C_18
REMARK   10  A    between atoms: C_18  and  OXT_20
REMARK                            x       y       z     vdW  Elec       q    Type
REMARK                         _______ _______ _______ _____ _____    ______ ____
ROOT
ATOM      1  C   UNL     1       3.689   5.670  18.057  0.00  0.00    +0.000 A 
ATOM      2  C   UNL     1       3.546   4.311  17.741  0.00  0.00    +0.000 A 
ATOM      3  C   UNL     1       4.383   3.702  16.798  0.00  0.00    +0.000 A 
ATOM      4  C   UNL     1       5.373   4.446  16.144  0.00  0.00    +0.000 A 
ATOM      5  C   UNL     1       5.500   5.809  16.442  0.00  0.00    +0.000 A 
ATOM      6  C   UNL     1       4.670   6.414  17.389  0.00  0.00    +0.000 A 
ENDROOT
BRANCH   1   9
ATOM      7  C   UNL     1       1.710   7.735  20.090  0.00  0.00    +0.000 A 
ATOM      8  N   UNL     1       2.461   7.609  19.018  0.00  0.00    +0.000 NA
ATOM      9  C   UNL     1       2.858   6.289  19.084  0.00  0.00    +0.000 A 
ATOM     10  N   UNL     1       2.382   5.630  20.153  0.00  0.00    +0.000 NA
ATOM     11  O   UNL     1       1.622   6.583  20.819  0.00  0.00    +0.000 OA
BRANCH   7  15
ATOM     12  C   UNL     1      -0.591  11.062  21.462  0.00  0.00    +0.000 A 
ATOM     13  C   UNL     1      -0.136  11.010  20.146  0.00  0.00    +0.000 A 
ATOM     14  C   UNL     1       0.627   9.925  19.704  0.00  0.00    +0.000 A 
ATOM     15  C   UNL     1       0.957   8.882  20.580  0.00  0.00    +0.000 A 
ATOM     16  C   UNL     1       0.533   8.971  21.914  0.00  0.00    +0.000 A 
ATOM     17  C   UNL     1      -0.227  10.058  22.356  0.00  0.00    +0.000 A 
BRANCH  12  18
ATOM     18  O   UNL     1      -1.375  12.140  21.770  0.00  0.00    +0.000 OA
BRANCH  18  20
ATOM     19  C   UNL     1      -3.079  12.378  23.415  0.00  0.00    +0.000 C 
ATOM     20  C   UNL     1      -1.584  12.376  23.164  0.00  0.00    +0.000 C 
ENDBRANCH  18  20
ENDBRANCH  12  18
ENDBRANCH   7  15
ENDBRANCH   1   9
BRANCH   4  21
ATOM     21  C   UNL     1       6.350   3.803  15.187  0.00  0.00    +0.000 C 
BRANCH  21  22
ATOM     22  CA  UNL     1       6.195   4.198  13.713  0.00  0.00    +0.000 C 
BRANCH  22  23
ATOM     23  N   UNL     1       6.077   2.964  12.894  0.00  0.00    +0.000 NA
ATOM     24  H1  UNL     1       5.159   2.986  12.434  0.00  0.00    +0.000 HD
ATOM     25  H2  UNL     1       6.001   2.161  13.523  0.00  0.00    +0.000 HD
ENDBRANCH  22  23
BRANCH  22  26
ATOM     26  C   UNL     1       7.410   5.005  13.231  0.00  0.00    +0.000 C 
ATOM     27  O   UNL     1       8.122   5.668  13.978  0.00  0.00    +0.000 OA
BRANCH  26  28
ATOM     28  OXT UNL     1       7.658   4.899  11.907  0.00  0.00    +0.000 OA
ATOM     29  HXT UNL     1       8.443   4.361  11.686  0.00  0.00    +0.000 HD
ENDBRANCH  26  28
ENDBRANCH  22  26
ENDBRANCH  21  22
ENDBRANCH   4  21
TORSDOF 9
ENDMDL
MODEL 3
REMARK VINA RESULT:      -7.3      2.667      3.238
REMARK  Name = 
REMARK  10 active torsions:
REMARK  status: ('A' for Active; 'I' for Inactive)
REMARK    1  A    between atoms: C_1  and  C_2
REMARK    2  A    between atoms: C_2  and  O_3
REMARK    3  A    between atoms: O_3  and  C_4
REMARK    4  A    between atoms: C_7  and  C_8
REMARK    5  A    between atoms: C_10  and  C_11
REMARK    6  A    between atoms: C_14  and  C_15
REMARK    7  A    between atoms: C_15  and  CA_16
REMARK    8  A    between atoms: CA_16  and  N_17
REMARK    9  A    between atoms: CA_16  and  C_18
REMARK   10  A    between atoms: C_18  and  OXT_20
REMARK                            x       y       z     vdW  Elec       q    Type
REMARK                         _______ _______ _______ _____ _____    ______ ____
ROOT
ATOM      1  C   UNL     1       3.309   5.590  18.431  0.00  0.00    +0.000 A 
ATOM      2  C   UNL     1       3.266   4.201  18.240  0.00  0.00    +0.000 A 
ATOM      3  C   UNL     1       4.085   3.583  17.287  0.00  0.00    +0.000 A 
ATOM      4  C   UNL     1       4.953   4.347  16.496  0.00  0.00    +0.000 A 
ATOM      5  C   UNL     1       4.978   5.736  16.671  0.00  0.00    +0.000 A 
ATOM      6  C   UNL     1       4.167   6.351  17.628  0.00  0.00    +0.000 A 
ENDROOT
BRANCH   1   9
ATOM      7  C   UNL     1       1.465   7.716  20.527  0.00  0.00    +0.000 A 
ATOM      8  N   UNL     1       2.243   7.581  19.476  0.00  0.00    +0.000 NA
ATOM      9  C   UNL     1       2.501   6.225  19.467  0.00  0.00    +0.000 A 
ATOM     10  N   UNL     1       1.917   5.553  20.472  0.00  0.00    +0.000 NA
ATOM     11  O   UNL     1       1.229   6.536  21.172  0.00  0.00    +0.000 OA
BRANCH   7  15
ATOM     12  C   UNL     1      -0.541  11.175  22.031  0.00  0.00    +0.000 A 
ATOM     13  C   UNL     1       0.022  11.181  20.757  0.00  0.00    +0.000 A 
ATOM     14  C   UNL     1       0.688  10.051  20.272  0.00  0.00    +0.000 A 
ATOM     15  C   UNL     1       0.811   8.902  21.065  0.00  0.00    +0.000 A 
ATOM     16  C   UNL     1       0.281   8.926  22.364  0.00  0.00    +0.000 A 
ATOM     17  C   UNL     1      -0.382  10.057  22.848  0.00  0.00    +0.000 A 
BRANCH  12  18
ATOM     18  O   UNL     1      -1.217  12.312  22.380  0.00  0.00    +0.000 OA
BRANCH  18  20
ATOM     19  C   UNL     1      -1.019  14.445  23.417  0.00  0.00    +0.000 C 
ATOM     20  C   UNL     1      -0.450  13.518  22.361  0.00  0.00    +0.000 C 
ENDBRANCH  18  20
ENDBRANCH  12  18
ENDBRANCH   7  15
ENDBRANCH   1   9
BRANCH   4  21
ATOM     21  C   UNL     1       5.913   3.705  15.520  0.00  0.00    +0.000 C 
BRANCH  21  22
ATOM     22  CA  UNL     1       6.000   4.369  14.140  0.00  0.00    +0.000 C 
BRANCH  22  23
ATOM     23  N   UNL     1       5.975   3.313  13.096  0.00  0.00    +0.000 NA
ATOM     24  H1  UNL     1       6.602   3.612  12.340  0.00  0.00    +0.000 HD
ATOM     25  H2  UNL     1       5.055   3.316  12.649  0.00  0.00    +0.000 HD
ENDBRANCH  22  23
BRANCH  22  26
ATOM     26  C   UNL     1       7.297   5.180  14.003  0.00  0.00    +0.000 C 
ATOM     27  O   UNL     1       7.821   5.444  12.926  0.00  0.00    +0.000 OA
BRANCH  26  28
ATOM     28  OXT UNL     1       7.805   5.617  15.177  0.00  0.00    +0.000 OA
ATOM     29  HXT UNL     1       8.644   5.188  15.438  0.00  0.00    +0.000 HD
ENDBRANCH  26  28
ENDBRANCH  22  26
ENDBRANCH  21  22
ENDBRANCH   4  21
TORSDOF 9
ENDMDL
MODEL 4
REMARK VINA RESULT:      -7.3      1.476      1.591
REMARK  Name = 
REMARK  10 active torsions:
REMARK  status: ('A' for Active; 'I' for Inactive)
REMARK    1  A    between atoms: C_1  and  C_2
REMARK    2  A    between atoms: C_2  and  O_3
REMARK    3  A    between atoms: O_3  and  C_4
REMARK    4  A    between atoms: C_7  and  C_8
REMARK    5  A    between atoms: C_10  and  C_11
REMARK    6  A    between atoms: C_14  and  C_15
REMARK    7  A    between atoms: C_15  and  CA_16
REMARK    8  A    between atoms: CA_16  and  N_17
REMARK    9  A    between atoms: CA_16  and  C_18
REMARK   10  A    between atoms: C_18  and  OXT_20
REMARK                            x       y       z     vdW  Elec       q    Type
REMARK                         _______ _______ _______ _____ _____    ______ ____
ROOT
ATOM      1  C   UNL     1       2.279   7.915  18.711  0.00  0.00    +0.000 A 
ATOM      2  C   UNL     1       2.403   6.856  19.622  0.00  0.00    +0.000 A 
ATOM      3  C   UNL     1       3.397   5.882  19.459  0.00  0.00    +0.000 A 
ATOM      4  C   UNL     1       4.277   5.944  18.371  0.00  0.00    +0.000 A 
ATOM      5  C   UNL     1       4.137   6.989  17.448  0.00  0.00    +0.000 A 
ATOM      6  C   UNL     1       3.152   7.964  17.617  0.00  0.00    +0.000 A 
ENDROOT
BRANCH   1   9
ATOM      7  C   UNL     1       0.016  10.315  19.908  0.00  0.00    +0.000 A 
ATOM      8  N   UNL     1       0.853   9.336  20.173  0.00  0.00    +0.000 NA
ATOM      9  C   UNL     1       1.284   8.963  18.916  0.00  0.00    +0.000 A 
ATOM     10  N   UNL     1       0.733   9.672  17.918  0.00  0.00    +0.000 NA
ATOM     11  O   UNL     1      -0.104  10.568  18.571  0.00  0.00    +0.000 OA
BRANCH   7  15
ATOM     12  C   UNL     1      -2.331  12.740  22.528  0.00  0.00    +0.000 A 
ATOM     13  C   UNL     1      -2.517  12.802  21.148  0.00  0.00    +0.000 A 
ATOM     14  C   UNL     1      -1.739  12.016  20.293  0.00  0.00    +0.000 A 
ATOM     15  C   UNL     1      -0.752  11.164  20.809  0.00  0.00    +0.000 A 
ATOM     16  C   UNL     1      -0.543  11.147  22.196  0.00  0.00    +0.000 A 
ATOM     17  C   UNL     1      -1.319  11.936  23.050  0.00  0.00    +0.000 A 
BRANCH  12  18
ATOM     18  O   UNL     1      -3.184  13.508  23.270  0.00  0.00    +0.000 OA
BRANCH  18  20
ATOM     19  C   UNL     1      -4.621  12.333  24.760  0.00  0.00    +0.000 C 
ATOM     20  C   UNL     1      -4.514  13.004  23.405  0.00  0.00    +0.000 C 
ENDBRANCH  18  20
ENDBRANCH  12  18
ENDBRANCH   7  15
ENDBRANCH   1   9
BRANCH   4  21
ATOM     21  C   UNL     1       5.415   4.962  18.211  0.00  0.00    +0.000 C 
BRANCH  21  22
ATOM     22  CA  UNL     1       5.758   4.571  16.768  0.00  0.00    +0.000 C 
BRANCH  22  23
ATOM     23  N   UNL     1       5.361   3.157  16.545  0.00  0.00    +0.000 NA
ATOM     24  H1  UNL     1       4.582   3.158  15.876  0.00  0.00    +0.000 HD
ATOM     25  H2  UNL     1       4.930   2.800  17.400  0.00  0.00    +0.000 HD
ENDBRANCH  22  23
BRANCH  22  26
ATOM     26  C   UNL     1       7.265   4.717  16.505  0.00  0.00    +0.000 C 
ATOM     27  O   UNL     1       8.128   4.239  17.233  0.00  0.00    +0.000 OA
BRANCH  26  28
ATOM     28  OXT UNL     1       7.568   5.392  15.374  0.00  0.00    +0.000 OA
ATOM     29  HXT UNL     1       7.036   5.135  14.596  0.00  0.00    +0.000 HD
ENDBRANCH  26  28
ENDBRANCH  22  26
ENDBRANCH  21  22
ENDBRANCH   4  21
TORSDOF 9
ENDMDL
MODEL 5
REMARK VINA RESULT:      -7.3      2.704      3.405
REMARK  Name = 
REMARK  10 active torsions:
REMARK  status: ('A' for Active; 'I' for Inactive)
REMARK    1  A    between atoms: C_1  and  C_2
REMARK    2  A    between atoms: C_2  and  O_3
REMARK    3  A    between atoms: O_3  and  C_4
REMARK    4  A    between atoms: C_7  and  C_8
REMARK    5  A    between atoms: C_10  and  C_11
REMARK    6  A    between atoms: C_14  and  C_15
REMARK    7  A    between atoms: C_15  and  CA_16
REMARK    8  A    between atoms: CA_16  and  N_17
REMARK    9  A    between atoms: CA_16  and  C_18
REMARK   10  A    between atoms: C_18  and  OXT_20
REMARK                            x       y       z     vdW  Elec       q    Type
REMARK                         _______ _______ _______ _____ _____    ______ ____
ROOT
ATOM      1  C   UNL     1       3.441   6.151  18.140  0.00  0.00    +0.000 A 
ATOM      2  C   UNL     1       4.120   7.023  17.276  0.00  0.00    +0.000 A 
ATOM      3  C   UNL     1       4.839   6.530  16.180  0.00  0.00    +0.000 A 
ATOM      4  C   UNL     1       4.903   5.153  15.936  0.00  0.00    +0.000 A 
ATOM      5  C   UNL     1       4.244   4.281  16.813  0.00  0.00    +0.000 A 
ATOM      6  C   UNL     1       3.519   4.774  17.900  0.00  0.00    +0.000 A 
ENDROOT
BRANCH   1   9
ATOM      7  C   UNL     1       1.521   8.013  20.413  0.00  0.00    +0.000 A 
ATOM      8  N   UNL     1       2.238   7.988  19.311  0.00  0.00    +0.000 NA
ATOM      9  C   UNL     1       2.640   6.670  19.244  0.00  0.00    +0.000 A 
ATOM     10  N   UNL     1       2.199   5.914  20.263  0.00  0.00    +0.000 NA
ATOM     11  O   UNL     1       1.457   6.799  21.035  0.00  0.00    +0.000 OA
BRANCH   7  15
ATOM     12  C   UNL     1      -0.573  11.221  22.302  0.00  0.00    +0.000 A 
ATOM     13  C   UNL     1      -0.589   9.942  22.855  0.00  0.00    +0.000 A 
ATOM     14  C   UNL     1       0.088   8.892  22.228  0.00  0.00    +0.000 A 
ATOM     15  C   UNL     1       0.780   9.106  21.027  0.00  0.00    +0.000 A 
ATOM     16  C   UNL     1       0.747  10.388  20.457  0.00  0.00    +0.000 A 
ATOM     17  C   UNL     1       0.068  11.436  21.084  0.00  0.00    +0.000 A 
BRANCH  12  18
ATOM     18  O   UNL     1      -1.220  12.182  23.028  0.00  0.00    +0.000 OA
BRANCH  18  20
ATOM     19  C   UNL     1      -3.464  12.841  22.580  0.00  0.00    +0.000 C 
ATOM     20  C   UNL     1      -2.578  11.894  23.366  0.00  0.00    +0.000 C 
ENDBRANCH  18  20
ENDBRANCH  12  18
ENDBRANCH   7  15
ENDBRANCH   1   9
BRANCH   4  21
ATOM     21  C   UNL     1       5.596   4.592  14.715  0.00  0.00    +0.000 C 
BRANCH  21  22
ATOM     22  CA  UNL     1       7.129   4.647  14.737  0.00  0.00    +0.000 C 
BRANCH  22  23
ATOM     23  N   UNL     1       7.558   5.702  15.691  0.00  0.00    +0.000 NA
ATOM     24  H1  UNL     1       8.573   5.817  15.587  0.00  0.00    +0.000 HD
ATOM     25  H2  UNL     1       7.462   5.341  16.642  0.00  0.00    +0.000 HD
ENDBRANCH  22  23
BRANCH  22  26
ATOM     26  C   UNL     1       7.685   4.974  13.343  0.00  0.00    +0.000 C 
ATOM     27  O   UNL     1       7.259   4.471  12.309  0.00  0.00    +0.000 OA
BRANCH  26  28
ATOM     28  OXT UNL     1       8.670   5.900  13.341  0.00  0.00    +0.000 OA
ATOM     29  HXT UNL     1       8.380   6.796  13.082  0.00  0.00    +0.000 HD
ENDBRANCH  26  28
ENDBRANCH  22  26
ENDBRANCH  21  22
ENDBRANCH   4  21
TORSDOF 9
ENDMDL
MODEL 6
REMARK VINA RESULT:      -7.3      2.630      3.282
REMARK  Name = 
REMARK  10 active torsions:
REMARK  status: ('A' for Active; 'I' for Inactive)
REMARK    1  A    between atoms: C_1  and  C_2
REMARK    2  A    between atoms: C_2  and  O_3
REMARK    3  A    between atoms: O_3  and  C_4
REMARK    4  A    between atoms: C_7  and  C_8
REMARK    5  A    between atoms: C_10  and  C_11
REMARK    6  A    between atoms: C_14  and  C_15
REMARK    7  A    between atoms: C_15  and  CA_16
REMARK    8  A    between atoms: CA_16  and  N_17
REMARK    9  A    between atoms: CA_16  and  C_18
REMARK   10  A    between atoms: C_18  and  OXT_20
REMARK                            x       y       z     vdW  Elec       q    Type
REMARK                         _______ _______ _______ _____ _____    ______ ____
ROOT
ATOM      1  C   UNL     1       3.285   5.584  18.519  0.00  0.00    +0.000 A 
ATOM      2  C   UNL     1       2.851   4.444  17.828  0.00  0.00    +0.000 A 
ATOM      3  C   UNL     1       3.671   3.830  16.872  0.00  0.00    +0.000 A 
ATOM      4  C   UNL     1       4.936   4.356  16.581  0.00  0.00    +0.000 A 
ATOM      5  C   UNL     1       5.359   5.509  17.255  0.00  0.00    +0.000 A 
ATOM      6  C   UNL     1       4.544   6.114  18.214  0.00  0.00    +0.000 A 
ENDROOT
BRANCH   1   9
ATOM      7  C   UNL     1       1.409   7.643  20.654  0.00  0.00    +0.000 A 
ATOM      8  N   UNL     1       2.216   7.542  19.621  0.00  0.00    +0.000 NA
ATOM      9  C   UNL     1       2.457   6.185  19.560  0.00  0.00    +0.000 A 
ATOM     10  N   UNL     1       1.835   5.477  20.517  0.00  0.00    +0.000 NA
ATOM     11  O   UNL     1       1.140   6.439  21.240  0.00  0.00    +0.000 OA
BRANCH   7  15
ATOM     12  C   UNL     1      -0.423  11.079  22.410  0.00  0.00    +0.000 A 
ATOM     13  C   UNL     1      -0.445   9.851  23.069  0.00  0.00    +0.000 A 
ATOM     14  C   UNL     1       0.146   8.726  22.485  0.00  0.00    +0.000 A 
ATOM     15  C   UNL     1       0.756   8.813  21.226  0.00  0.00    +0.000 A 
ATOM     16  C   UNL     1       0.728  10.044  20.554  0.00  0.00    +0.000 A 
ATOM     17  C   UNL     1       0.135  11.168  21.137  0.00  0.00    +0.000 A 
BRANCH  12  18
ATOM     18  O   UNL     1      -0.979  12.122  23.097  0.00  0.00    +0.000 OA
BRANCH  18  20
ATOM     19  C   UNL     1      -2.675  13.779  23.315  0.00  0.00    +0.000 C 
ATOM     20  C   UNL     1      -2.357  12.381  22.821  0.00  0.00    +0.000 C 
ENDBRANCH  18  20
ENDBRANCH  12  18
ENDBRANCH   7  15
ENDBRANCH   1   9
BRANCH   4  21
ATOM     21  C   UNL     1       5.880   3.671  15.620  0.00  0.00    +0.000 C 
BRANCH  21  22
ATOM     22  CA  UNL     1       6.000   4.315  14.233  0.00  0.00    +0.000 C 
BRANCH  22  23
ATOM     23  N   UNL     1       6.101   3.240  13.211  0.00  0.00    +0.000 NA
ATOM     24  H1  UNL     1       6.026   2.342  13.701  0.00  0.00    +0.000 HD
ATOM     25  H2  UNL     1       7.056   3.226  12.846  0.00  0.00    +0.000 HD
ENDBRANCH  22  23
BRANCH  22  26
ATOM     26  C   UNL     1       7.248   5.207  14.149  0.00  0.00    +0.000 C 
ATOM     27  O   UNL     1       7.770   5.734  15.125  0.00  0.00    +0.000 OA
BRANCH  26  28
ATOM     28  OXT UNL     1       7.754   5.338  12.902  0.00  0.00    +0.000 OA
ATOM     29  HXT UNL     1       8.369   4.626  12.640  0.00  0.00    +0.000 HD
ENDBRANCH  26  28
ENDBRANCH  22  26
ENDBRANCH  21  22
ENDBRANCH   4  21
TORSDOF 9
ENDMDL
MODEL 7
REMARK VINA RESULT:      -7.2      2.440      2.886
REMARK  Name = 
REMARK  10 active torsions:
REMARK  status: ('A' for Active; 'I' for Inactive)
REMARK    1  A    between atoms: C_1  and  C_2
REMARK    2  A    between atoms: C_2  and  O_3
REMARK    3  A    between atoms: O_3  and  C_4
REMARK    4  A    between atoms: C_7  and  C_8
REMARK    5  A    between atoms: C_10  and  C_11
REMARK    6  A    between atoms: C_14  and  C_15
REMARK    7  A    between atoms: C_15  and  CA_16
REMARK    8  A    between atoms: CA_16  and  N_17
REMARK    9  A    between atoms: CA_16  and  C_18
REMARK   10  A    between atoms: C_18  and  OXT_20
REMARK                            x       y       z     vdW  Elec       q    Type
REMARK                         _______ _______ _______ _____ _____    ______ ____
ROOT
ATOM      1  C   UNL     1       2.282   7.759  18.972  0.00  0.00    +0.000 A 
ATOM      2  C   UNL     1       3.099   7.604  17.842  0.00  0.00    +0.000 A 
ATOM      3  C   UNL     1       3.847   6.435  17.652  0.00  0.00    +0.000 A 
ATOM      4  C   UNL     1       3.801   5.404  18.600  0.00  0.00    +0.000 A 
ATOM      5  C   UNL     1       3.004   5.569  19.739  0.00  0.00    +0.000 A 
ATOM      6  C   UNL     1       2.251   6.731  19.922  0.00  0.00    +0.000 A 
ENDROOT
BRANCH   1   9
ATOM      7  C   UNL     1       0.146  10.339  20.018  0.00  0.00    +0.000 A 
ATOM      8  N   UNL     1       0.675   9.159  20.255  0.00  0.00    +0.000 NA
ATOM      9  C   UNL     1       1.454   8.949  19.136  0.00  0.00    +0.000 A 
ATOM     10  N   UNL     1       1.405   9.950  18.242  0.00  0.00    +0.000 NA
ATOM     11  O   UNL     1       0.542  10.871  18.824  0.00  0.00    +0.000 OA
BRANCH   7  15
ATOM     12  C   UNL     1      -2.561  12.654  22.375  0.00  0.00    +0.000 A 
ATOM     13  C   UNL     1      -2.553  12.771  20.987  0.00  0.00    +0.000 A 
ATOM     14  C   UNL     1      -1.657  12.020  20.219  0.00  0.00    +0.000 A 
ATOM     15  C   UNL     1      -0.746  11.150  20.835  0.00  0.00    +0.000 A 
ATOM     16  C   UNL     1      -0.733  11.079  22.236  0.00  0.00    +0.000 A 
ATOM     17  C   UNL     1      -1.627  11.832  23.002  0.00  0.00    +0.000 A 
BRANCH  12  18
ATOM     18  O   UNL     1      -3.515  13.391  23.021  0.00  0.00    +0.000 OA
BRANCH  18  20
ATOM     19  C   UNL     1      -5.617  14.449  22.657  0.00  0.00    +0.000 C 
ATOM     20  C   UNL     1      -4.866  13.132  22.633  0.00  0.00    +0.000 C 
ENDBRANCH  18  20
ENDBRANCH  12  18
ENDBRANCH   7  15
ENDBRANCH   1   9
BRANCH   4  21
ATOM     21  C   UNL     1       4.527   4.095  18.386  0.00  0.00    +0.000 C 
BRANCH  21  22
ATOM     22  CA  UNL     1       3.994   2.901  19.189  0.00  0.00    +0.000 C 
BRANCH  22  23
ATOM     23  N   UNL     1       5.117   2.297  19.953  0.00  0.00    +0.000 NA
ATOM     24  H1  UNL     1       5.878   2.115  19.289  0.00  0.00    +0.000 HD
ATOM     25  H2  UNL     1       4.841   1.359  20.251  0.00  0.00    +0.000 HD
ENDBRANCH  22  23
BRANCH  22  26
ATOM     26  C   UNL     1       3.391   1.839  18.258  0.00  0.00    +0.000 C 
ATOM     27  O   UNL     1       2.440   2.052  17.514  0.00  0.00    +0.000 OA
BRANCH  26  28
ATOM     28  OXT UNL     1       4.023   0.644  18.295  0.00  0.00    +0.000 OA
ATOM     29  HXT UNL     1       4.972   0.697  18.520  0.00  0.00    +0.000 HD
ENDBRANCH  26  28
ENDBRANCH  22  26
ENDBRANCH  21  22
ENDBRANCH   4  21
TORSDOF 9
ENDMDL
MODEL 8
REMARK VINA RESULT:      -7.1      1.344      1.800
REMARK  Name = 
REMARK  10 active torsions:
REMARK  status: ('A' for Active; 'I' for Inactive)
REMARK    1  A    between atoms: C_1  and  C_2
REMARK    2  A    between atoms: C_2  and  O_3
REMARK    3  A    between atoms: O_3  and  C_4
REMARK    4  A    between atoms: C_7  and  C_8
REMARK    5  A    between atoms: C_10  and  C_11
REMARK    6  A    between atoms: C_14  and  C_15
REMARK    7  A    between atoms: C_15  and  CA_16
REMARK    8  A    between atoms: CA_16  and  N_17
REMARK    9  A    between atoms: CA_16  and  C_18
REMARK   10  A    between atoms: C_18  and  OXT_20
REMARK                            x       y       z     vdW  Elec       q    Type
REMARK                         _______ _______ _______ _____ _____    ______ ____
ROOT
ATOM      1  C   UNL     1       2.269   7.989  18.836  0.00  0.00    +0.000 A 
ATOM      2  C   UNL     1       2.279   6.918  19.741  0.00  0.00    +0.000 A 
ATOM      3  C   UNL     1       3.118   5.815  19.538  0.00  0.00    +0.000 A 
ATOM      4  C   UNL     1       3.953   5.758  18.415  0.00  0.00    +0.000 A 
ATOM      5  C   UNL     1       3.925   6.817  17.498  0.00  0.00    +0.000 A 
ATOM      6  C   UNL     1       3.094   7.920  17.707  0.00  0.00    +0.000 A 
ENDROOT
BRANCH   1   9
ATOM      7  C   UNL     1       0.090  10.466  20.031  0.00  0.00    +0.000 A 
ATOM      8  N   UNL     1       0.593   9.259  20.166  0.00  0.00    +0.000 NA
ATOM      9  C   UNL     1       1.441   9.166  19.082  0.00  0.00    +0.000 A 
ATOM     10  N   UNL     1       1.456  10.261  18.305  0.00  0.00    +0.000 NA
ATOM     11  O   UNL     1       0.565  11.124  18.933  0.00  0.00    +0.000 OA
BRANCH   7  15
ATOM     12  C   UNL     1      -2.568  12.659  22.556  0.00  0.00    +0.000 A 
ATOM     13  C   UNL     1      -1.694  11.718  23.096  0.00  0.00    +0.000 A 
ATOM     14  C   UNL     1      -0.834  10.994  22.265  0.00  0.00    +0.000 A 
ATOM     15  C   UNL     1      -0.847  11.193  20.877  0.00  0.00    +0.000 A 
ATOM     16  C   UNL     1      -1.766  12.109  20.343  0.00  0.00    +0.000 A 
ATOM     17  C   UNL     1      -2.628  12.831  21.175  0.00  0.00    +0.000 A 
BRANCH  12  18
ATOM     18  O   UNL     1      -3.323  13.348  23.465  0.00  0.00    +0.000 OA
BRANCH  18  20
ATOM     19  C   UNL     1      -5.526  12.778  24.164  0.00  0.00    +0.000 C 
ATOM     20  C   UNL     1      -4.046  12.549  24.403  0.00  0.00    +0.000 C 
ENDBRANCH  18  20
ENDBRANCH  12  18
ENDBRANCH   7  15
ENDBRANCH   1   9
BRANCH   4  21
ATOM     21  C   UNL     1       4.933   4.626  18.209  0.00  0.00    +0.000 C 
BRANCH  21  22
ATOM     22  CA  UNL     1       5.665   4.617  16.860  0.00  0.00    +0.000 C 
BRANCH  22  23
ATOM     23  N   UNL     1       5.655   3.233  16.318  0.00  0.00    +0.000 NA
ATOM     24  H1  UNL     1       5.289   2.617  17.052  0.00  0.00    +0.000 HD
ATOM     25  H2  UNL     1       6.622   2.918  16.211  0.00  0.00    +0.000 HD
ENDBRANCH  22  23
BRANCH  22  26
ATOM     26  C   UNL     1       7.119   5.083  17.023  0.00  0.00    +0.000 C 
ATOM     27  O   UNL     1       7.565   6.103  16.510  0.00  0.00    +0.000 OA
BRANCH  26  28
ATOM     28  OXT UNL     1       7.871   4.288  17.817  0.00  0.00    +0.000 OA
ATOM     29  HXT UNL     1       8.118   4.690  18.672  0.00  0.00    +0.000 HD
ENDBRANCH  26  28
ENDBRANCH  22  26
ENDBRANCH  21  22
ENDBRANCH   4  21
TORSDOF 9
ENDMDL
MODEL 9
REMARK VINA RESULT:      -7.1      2.595      3.139
REMARK  Name = 
REMARK  10 active torsions:
REMARK  status: ('A' for Active; 'I' for Inactive)
REMARK    1  A    between atoms: C_1  and  C_2
REMARK    2  A    between atoms: C_2  and  O_3
REMARK    3  A    between atoms: O_3  and  C_4
REMARK    4  A    between atoms: C_7  and  C_8
REMARK    5  A    between atoms: C_10  and  C_11
REMARK    6  A    between atoms: C_14  and  C_15
REMARK    7  A    between atoms: C_15  and  CA_16
REMARK    8  A    between atoms: CA_16  and  N_17
REMARK    9  A    between atoms: CA_16  and  C_18
REMARK   10  A    between atoms: C_18  and  OXT_20
REMARK                            x       y       z     vdW  Elec       q    Type
REMARK                         _______ _______ _______ _____ _____    ______ ____
ROOT
ATOM      1  C   UNL     1       3.272   6.288  18.324  0.00  0.00    +0.000 A 
ATOM      2  C   UNL     1       3.941   7.155  17.447  0.00  0.00    +0.000 A 
ATOM      3  C   UNL     1       4.680   6.654  16.367  0.00  0.00    +0.000 A 
ATOM      4  C   UNL     1       4.774   5.273  16.154  0.00  0.00    +0.000 A 
ATOM      5  C   UNL     1       4.126   4.407  17.044  0.00  0.00    +0.000 A 
ATOM      6  C   UNL     1       3.382   4.908  18.114  0.00  0.00    +0.000 A 
ENDROOT
BRANCH   1   9
ATOM      7  C   UNL     1       1.312   8.163  20.550  0.00  0.00    +0.000 A 
ATOM      8  N   UNL     1       2.051   8.132  19.463  0.00  0.00    +0.000 NA
ATOM      9  C   UNL     1       2.451   6.813  19.410  0.00  0.00    +0.000 A 
ATOM     10  N   UNL     1       1.990   6.062  20.423  0.00  0.00    +0.000 NA
ATOM     11  O   UNL     1       1.234   6.952  21.177  0.00  0.00    +0.000 OA
BRANCH   7  15
ATOM     12  C   UNL     1      -0.977  11.357  22.224  0.00  0.00    +0.000 A 
ATOM     13  C   UNL     1      -0.465  11.455  20.932  0.00  0.00    +0.000 A 
ATOM     14  C   UNL     1       0.294  10.412  20.391  0.00  0.00    +0.000 A 
ATOM     15  C   UNL     1       0.562   9.261  21.145  0.00  0.00    +0.000 A 
ATOM     16  C   UNL     1       0.081   9.197  22.462  0.00  0.00    +0.000 A 
ATOM     17  C   UNL     1      -0.675  10.242  23.002  0.00  0.00    +0.000 A 
BRANCH  12  18
ATOM     18  O   UNL     1      -1.751  12.410  22.629  0.00  0.00    +0.000 OA
BRANCH  18  20
ATOM     19  C   UNL     1      -3.371  13.341  24.104  0.00  0.00    +0.000 C 
ATOM     20  C   UNL     1      -2.884  12.072  23.432  0.00  0.00    +0.000 C 
ENDBRANCH  18  20
ENDBRANCH  12  18
ENDBRANCH   7  15
ENDBRANCH   1   9
BRANCH   4  21
ATOM     21  C   UNL     1       5.489   4.701  14.951  0.00  0.00    +0.000 C 
BRANCH  21  22
ATOM     22  CA  UNL     1       7.021   4.761  14.998  0.00  0.00    +0.000 C 
BRANCH  22  23
ATOM     23  N   UNL     1       7.431   5.861  15.909  0.00  0.00    +0.000 NA
ATOM     24  H1  UNL     1       6.764   6.631  15.781  0.00  0.00    +0.000 HD
ATOM     25  H2  UNL     1       8.310   6.257  15.568  0.00  0.00    +0.000 HD
ENDBRANCH  22  23
BRANCH  22  26
ATOM     26  C   UNL     1       7.602   5.023  13.601  0.00  0.00    +0.000 C 
ATOM     27  O   UNL     1       8.477   5.851  13.375  0.00  0.00    +0.000 OA
BRANCH  26  28
ATOM     28  OXT UNL     1       7.091   4.232  12.630  0.00  0.00    +0.000 OA
ATOM     29  HXT UNL     1       7.744   3.641  12.207  0.00  0.00    +0.000 HD
ENDBRANCH  26  28
ENDBRANCH  22  26
ENDBRANCH  21  22
ENDBRANCH   4  21
TORSDOF 9
ENDMDL
