MODEL 1
REMARK VINA RESULT:      -7.5      0.000      0.000
REMARK  Name = 
REMARK  7 active torsions:
REMARK  status: ('A' for Active; 'I' for Inactive)
REMARK    1  A    between atoms: O_1  and  C_2
REMARK    2  A    between atoms: C_4  and  C_5
REMARK    3  A    between atoms: C_11  and  N_12
REMARK    4  A    between atoms: N_12  and  C_13
REMARK    5  A    between atoms: N_12  and  C_17
REMARK    6  A    between atoms: C_13  and  C_14
REMARK    7  A    between atoms: C_17  and  C_18
REMARK                            x       y       z     vdW  Elec       q    Type
REMARK                         _______ _______ _______ _____ _____    ______ ____
ROOT
ATOM      1  C   UNL     1       4.406   4.013  17.656  0.00  0.00    +0.000 A 
ATOM      2  C   UNL     1       3.712   3.515  18.741  0.00  0.00    +0.000 A 
ATOM      3  C   UNL     1       2.901   4.398  19.464  0.00  0.00    +0.000 A 
ATOM      4  C   UNL     1       2.836   5.760  19.077  0.00  0.00    +0.000 A 
ATOM      5  C   UNL     1       2.068   6.741  19.756  0.00  0.00    +0.000 A 
ATOM      6  C   UNL     1       1.882   8.036  19.261  0.00  0.00    +0.000 A 
ATOM      7  C   UNL     1       2.586   8.357  18.096  0.00  0.00    +0.000 A 
ATOM      8  C   UNL     1       3.419   7.430  17.461  0.00  0.00    +0.000 A 
ATOM      9  C   UNL     1       3.552   6.133  17.924  0.00  0.00    +0.000 A 
ATOM     10  N   UNL     1       4.331   5.283  17.238  0.00  0.00    +0.000 NA
ENDROOT
BRANCH   3  11
ATOM     11  C   UNL     1       2.054   3.862  20.588  0.00  0.00    +0.000 C 
ATOM     12  F   UNL     1       2.335   4.434  21.794  0.00  0.00    +0.000 F 
ATOM     13  F   UNL     1       0.721   4.056  20.392  0.00  0.00    +0.000 F 
ATOM     14  F   UNL     1       2.218   2.523  20.779  0.00  0.00    +0.000 F 
ENDBRANCH   3  11
BRANCH   1  15
ATOM     15  O   UNL     1       5.207   3.206  16.903  0.00  0.00    +0.000 OA
ATOM     16  H   UNL     1       5.595   2.530  17.475  0.00  0.00    +0.000 HD
ENDBRANCH   1  15
BRANCH   6  17
ATOM     17  N   UNL     1       1.015   8.937  19.861  0.00  0.00    +0.000 N 
BRANCH  17  18
ATOM     18  C   UNL     1       0.324   8.619  21.117  0.00  0.00    +0.000 C 
BRANCH  18  19
ATOM     19  C   UNL     1       0.505   9.714  22.132  0.00  0.00    +0.000 C 
ATOM     20  C   UNL     1      -0.654  10.536  22.650  0.00  0.00    +0.000 C 
ATOM     21  C   UNL     1      -0.008   9.511  23.537  0.00  0.00    +0.000 C 
ENDBRANCH  18  19
ENDBRANCH  17  18
BRANCH  17  22
ATOM     22  C   UNL     1       0.619  10.164  19.157  0.00  0.00    +0.000 C 
BRANCH  22  23
ATOM     23  C   UNL     1      -0.869  10.209  18.914  0.00  0.00    +0.000 C 
ATOM     24  C   UNL     1      -1.499  11.441  18.309  0.00  0.00    +0.000 C 
ATOM     25  C   UNL     1      -1.440  10.170  17.514  0.00  0.00    +0.000 C 
ENDBRANCH  22  23
ENDBRANCH  17  22
ENDBRANCH   6  17
TORSDOF 7
ENDMDL
MODEL 2
REMARK VINA RESULT:      -7.3      0.164      2.682
REMARK  Name = 
REMARK  7 active torsions:
REMARK  status: ('A' for Active; 'I' for Inactive)
REMARK    1  A    between atoms: O_1  and  C_2
REMARK    2  A    between atoms: C_4  and  C_5
REMARK    3  A    between atoms: C_11  and  N_12
REMARK    4  A    between atoms: N_12  and  C_13
REMARK    5  A    between atoms: N_12  and  C_17
REMARK    6  A    between atoms: C_13  and  C_14
REMARK    7  A    between atoms: C_17  and  C_18
REMARK                            x       y       z     vdW  Elec       q    Type
REMARK                         _______ _______ _______ _____ _____    ______ ____
ROOT
ATOM      1  C   UNL     1       4.515   4.057  17.683  0.00  0.00    +0.000 A 
ATOM      2  C   UNL     1       3.833   3.521  18.757  0.00  0.00    +0.000 A 
ATOM      3  C   UNL     1       2.993   4.367  19.491  0.00  0.00    +0.000 A 
ATOM      4  C   UNL     1       2.888   5.733  19.125  0.00  0.00    +0.000 A 
ATOM      5  C   UNL     1       2.087   6.679  19.816  0.00  0.00    +0.000 A 
ATOM      6  C   UNL     1       1.863   7.976  19.340  0.00  0.00    +0.000 A 
ATOM      7  C   UNL     1       2.561   8.336  18.183  0.00  0.00    +0.000 A 
ATOM      8  C   UNL     1       3.424   7.445  17.537  0.00  0.00    +0.000 A 
ATOM      9  C   UNL     1       3.595   6.145  17.980  0.00  0.00    +0.000 A 
ATOM     10  N   UNL     1       4.402   5.330  17.285  0.00  0.00    +0.000 NA
ENDROOT
BRANCH   3  11
ATOM     11  C   UNL     1       2.159   3.788  20.603  0.00  0.00    +0.000 C 
ATOM     12  F   UNL     1       0.819   3.973  20.424  0.00  0.00    +0.000 F 
ATOM     13  F   UNL     1       2.327   2.446  20.755  0.00  0.00    +0.000 F 
ATOM     14  F   UNL     1       2.439   4.343  21.816  0.00  0.00    +0.000 F 
ENDBRANCH   3  11
BRANCH   1  15
ATOM     15  O   UNL     1       5.343   3.288  16.921  0.00  0.00    +0.000 OA
ATOM     16  H   UNL     1       5.487   3.729  16.072  0.00  0.00    +0.000 HD
ENDBRANCH   1  15
BRANCH   6  17
ATOM     17  N   UNL     1       0.967   8.840  19.951  0.00  0.00    +0.000 N 
BRANCH  17  18
ATOM     18  C   UNL     1       0.696  10.177  19.409  0.00  0.00    +0.000 C 
BRANCH  18  19
ATOM     19  C   UNL     1      -0.751  10.327  19.026  0.00  0.00    +0.000 C 
ATOM     20  C   UNL     1      -1.239  11.445  18.133  0.00  0.00    +0.000 C 
ATOM     21  C   UNL     1      -1.174  10.041  17.607  0.00  0.00    +0.000 C 
ENDBRANCH  18  19
ENDBRANCH  17  18
BRANCH  17  22
ATOM     22  C   UNL     1       0.405   8.512  21.269  0.00  0.00    +0.000 C 
BRANCH  22  23
ATOM     23  C   UNL     1       0.553   9.658  22.237  0.00  0.00    +0.000 C 
ATOM     24  C   UNL     1      -0.671  10.387  22.739  0.00  0.00    +0.000 C 
ATOM     25  C   UNL     1       0.123   9.531  23.681  0.00  0.00    +0.000 C 
ENDBRANCH  22  23
ENDBRANCH  17  22
ENDBRANCH   6  17
TORSDOF 7
ENDMDL
MODEL 3
REMARK VINA RESULT:      -7.3      3.263      6.400
REMARK  Name = 
REMARK  7 active torsions:
REMARK  status: ('A' for Active; 'I' for Inactive)
REMARK    1  A    between atoms: O_1  and  C_2
REMARK    2  A    between atoms: C_4  and  C_5
REMARK    3  A    between atoms: C_11  and  N_12
REMARK    4  A    between atoms: N_12  and  C_13
REMARK    5  A    between atoms: N_12  and  C_17
REMARK    6  A    between atoms: C_13  and  C_14
REMARK    7  A    between atoms: C_17  and  C_18
REMARK                            x       y       z     vdW  Elec       q    Type
REMARK                         _______ _______ _______ _____ _____    ______ ____
ROOT
ATOM      1  C   UNL     1       0.345  11.354  18.928  0.00  0.00    +0.000 A 
ATOM      2  C   UNL     1       0.082  11.021  20.241  0.00  0.00    +0.000 A 
ATOM      3  C   UNL     1       0.550   9.789  20.714  0.00  0.00    +0.000 A 
ATOM      4  C   UNL     1       1.252   8.927  19.834  0.00  0.00    +0.000 A 
ATOM      5  C   UNL     1       1.745   7.649  20.204  0.00  0.00    +0.000 A 
ATOM      6  C   UNL     1       2.580   6.889  19.377  0.00  0.00    +0.000 A 
ATOM      7  C   UNL     1       2.826   7.411  18.103  0.00  0.00    +0.000 A 
ATOM      8  C   UNL     1       2.276   8.629  17.688  0.00  0.00    +0.000 A 
ATOM      9  C   UNL     1       1.499   9.403  18.533  0.00  0.00    +0.000 A 
ATOM     10  N   UNL     1       1.043  10.582  18.086  0.00  0.00    +0.000 NA
ENDROOT
BRANCH   3  11
ATOM     11  C   UNL     1       0.368   9.444  22.169  0.00  0.00    +0.000 C 
ATOM     12  F   UNL     1       1.518   9.024  22.771  0.00  0.00    +0.000 F 
ATOM     13  F   UNL     1      -0.075  10.492  22.916  0.00  0.00    +0.000 F 
ATOM     14  F   UNL     1      -0.528   8.436  22.362  0.00  0.00    +0.000 F 
ENDBRANCH   3  11
BRANCH   1  15
ATOM     15  O   UNL     1      -0.075  12.542  18.405  0.00  0.00    +0.000 OA
ATOM     16  H   UNL     1      -1.040  12.583  18.459  0.00  0.00    +0.000 HD
ENDBRANCH   1  15
BRANCH   6  17
ATOM     17  N   UNL     1       3.167   5.709  19.807  0.00  0.00    +0.000 N 
BRANCH  17  18
ATOM     18  C   UNL     1       2.533   4.861  20.824  0.00  0.00    +0.000 C 
BRANCH  18  19
ATOM     19  C   UNL     1       1.235   4.287  20.326  0.00  0.00    +0.000 C 
ATOM     20  C   UNL     1       1.182   3.155  19.325  0.00  0.00    +0.000 C 
ATOM     21  C   UNL     1       0.823   2.903  20.761  0.00  0.00    +0.000 C 
ENDBRANCH  18  19
ENDBRANCH  17  18
BRANCH  17  22
ATOM     22  C   UNL     1       4.536   5.369  19.394  0.00  0.00    +0.000 C 
BRANCH  22  23
ATOM     23  C   UNL     1       4.563   4.142  18.518  0.00  0.00    +0.000 C 
ATOM     24  C   UNL     1       3.821   4.135  17.202  0.00  0.00    +0.000 C 
ATOM     25  C   UNL     1       5.321   4.124  17.210  0.00  0.00    +0.000 C 
ENDBRANCH  22  23
ENDBRANCH  17  22
ENDBRANCH   6  17
TORSDOF 7
ENDMDL
MODEL 4
REMARK VINA RESULT:      -7.1      3.513      6.636
REMARK  Name = 
REMARK  7 active torsions:
REMARK  status: ('A' for Active; 'I' for Inactive)
REMARK    1  A    between atoms: O_1  and  C_2
REMARK    2  A    between atoms: C_4  and  C_5
REMARK    3  A    between atoms: C_11  and  N_12
REMARK    4  A    between atoms: N_12  and  C_13
REMARK    5  A    between atoms: N_12  and  C_17
REMARK    6  A    between atoms: C_13  and  C_14
REMARK    7  A    between atoms: C_17  and  C_18
REMARK                            x       y       z     vdW  Elec       q    Type
REMARK                         _______ _______ _______ _____ _____    ______ ____
ROOT
ATOM      1  C   UNL     1       0.390  12.135  19.660  0.00  0.00    +0.000 A 
ATOM      2  C   UNL     1       0.016  11.635  20.891  0.00  0.00    +0.000 A 
ATOM      3  C   UNL     1       0.300  10.293  21.170  0.00  0.00    +0.000 A 
ATOM      4  C   UNL     1       0.936   9.496  20.184  0.00  0.00    +0.000 A 
ATOM      5  C   UNL     1       1.245   8.123  20.355  0.00  0.00    +0.000 A 
ATOM      6  C   UNL     1       2.022   7.400  19.442  0.00  0.00    +0.000 A 
ATOM      7  C   UNL     1       2.402   8.081  18.281  0.00  0.00    +0.000 A 
ATOM      8  C   UNL     1       2.031   9.411  18.054  0.00  0.00    +0.000 A 
ATOM      9  C   UNL     1       1.312  10.137  18.988  0.00  0.00    +0.000 A 
ATOM     10  N   UNL     1       1.031  11.422  18.726  0.00  0.00    +0.000 NA
ENDROOT
BRANCH   3  11
ATOM     11  C   UNL     1      -0.004   9.748  22.541  0.00  0.00    +0.000 C 
ATOM     12  F   UNL     1      -0.889   8.710  22.524  0.00  0.00    +0.000 F 
ATOM     13  F   UNL     1       1.099   9.279  23.186  0.00  0.00    +0.000 F 
ATOM     14  F   UNL     1      -0.558  10.679  23.367  0.00  0.00    +0.000 F 
ENDBRANCH   3  11
BRANCH   1  15
ATOM     15  O   UNL     1       0.150  13.436  19.326  0.00  0.00    +0.000 OA
ATOM     16  H   UNL     1      -0.751  13.509  18.984  0.00  0.00    +0.000 HD
ENDBRANCH   1  15
BRANCH   6  17
ATOM     17  N   UNL     1       2.433   6.100  19.692  0.00  0.00    +0.000 N 
BRANCH  17  18
ATOM     18  C   UNL     1       1.790   5.274  20.722  0.00  0.00    +0.000 C 
BRANCH  18  19
ATOM     19  C   UNL     1       2.389   3.895  20.769  0.00  0.00    +0.000 C 
ATOM     20  C   UNL     1       1.951   2.857  21.777  0.00  0.00    +0.000 C 
ATOM     21  C   UNL     1       1.558   2.713  20.335  0.00  0.00    +0.000 C 
ENDBRANCH  18  19
ENDBRANCH  17  18
BRANCH  17  22
ATOM     22  C   UNL     1       3.652   5.575  19.061  0.00  0.00    +0.000 C 
BRANCH  22  23
ATOM     23  C   UNL     1       3.393   5.116  17.648  0.00  0.00    +0.000 C 
ATOM     24  C   UNL     1       4.522   4.552  16.818  0.00  0.00    +0.000 C 
ATOM     25  C   UNL     1       3.415   3.650  17.279  0.00  0.00    +0.000 C 
ENDBRANCH  22  23
ENDBRANCH  17  22
ENDBRANCH   6  17
TORSDOF 7
ENDMDL
MODEL 5
REMARK VINA RESULT:      -7.1      3.850      7.284
REMARK  Name = 
REMARK  7 active torsions:
REMARK  status: ('A' for Active; 'I' for Inactive)
REMARK    1  A    between atoms: O_1  and  C_2
REMARK    2  A    between atoms: C_4  and  C_5
REMARK    3  A    between atoms: C_11  and  N_12
REMARK    4  A    between atoms: N_12  and  C_13
REMARK    5  A    between atoms: N_12  and  C_17
REMARK    6  A    between atoms: C_13  and  C_14
REMARK    7  A    between atoms: C_17  and  C_18
REMARK                            x       y       z     vdW  Elec       q    Type
REMARK                         _______ _______ _______ _____ _____    ______ ____
ROOT
ATOM      1  C   UNL     1       1.557   3.167  21.078  0.00  0.00    +0.000 A 
ATOM      2  C   UNL     1       1.522   4.541  20.950  0.00  0.00    +0.000 A 
ATOM      3  C   UNL     1       2.314   5.129  19.957  0.00  0.00    +0.000 A 
ATOM      4  C   UNL     1       3.131   4.308  19.140  0.00  0.00    +0.000 A 
ATOM      5  C   UNL     1       3.989   4.804  18.125  0.00  0.00    +0.000 A 
ATOM      6  C   UNL     1       4.655   3.970  17.219  0.00  0.00    +0.000 A 
ATOM      7  C   UNL     1       4.514   2.595  17.429  0.00  0.00    +0.000 A 
ATOM      8  C   UNL     1       3.743   2.087  18.481  0.00  0.00    +0.000 A 
ATOM      9  C   UNL     1       3.040   2.917  19.336  0.00  0.00    +0.000 A 
ATOM     10  N   UNL     1       2.283   2.361  20.293  0.00  0.00    +0.000 NA
ENDROOT
BRANCH   3  11
ATOM     11  C   UNL     1       2.219   6.615  19.727  0.00  0.00    +0.000 C 
ATOM     12  F   UNL     1       1.721   6.938  18.498  0.00  0.00    +0.000 F 
ATOM     13  F   UNL     1       1.414   7.245  20.626  0.00  0.00    +0.000 F 
ATOM     14  F   UNL     1       3.428   7.238  19.800  0.00  0.00    +0.000 F 
ENDBRANCH   3  11
BRANCH   1  15
ATOM     15  O   UNL     1       0.804   2.528  22.019  0.00  0.00    +0.000 OA
ATOM     16  H   UNL     1      -0.131   2.646  21.803  0.00  0.00    +0.000 HD
ENDBRANCH   1  15
BRANCH   6  17
ATOM     17  N   UNL     1       5.376   4.474  16.147  0.00  0.00    +0.000 N 
BRANCH  17  18
ATOM     18  C   UNL     1       5.918   3.596  15.103  0.00  0.00    +0.000 C 
BRANCH  18  19
ATOM     19  C   UNL     1       5.817   4.235  13.745  0.00  0.00    +0.000 C 
ATOM     20  C   UNL     1       6.583   3.717  12.549  0.00  0.00    +0.000 C 
ATOM     21  C   UNL     1       5.100   3.506  12.636  0.00  0.00    +0.000 C 
ENDBRANCH  18  19
ENDBRANCH  17  18
BRANCH  17  22
ATOM     22  C   UNL     1       5.780   5.887  16.126  0.00  0.00    +0.000 C 
BRANCH  22  23
ATOM     23  C   UNL     1       7.166   6.077  16.687  0.00  0.00    +0.000 C 
ATOM     24  C   UNL     1       7.515   7.346  17.427  0.00  0.00    +0.000 C 
ATOM     25  C   UNL     1       7.423   6.050  18.177  0.00  0.00    +0.000 C 
ENDBRANCH  22  23
ENDBRANCH  17  22
ENDBRANCH   6  17
TORSDOF 7
ENDMDL
MODEL 6
REMARK VINA RESULT:      -7.1      3.427      6.884
REMARK  Name = 
REMARK  7 active torsions:
REMARK  status: ('A' for Active; 'I' for Inactive)
REMARK    1  A    between atoms: O_1  and  C_2
REMARK    2  A    between atoms: C_4  and  C_5
REMARK    3  A    between atoms: C_11  and  N_12
REMARK    4  A    between atoms: N_12  and  C_13
REMARK    5  A    between atoms: N_12  and  C_17
REMARK    6  A    between atoms: C_13  and  C_14
REMARK    7  A    between atoms: C_17  and  C_18
REMARK                            x       y       z     vdW  Elec       q    Type
REMARK                         _______ _______ _______ _____ _____    ______ ____
ROOT
ATOM      1  C   UNL     1       0.223  11.957  19.601  0.00  0.00    +0.000 A 
ATOM      2  C   UNL     1      -0.096  11.420  20.832  0.00  0.00    +0.000 A 
ATOM      3  C   UNL     1       0.276  10.095  21.087  0.00  0.00    +0.000 A 
ATOM      4  C   UNL     1       0.941   9.351  20.079  0.00  0.00    +0.000 A 
ATOM      5  C   UNL     1       1.337   7.997  20.225  0.00  0.00    +0.000 A 
ATOM      6  C   UNL     1       2.140   7.336  19.289  0.00  0.00    +0.000 A 
ATOM      7  C   UNL     1       2.454   8.053  18.130  0.00  0.00    +0.000 A 
ATOM      8  C   UNL     1       1.997   9.360  17.928  0.00  0.00    +0.000 A 
ATOM      9  C   UNL     1       1.253  10.028  18.885  0.00  0.00    +0.000 A 
ATOM     10  N   UNL     1       0.889  11.297  18.646  0.00  0.00    +0.000 NA
ENDROOT
BRANCH   3  11
ATOM     11  C   UNL     1       0.033   9.515  22.456  0.00  0.00    +0.000 C 
ATOM     12  F   UNL     1      -0.520  10.406  23.328  0.00  0.00    +0.000 F 
ATOM     13  F   UNL     1      -0.808   8.445  22.442  0.00  0.00    +0.000 F 
ATOM     14  F   UNL     1       1.179   9.088  23.058  0.00  0.00    +0.000 F 
ENDBRANCH   3  11
BRANCH   1  15
ATOM     15  O   UNL     1      -0.103  13.244  19.289  0.00  0.00    +0.000 OA
ATOM     16  H   UNL     1      -0.797  13.545  19.891  0.00  0.00    +0.000 HD
ENDBRANCH   1  15
BRANCH   6  17
ATOM     17  N   UNL     1       2.635   6.060  19.514  0.00  0.00    +0.000 N 
BRANCH  17  18
ATOM     18  C   UNL     1       4.006   5.690  19.140  0.00  0.00    +0.000 C 
BRANCH  18  19
ATOM     19  C   UNL     1       4.049   5.066  17.772  0.00  0.00    +0.000 C 
ATOM     20  C   UNL     1       5.326   4.527  17.168  0.00  0.00    +0.000 C 
ATOM     21  C   UNL     1       4.264   3.579  17.644  0.00  0.00    +0.000 C 
ENDBRANCH  18  19
ENDBRANCH  17  18
BRANCH  17  22
ATOM     22  C   UNL     1       1.737   4.986  19.961  0.00  0.00    +0.000 C 
BRANCH  22  23
ATOM     23  C   UNL     1       2.353   4.174  21.072  0.00  0.00    +0.000 C 
ATOM     24  C   UNL     1       1.582   3.031  21.689  0.00  0.00    +0.000 C 
ATOM     25  C   UNL     1       2.793   2.744  20.851  0.00  0.00    +0.000 C 
ENDBRANCH  22  23
ENDBRANCH  17  22
ENDBRANCH   6  17
TORSDOF 7
ENDMDL
MODEL 7
REMARK VINA RESULT:      -7.1      3.433      6.799
REMARK  Name = 
REMARK  7 active torsions:
REMARK  status: ('A' for Active; 'I' for Inactive)
REMARK    1  A    between atoms: O_1  and  C_2
REMARK    2  A    between atoms: C_4  and  C_5
REMARK    3  A    between atoms: C_11  and  N_12
REMARK    4  A    between atoms: N_12  and  C_13
REMARK    5  A    between atoms: N_12  and  C_17
REMARK    6  A    between atoms: C_13  and  C_14
REMARK    7  A    between atoms: C_17  and  C_18
REMARK                            x       y       z     vdW  Elec       q    Type
REMARK                         _______ _______ _______ _____ _____    ______ ____
ROOT
ATOM      1  C   UNL     1      -0.173  11.851  19.522  0.00  0.00    +0.000 A 
ATOM      2  C   UNL     1      -0.418  11.321  20.773  0.00  0.00    +0.000 A 
ATOM      3  C   UNL     1       0.109  10.058  21.066  0.00  0.00    +0.000 A 
ATOM      4  C   UNL     1       0.849   9.364  20.076  0.00  0.00    +0.000 A 
ATOM      5  C   UNL     1       1.403   8.071  20.261  0.00  0.00    +0.000 A 
ATOM      6  C   UNL     1       2.271   7.477  19.337  0.00  0.00    +0.000 A 
ATOM      7  C   UNL     1       2.489   8.188  18.153  0.00  0.00    +0.000 A 
ATOM      8  C   UNL     1       1.881   9.424  17.914  0.00  0.00    +0.000 A 
ATOM      9  C   UNL     1       1.071  10.033  18.857  0.00  0.00    +0.000 A 
ATOM     10  N   UNL     1       0.558  11.241  18.581  0.00  0.00    +0.000 NA
ENDROOT
BRANCH   3  11
ATOM     11  C   UNL     1      -0.053   9.500  22.456  0.00  0.00    +0.000 C 
ATOM     12  F   UNL     1       1.130   9.147  23.037  0.00  0.00    +0.000 F 
ATOM     13  F   UNL     1      -0.639  10.375  23.319  0.00  0.00    +0.000 F 
ATOM     14  F   UNL     1      -0.817   8.372  22.485  0.00  0.00    +0.000 F 
ENDBRANCH   3  11
BRANCH   1  15
ATOM     15  O   UNL     1      -0.651  13.079  19.172  0.00  0.00    +0.000 OA
ATOM     16  H   UNL     1      -0.637  13.653  19.951  0.00  0.00    +0.000 HD
ENDBRANCH   1  15
BRANCH   6  17
ATOM     17  N   UNL     1       2.914   6.277  19.597  0.00  0.00    +0.000 N 
BRANCH  17  18
ATOM     18  C   UNL     1       4.129   5.883  18.875  0.00  0.00    +0.000 C 
BRANCH  18  19
ATOM     19  C   UNL     1       3.806   5.384  17.493  0.00  0.00    +0.000 C 
ATOM     20  C   UNL     1       4.835   5.344  16.386  0.00  0.00    +0.000 C 
ATOM     21  C   UNL     1       4.377   4.067  17.030  0.00  0.00    +0.000 C 
ENDBRANCH  18  19
ENDBRANCH  17  18
BRANCH  17  22
ATOM     22  C   UNL     1       2.288   5.277  20.473  0.00  0.00    +0.000 C 
BRANCH  22  23
ATOM     23  C   UNL     1       1.572   4.213  19.679  0.00  0.00    +0.000 C 
ATOM     24  C   UNL     1       2.063   2.785  19.715  0.00  0.00    +0.000 C 
ATOM     25  C   UNL     1       0.755   3.138  20.360  0.00  0.00    +0.000 C 
ENDBRANCH  22  23
ENDBRANCH  17  22
ENDBRANCH   6  17
TORSDOF 7
ENDMDL
MODEL 8
REMARK VINA RESULT:      -7.1      3.183      6.570
REMARK  Name = 
REMARK  7 active torsions:
REMARK  status: ('A' for Active; 'I' for Inactive)
REMARK    1  A    between atoms: O_1  and  C_2
REMARK    2  A    between atoms: C_4  and  C_5
REMARK    3  A    between atoms: C_11  and  N_12
REMARK    4  A    between atoms: N_12  and  C_13
REMARK    5  A    between atoms: N_12  and  C_17
REMARK    6  A    between atoms: C_13  and  C_14
REMARK    7  A    between atoms: C_17  and  C_18
REMARK                            x       y       z     vdW  Elec       q    Type
REMARK                         _______ _______ _______ _____ _____    ______ ____
ROOT
ATOM      1  C   UNL     1       0.346  11.191  18.886  0.00  0.00    +0.000 A 
ATOM      2  C   UNL     1       0.110  10.835  20.198  0.00  0.00    +0.000 A 
ATOM      3  C   UNL     1       0.625   9.615  20.653  0.00  0.00    +0.000 A 
ATOM      4  C   UNL     1       1.346   8.786  19.756  0.00  0.00    +0.000 A 
ATOM      5  C   UNL     1       1.886   7.522  20.106  0.00  0.00    +0.000 A 
ATOM      6  C   UNL     1       2.736   6.800  19.261  0.00  0.00    +0.000 A 
ATOM      7  C   UNL     1       2.950   7.343  17.991  0.00  0.00    +0.000 A 
ATOM      8  C   UNL     1       2.353   8.545  17.595  0.00  0.00    +0.000 A 
ATOM      9  C   UNL     1       1.561   9.284  18.457  0.00  0.00    +0.000 A 
ATOM     10  N   UNL     1       1.060  10.452  18.027  0.00  0.00    +0.000 NA
ENDROOT
BRANCH   3  11
ATOM     11  C   UNL     1       0.472   9.249  22.105  0.00  0.00    +0.000 C 
ATOM     12  F   UNL     1       0.030  10.283  22.878  0.00  0.00    +0.000 F 
ATOM     13  F   UNL     1      -0.413   8.235  22.311  0.00  0.00    +0.000 F 
ATOM     14  F   UNL     1       1.643   8.850  22.675  0.00  0.00    +0.000 F 
ENDBRANCH   3  11
BRANCH   1  15
ATOM     15  O   UNL     1      -0.120  12.368  18.381  0.00  0.00    +0.000 OA
ATOM     16  H   UNL     1      -1.051  12.466  18.625  0.00  0.00    +0.000 HD
ENDBRANCH   1  15
BRANCH   6  17
ATOM     17  N   UNL     1       3.368   5.636  19.673  0.00  0.00    +0.000 N 
BRANCH  17  18
ATOM     18  C   UNL     1       4.803   5.419  19.450  0.00  0.00    +0.000 C 
BRANCH  18  19
ATOM     19  C   UNL     1       5.041   4.302  18.472  0.00  0.00    +0.000 C 
ATOM     20  C   UNL     1       4.852   4.477  16.982  0.00  0.00    +0.000 C 
ATOM     21  C   UNL     1       6.236   4.367  17.553  0.00  0.00    +0.000 C 
ENDBRANCH  18  19
ENDBRANCH  17  18
BRANCH  17  22
ATOM     22  C   UNL     1       2.578   4.503  20.175  0.00  0.00    +0.000 C 
BRANCH  22  23
ATOM     23  C   UNL     1       1.499   4.103  19.200  0.00  0.00    +0.000 C 
ATOM     24  C   UNL     1       1.697   2.900  18.307  0.00  0.00    +0.000 C 
ATOM     25  C   UNL     1       0.677   2.851  19.406  0.00  0.00    +0.000 C 
ENDBRANCH  22  23
ENDBRANCH  17  22
ENDBRANCH   6  17
TORSDOF 7
ENDMDL
MODEL 9
REMARK VINA RESULT:      -7.1      3.437      6.746
REMARK  Name = 
REMARK  7 active torsions:
REMARK  status: ('A' for Active; 'I' for Inactive)
REMARK    1  A    between atoms: O_1  and  C_2
REMARK    2  A    between atoms: C_4  and  C_5
REMARK    3  A    between atoms: C_11  and  N_12
REMARK    4  A    between atoms: N_12  and  C_13
REMARK    5  A    between atoms: N_12  and  C_17
REMARK    6  A    between atoms: C_13  and  C_14
REMARK    7  A    between atoms: C_17  and  C_18
REMARK                            x       y       z     vdW  Elec       q    Type
REMARK                         _______ _______ _______ _____ _____    ______ ____
ROOT
ATOM      1  C   UNL     1      -0.037  11.956  19.679  0.00  0.00    +0.000 A 
ATOM      2  C   UNL     1      -0.266  11.343  20.895  0.00  0.00    +0.000 A 
ATOM      3  C   UNL     1       0.234  10.049  21.083  0.00  0.00    +0.000 A 
ATOM      4  C   UNL     1       0.932   9.411  20.027  0.00  0.00    +0.000 A 
ATOM      5  C   UNL     1       1.455   8.095  20.105  0.00  0.00    +0.000 A 
ATOM      6  C   UNL     1       2.285   7.548  19.119  0.00  0.00    +0.000 A 
ATOM      7  C   UNL     1       2.495   8.337  17.984  0.00  0.00    +0.000 A 
ATOM      8  C   UNL     1       1.914   9.603  17.850  0.00  0.00    +0.000 A 
ATOM      9  C   UNL     1       1.143  10.161  18.855  0.00  0.00    +0.000 A 
ATOM     10  N   UNL     1       0.656  11.399  18.679  0.00  0.00    +0.000 NA
ENDROOT
BRANCH   3  11
ATOM     11  C   UNL     1       0.088   9.396  22.432  0.00  0.00    +0.000 C 
ATOM     12  F   UNL     1      -0.443  10.224  23.378  0.00  0.00    +0.000 F 
ATOM     13  F   UNL     1      -0.718   8.299  22.412  0.00  0.00    +0.000 F 
ATOM     14  F   UNL     1       1.279   8.980  22.947  0.00  0.00    +0.000 F 
ENDBRANCH   3  11
BRANCH   1  15
ATOM     15  O   UNL     1      -0.489  13.219  19.432  0.00  0.00    +0.000 OA
ATOM     16  H   UNL     1       0.034  13.845  19.951  0.00  0.00    +0.000 HD
ENDBRANCH   1  15
BRANCH   6  17
ATOM     17  N   UNL     1       2.902   6.317  19.276  0.00  0.00    +0.000 N 
BRANCH  17  18
ATOM     18  C   UNL     1       3.844   5.795  18.278  0.00  0.00    +0.000 C 
BRANCH  18  19
ATOM     19  C   UNL     1       4.921   4.967  18.924  0.00  0.00    +0.000 C 
ATOM     20  C   UNL     1       6.107   4.438  18.151  0.00  0.00    +0.000 C 
ATOM     21  C   UNL     1       6.291   5.564  19.126  0.00  0.00    +0.000 C 
ENDBRANCH  18  19
ENDBRANCH  17  18
BRANCH  17  22
ATOM     22  C   UNL     1       2.484   5.412  20.356  0.00  0.00    +0.000 C 
BRANCH  22  23
ATOM     23  C   UNL     1       1.476   4.399  19.873  0.00  0.00    +0.000 C 
ATOM     24  C   UNL     1       1.909   2.981  19.585  0.00  0.00    +0.000 C 
ATOM     25  C   UNL     1       1.016   3.262  20.758  0.00  0.00    +0.000 C 
ENDBRANCH  22  23
ENDBRANCH  17  22
ENDBRANCH   6  17
TORSDOF 7
ENDMDL
