MODEL 1
REMARK VINA RESULT:      -8.4      0.000      0.000
REMARK  Name = 
REMARK  10 active torsions:
REMARK  status: ('A' for Active; 'I' for Inactive)
REMARK    1  A    between atoms: C_1  and  C_2
REMARK    2  A    between atoms: C_2  and  N_3
REMARK    3  A    between atoms: C_2  and  C_24
REMARK    4  A    between atoms: N_3  and  S_4
REMARK    5  A    between atoms: S_4  and  C_7
REMARK    6  A    between atoms: C_9  and  C_10
REMARK    7  A    between atoms: C_10  and  O_12
REMARK    8  A    between atoms: C_13  and  N_14
REMARK    9  A    between atoms: N_14  and  C_15
REMARK   10  A    between atoms: C_15  and  C_16
REMARK                            x       y       z     vdW  Elec       q    Type
REMARK                         _______ _______ _______ _____ _____    ______ ____
ROOT
ATOM      1  C   UNL     1       3.728   4.603  19.193  0.00  0.00    +0.000 A 
ATOM      2  C   UNL     1       4.963   5.149  19.580  0.00  0.00    +0.000 A 
ATOM      3  C   UNL     1       6.069   5.085  18.723  0.00  0.00    +0.000 A 
ATOM      4  C   UNL     1       5.990   4.354  17.507  0.00  0.00    +0.000 A 
ATOM      5  C   UNL     1       4.740   3.804  17.163  0.00  0.00    +0.000 A 
ATOM      6  C   UNL     1       3.619   3.920  17.990  0.00  0.00    +0.000 A 
ATOM      7 CL   UNL     1       2.142   3.236  17.408  0.00  0.00    +0.000 Cl
ENDROOT
BRANCH   1   8
ATOM      8  S   UNL     1       2.337   4.892  20.256  0.00  0.00    +0.000 S 
ATOM      9  O   UNL     1       2.598   4.166  21.475  0.00  0.00    +0.000 OA
ATOM     10  O   UNL     1       1.156   4.636  19.463  0.00  0.00    +0.000 OA
BRANCH   8  11
ATOM     11  N   UNL     1       2.429   6.550  20.551  0.00  0.00    +0.000 NA
ATOM     12  H   UNL     1       2.435   6.766  21.547  0.00  0.00    +0.000 HD
BRANCH  11  14
ATOM     13  C   UNL     1       2.534   7.983  18.534  0.00  0.00    +0.000 C 
ATOM     14  C   UNL     1       1.684   7.523  19.721  0.00  0.00    +0.000 C 
BRANCH  14  15
ATOM     15  C   UNL     1       1.059   8.650  20.530  0.00  0.00    +0.000 A 
ATOM     16  C   UNL     1       0.905   8.562  21.924  0.00  0.00    +0.000 A 
ATOM     17  C   UNL     1       0.321   9.591  22.657  0.00  0.00    +0.000 A 
ATOM     18  C   UNL     1      -0.129  10.735  22.006  0.00  0.00    +0.000 A 
ATOM     19  C   UNL     1       0.000  10.841  20.624  0.00  0.00    +0.000 A 
ATOM     20  C   UNL     1       0.590   9.808  19.888  0.00  0.00    +0.000 A 
ENDBRANCH  14  15
ENDBRANCH  11  14
ENDBRANCH   8  11
ENDBRANCH   1   8
BRANCH   3  21
ATOM     21  C   UNL     1       7.335   5.763  19.121  0.00  0.00    +0.000 C 
ATOM     22  O   UNL     1       7.848   6.641  18.447  0.00  0.00    +0.000 OA
BRANCH  21  23
ATOM     23  O   UNL     1       7.865   5.362  20.300  0.00  0.00    +0.000 OA
ATOM     24  H   UNL     1       7.296   4.865  20.914  0.00  0.00    +0.000 HD
ENDBRANCH  21  23
ENDBRANCH   3  21
BRANCH   4  25
ATOM     25  N   UNL     1       7.064   4.328  16.599  0.00  0.00    +0.000 N 
ATOM     26  H   UNL     1       7.188   3.381  16.209  0.00  0.00    +0.000 HD
BRANCH  25  27
ATOM     27  C   UNL     1       7.113   5.321  15.515  0.00  0.00    +0.000 C 
BRANCH  27  28
ATOM     28  C   UNL     1       7.000   4.744  14.141  0.00  0.00    +0.000 A 
ATOM     29  C   UNL     1       7.634   5.003  12.943  0.00  0.00    +0.000 A 
ATOM     30  C   UNL     1       7.059   4.128  11.992  0.00  0.00    +0.000 A 
ATOM     31  C   UNL     1       6.104   3.402  12.661  0.00  0.00    +0.000 A 
ATOM     32  O   UNL     1       6.057   3.774  13.969  0.00  0.00    +0.000 OA
ENDBRANCH  27  28
ENDBRANCH  25  27
ENDBRANCH   4  25
TORSDOF 9
ENDMDL
MODEL 2
REMARK VINA RESULT:      -8.3      2.646      7.907
REMARK  Name = 
REMARK  10 active torsions:
REMARK  status: ('A' for Active; 'I' for Inactive)
REMARK    1  A    between atoms: C_1  and  C_2
REMARK    2  A    between atoms: C_2  and  N_3
REMARK    3  A    between atoms: C_2  and  C_24
REMARK    4  A    between atoms: N_3  and  S_4
REMARK    5  A    between atoms: S_4  and  C_7
REMARK    6  A    between atoms: C_9  and  C_10
REMARK    7  A    between atoms: C_10  and  O_12
REMARK    8  A    between atoms: C_13  and  N_14
REMARK    9  A    between atoms: N_14  and  C_15
REMARK   10  A    between atoms: C_15  and  C_16
REMARK                            x       y       z     vdW  Elec       q    Type
REMARK                         _______ _______ _______ _____ _____    ______ ____
ROOT
ATOM      1  C   UNL     1       2.586   4.313  18.848  0.00  0.00    +0.000 A 
ATOM      2  C   UNL     1       2.564   5.558  18.200  0.00  0.00    +0.000 A 
ATOM      3  C   UNL     1       2.254   6.725  18.910  0.00  0.00    +0.000 A 
ATOM      4  C   UNL     1       1.833   6.647  20.264  0.00  0.00    +0.000 A 
ATOM      5  C   UNL     1       1.848   5.377  20.874  0.00  0.00    +0.000 A 
ATOM      6  C   UNL     1       2.216   4.220  20.183  0.00  0.00    +0.000 A 
ATOM      7 CL   UNL     1       2.234   2.743  21.081  0.00  0.00    +0.000 Cl
ENDROOT
BRANCH   1   8
ATOM      8  S   UNL     1       3.169   2.917  17.920  0.00  0.00    +0.000 S 
ATOM      9  O   UNL     1       2.510   2.977  16.638  0.00  0.00    +0.000 OA
ATOM     10  O   UNL     1       3.034   1.767  18.784  0.00  0.00    +0.000 OA
BRANCH   8  11
ATOM     11  N   UNL     1       4.811   3.252  17.733  0.00  0.00    +0.000 NA
ATOM     12  H   UNL     1       5.314   3.230  18.619  0.00  0.00    +0.000 HD
BRANCH  11  14
ATOM     13  C   UNL     1       5.774   3.656  15.488  0.00  0.00    +0.000 C 
ATOM     14  C   UNL     1       5.282   4.291  16.791  0.00  0.00    +0.000 C 
BRANCH  14  15
ATOM     15  C   UNL     1       6.252   5.280  17.421  0.00  0.00    +0.000 A 
ATOM     16  C   UNL     1       6.515   6.531  16.839  0.00  0.00    +0.000 A 
ATOM     17  C   UNL     1       7.413   7.426  17.412  0.00  0.00    +0.000 A 
ATOM     18  C   UNL     1       8.075   7.084  18.587  0.00  0.00    +0.000 A 
ATOM     19  C   UNL     1       7.842   5.844  19.177  0.00  0.00    +0.000 A 
ATOM     20  C   UNL     1       6.937   4.946  18.601  0.00  0.00    +0.000 A 
ENDBRANCH  14  15
ENDBRANCH  11  14
ENDBRANCH   8  11
ENDBRANCH   1   8
BRANCH   3  21
ATOM     21  C   UNL     1       2.340   8.041  18.216  0.00  0.00    +0.000 C 
ATOM     22  O   UNL     1       1.470   8.890  18.312  0.00  0.00    +0.000 OA
BRANCH  21  23
ATOM     23  O   UNL     1       3.468   8.248  17.496  0.00  0.00    +0.000 OA
ATOM     24  H   UNL     1       4.322   8.021  17.904  0.00  0.00    +0.000 HD
ENDBRANCH  21  23
ENDBRANCH   3  21
BRANCH   4  25
ATOM     25  N   UNL     1       1.578   7.807  21.018  0.00  0.00    +0.000 N 
ATOM     26  H   UNL     1       1.816   8.652  20.477  0.00  0.00    +0.000 HD
BRANCH  25  27
ATOM     27  C   UNL     1       0.261   7.977  21.651  0.00  0.00    +0.000 C 
BRANCH  27  28
ATOM     28  C   UNL     1      -0.118   9.397  21.919  0.00  0.00    +0.000 A 
ATOM     29  C   UNL     1      -0.521  10.081  23.049  0.00  0.00    +0.000 A 
ATOM     30  C   UNL     1      -0.761  11.414  22.643  0.00  0.00    +0.000 A 
ATOM     31  C   UNL     1      -0.506  11.460  21.295  0.00  0.00    +0.000 A 
ATOM     32  O   UNL     1      -0.119  10.236  20.843  0.00  0.00    +0.000 OA
ENDBRANCH  27  28
ENDBRANCH  25  27
ENDBRANCH   4  25
TORSDOF 9
ENDMDL
MODEL 3
REMARK VINA RESULT:      -8.2      2.616      7.674
REMARK  Name = 
REMARK  10 active torsions:
REMARK  status: ('A' for Active; 'I' for Inactive)
REMARK    1  A    between atoms: C_1  and  C_2
REMARK    2  A    between atoms: C_2  and  N_3
REMARK    3  A    between atoms: C_2  and  C_24
REMARK    4  A    between atoms: N_3  and  S_4
REMARK    5  A    between atoms: S_4  and  C_7
REMARK    6  A    between atoms: C_9  and  C_10
REMARK    7  A    between atoms: C_10  and  O_12
REMARK    8  A    between atoms: C_13  and  N_14
REMARK    9  A    between atoms: N_14  and  C_15
REMARK   10  A    between atoms: C_15  and  C_16
REMARK                            x       y       z     vdW  Elec       q    Type
REMARK                         _______ _______ _______ _____ _____    ______ ____
ROOT
ATOM      1  C   UNL     1       2.618   4.393  18.848  0.00  0.00    +0.000 A 
ATOM      2  C   UNL     1       2.584   5.599  18.129  0.00  0.00    +0.000 A 
ATOM      3  C   UNL     1       2.347   6.813  18.786  0.00  0.00    +0.000 A 
ATOM      4  C   UNL     1       2.012   6.825  20.167  0.00  0.00    +0.000 A 
ATOM      5  C   UNL     1       2.037   5.593  20.850  0.00  0.00    +0.000 A 
ATOM      6  C   UNL     1       2.334   4.388  20.206  0.00  0.00    +0.000 A 
ATOM      7 CL   UNL     1       2.375   2.966  21.188  0.00  0.00    +0.000 Cl
ENDROOT
BRANCH   1   8
ATOM      8  S   UNL     1       3.108   2.931  17.970  0.00  0.00    +0.000 S 
ATOM      9  O   UNL     1       2.407   2.960  16.709  0.00  0.00    +0.000 OA
ATOM     10  O   UNL     1       2.954   1.830  18.893  0.00  0.00    +0.000 OA
BRANCH   8  11
ATOM     11  N   UNL     1       4.755   3.183  17.712  0.00  0.00    +0.000 NA
ATOM     12  H   UNL     1       5.298   3.107  18.572  0.00  0.00    +0.000 HD
BRANCH  11  14
ATOM     13  C   UNL     1       5.711   3.595  15.465  0.00  0.00    +0.000 C 
ATOM     14  C   UNL     1       5.238   4.224  16.778  0.00  0.00    +0.000 C 
BRANCH  14  15
ATOM     15  C   UNL     1       6.228   5.190  17.413  0.00  0.00    +0.000 A 
ATOM     16  C   UNL     1       6.860   4.904  18.635  0.00  0.00    +0.000 A 
ATOM     17  C   UNL     1       7.755   5.797  19.217  0.00  0.00    +0.000 A 
ATOM     18  C   UNL     1       8.035   7.004  18.587  0.00  0.00    +0.000 A 
ATOM     19  C   UNL     1       7.412   7.318  17.381  0.00  0.00    +0.000 A 
ATOM     20  C   UNL     1       6.515   6.419  16.796  0.00  0.00    +0.000 A 
ENDBRANCH  14  15
ENDBRANCH  11  14
ENDBRANCH   8  11
ENDBRANCH   1   8
BRANCH   3  21
ATOM     21  C   UNL     1       2.418   8.084  18.011  0.00  0.00    +0.000 C 
ATOM     22  O   UNL     1       1.463   8.834  17.894  0.00  0.00    +0.000 OA
BRANCH  21  23
ATOM     23  O   UNL     1       3.626   8.370  17.471  0.00  0.00    +0.000 OA
ATOM     24  H   UNL     1       4.031   7.713  16.878  0.00  0.00    +0.000 HD
ENDBRANCH  21  23
ENDBRANCH   3  21
BRANCH   4  25
ATOM     25  N   UNL     1       1.833   8.033  20.865  0.00  0.00    +0.000 N 
ATOM     26  H   UNL     1       2.211   8.826  20.323  0.00  0.00    +0.000 HD
BRANCH  25  27
ATOM     27  C   UNL     1       0.499   8.375  21.379  0.00  0.00    +0.000 C 
BRANCH  27  28
ATOM     28  C   UNL     1       0.068   9.778  21.101  0.00  0.00    +0.000 A 
ATOM     29  C   UNL     1      -0.643  10.373  20.079  0.00  0.00    +0.000 A 
ATOM     30  C   UNL     1      -0.698  11.753  20.383  0.00  0.00    +0.000 A 
ATOM     31  C   UNL     1      -0.009  11.918  21.559  0.00  0.00    +0.000 A 
ATOM     32  O   UNL     1       0.466  10.722  22.002  0.00  0.00    +0.000 OA
ENDBRANCH  27  28
ENDBRANCH  25  27
ENDBRANCH   4  25
TORSDOF 9
ENDMDL
MODEL 4
REMARK VINA RESULT:      -7.9      3.446      5.367
REMARK  Name = 
REMARK  10 active torsions:
REMARK  status: ('A' for Active; 'I' for Inactive)
REMARK    1  A    between atoms: C_1  and  C_2
REMARK    2  A    between atoms: C_2  and  N_3
REMARK    3  A    between atoms: C_2  and  C_24
REMARK    4  A    between atoms: N_3  and  S_4
REMARK    5  A    between atoms: S_4  and  C_7
REMARK    6  A    between atoms: C_9  and  C_10
REMARK    7  A    between atoms: C_10  and  O_12
REMARK    8  A    between atoms: C_13  and  N_14
REMARK    9  A    between atoms: N_14  and  C_15
REMARK   10  A    between atoms: C_15  and  C_16
REMARK                            x       y       z     vdW  Elec       q    Type
REMARK                         _______ _______ _______ _____ _____    ______ ____
ROOT
ATOM      1  C   UNL     1       1.500   8.653  19.952  0.00  0.00    +0.000 A 
ATOM      2  C   UNL     1       1.682   7.323  20.365  0.00  0.00    +0.000 A 
ATOM      3  C   UNL     1       2.402   6.422  19.569  0.00  0.00    +0.000 A 
ATOM      4  C   UNL     1       2.847   6.809  18.277  0.00  0.00    +0.000 A 
ATOM      5  C   UNL     1       2.628   8.146  17.889  0.00  0.00    +0.000 A 
ATOM      6  C   UNL     1       1.963   9.062  18.709  0.00  0.00    +0.000 A 
ATOM      7 CL   UNL     1       1.816  10.679  18.117  0.00  0.00    +0.000 Cl
ENDROOT
BRANCH   1   8
ATOM      8  S   UNL     1       0.740   9.770  21.102  0.00  0.00    +0.000 S 
ATOM      9  O   UNL     1       1.480  11.006  21.017  0.00  0.00    +0.000 OA
ATOM     10  O   UNL     1       0.612   9.051  22.348  0.00  0.00    +0.000 OA
BRANCH   8  11
ATOM     11  N   UNL     1      -0.801   9.984  20.452  0.00  0.00    +0.000 NA
ATOM     12  H   UNL     1      -1.155   9.137  20.007  0.00  0.00    +0.000 HD
BRANCH  11  14
ATOM     13  C   UNL     1      -1.751  12.251  20.756  0.00  0.00    +0.000 C 
ATOM     14  C   UNL     1      -1.179  11.237  19.761  0.00  0.00    +0.000 C 
BRANCH  14  15
ATOM     15  C   UNL     1      -2.036  11.009  18.524  0.00  0.00    +0.000 A 
ATOM     16  C   UNL     1      -3.271  11.655  18.351  0.00  0.00    +0.000 A 
ATOM     17  C   UNL     1      -4.056  11.432  17.224  0.00  0.00    +0.000 A 
ATOM     18  C   UNL     1      -3.622  10.549  16.242  0.00  0.00    +0.000 A 
ATOM     19  C   UNL     1      -2.407   9.885  16.396  0.00  0.00    +0.000 A 
ATOM     20  C   UNL     1      -1.617  10.112  17.528  0.00  0.00    +0.000 A 
ENDBRANCH  14  15
ENDBRANCH  11  14
ENDBRANCH   8  11
ENDBRANCH   1   8
BRANCH   3  21
ATOM     21  C   UNL     1       2.664   5.049  20.083  0.00  0.00    +0.000 C 
ATOM     22  O   UNL     1       2.969   4.122  19.350  0.00  0.00    +0.000 OA
BRANCH  21  23
ATOM     23  O   UNL     1       2.575   4.902  21.426  0.00  0.00    +0.000 OA
ATOM     24  H   UNL     1       1.707   5.036  21.846  0.00  0.00    +0.000 HD
ENDBRANCH  21  23
ENDBRANCH   3  21
BRANCH   4  25
ATOM     25  N   UNL     1       3.627   5.947  17.484  0.00  0.00    +0.000 N 
ATOM     26  H   UNL     1       3.035   5.432  16.815  0.00  0.00    +0.000 HD
BRANCH  25  27
ATOM     27  C   UNL     1       4.808   6.482  16.790  0.00  0.00    +0.000 C 
BRANCH  27  28
ATOM     28  C   UNL     1       6.062   6.473  17.603  0.00  0.00    +0.000 A 
ATOM     29  C   UNL     1       7.244   7.184  17.542  0.00  0.00    +0.000 A 
ATOM     30  C   UNL     1       8.059   6.691  18.587  0.00  0.00    +0.000 A 
ATOM     31  C   UNL     1       7.335   5.705  19.211  0.00  0.00    +0.000 A 
ATOM     32  O   UNL     1       6.119   5.561  18.615  0.00  0.00    +0.000 OA
ENDBRANCH  27  28
ENDBRANCH  25  27
ENDBRANCH   4  25
TORSDOF 9
ENDMDL
MODEL 5
REMARK VINA RESULT:      -7.9      0.778      1.144
REMARK  Name = 
REMARK  10 active torsions:
REMARK  status: ('A' for Active; 'I' for Inactive)
REMARK    1  A    between atoms: C_1  and  C_2
REMARK    2  A    between atoms: C_2  and  N_3
REMARK    3  A    between atoms: C_2  and  C_24
REMARK    4  A    between atoms: N_3  and  S_4
REMARK    5  A    between atoms: S_4  and  C_7
REMARK    6  A    between atoms: C_9  and  C_10
REMARK    7  A    between atoms: C_10  and  O_12
REMARK    8  A    between atoms: C_13  and  N_14
REMARK    9  A    between atoms: N_14  and  C_15
REMARK   10  A    between atoms: C_15  and  C_16
REMARK                            x       y       z     vdW  Elec       q    Type
REMARK                         _______ _______ _______ _____ _____    ______ ____
ROOT
ATOM      1  C   UNL     1       3.380   4.746  19.352  0.00  0.00    +0.000 A 
ATOM      2  C   UNL     1       4.670   5.258  19.568  0.00  0.00    +0.000 A 
ATOM      3  C   UNL     1       5.670   5.100  18.601  0.00  0.00    +0.000 A 
ATOM      4  C   UNL     1       5.428   4.309  17.445  0.00  0.00    +0.000 A 
ATOM      5  C   UNL     1       4.127   3.796  17.273  0.00  0.00    +0.000 A 
ATOM      6  C   UNL     1       3.111   4.005  18.210  0.00  0.00    +0.000 A 
ATOM      7 CL   UNL     1       1.554   3.355  17.834  0.00  0.00    +0.000 Cl
ENDROOT
BRANCH   1   8
ATOM      8  S   UNL     1       2.128   5.152  20.542  0.00  0.00    +0.000 S 
ATOM      9  O   UNL     1       2.513   4.506  21.774  0.00  0.00    +0.000 OA
ATOM     10  O   UNL     1       0.858   4.876  19.911  0.00  0.00    +0.000 OA
BRANCH   8  11
ATOM     11  N   UNL     1       2.290   6.823  20.701  0.00  0.00    +0.000 NA
ATOM     12  H   UNL     1       2.469   7.105  21.664  0.00  0.00    +0.000 HD
BRANCH  11  14
ATOM     13  C   UNL     1       2.158   8.288  18.709  0.00  0.00    +0.000 C 
ATOM     14  C   UNL     1       1.427   7.756  19.944  0.00  0.00    +0.000 C 
BRANCH  14  15
ATOM     15  C   UNL     1       0.790   8.829  20.816  0.00  0.00    +0.000 A 
ATOM     16  C   UNL     1       0.201   8.522  22.054  0.00  0.00    +0.000 A 
ATOM     17  C   UNL     1      -0.392   9.505  22.841  0.00  0.00    +0.000 A 
ATOM     18  C   UNL     1      -0.412  10.824  22.401  0.00  0.00    +0.000 A 
ATOM     19  C   UNL     1       0.154  11.152  21.171  0.00  0.00    +0.000 A 
ATOM     20  C   UNL     1       0.752  10.164  20.382  0.00  0.00    +0.000 A 
ENDBRANCH  14  15
ENDBRANCH  11  14
ENDBRANCH   8  11
ENDBRANCH   1   8
BRANCH   3  21
ATOM     21  C   UNL     1       6.997   5.742  18.817  0.00  0.00    +0.000 C 
ATOM     22  O   UNL     1       7.734   5.431  19.738  0.00  0.00    +0.000 OA
BRANCH  21  23
ATOM     23  O   UNL     1       7.348   6.675  17.901  0.00  0.00    +0.000 OA
ATOM     24  H   UNL     1       7.025   6.569  16.989  0.00  0.00    +0.000 HD
ENDBRANCH  21  23
ENDBRANCH   3  21
BRANCH   4  25
ATOM     25  N   UNL     1       6.392   4.187  16.428  0.00  0.00    +0.000 N 
ATOM     26  H   UNL     1       7.250   3.743  16.791  0.00  0.00    +0.000 HD
BRANCH  25  27
ATOM     27  C   UNL     1       6.014   3.565  15.150  0.00  0.00    +0.000 C 
BRANCH  27  28
ATOM     28  C   UNL     1       6.666   4.169  13.950  0.00  0.00    +0.000 A 
ATOM     29  C   UNL     1       6.589   3.918  12.594  0.00  0.00    +0.000 A 
ATOM     30  C   UNL     1       7.479   4.823  11.971  0.00  0.00    +0.000 A 
ATOM     31  C   UNL     1       8.054   5.557  12.979  0.00  0.00    +0.000 A 
ATOM     32  O   UNL     1       7.569   5.163  14.188  0.00  0.00    +0.000 OA
ENDBRANCH  27  28
ENDBRANCH  25  27
ENDBRANCH   4  25
TORSDOF 9
ENDMDL
MODEL 6
REMARK VINA RESULT:      -7.9      1.059      1.583
REMARK  Name = 
REMARK  10 active torsions:
REMARK  status: ('A' for Active; 'I' for Inactive)
REMARK    1  A    between atoms: C_1  and  C_2
REMARK    2  A    between atoms: C_2  and  N_3
REMARK    3  A    between atoms: C_2  and  C_24
REMARK    4  A    between atoms: N_3  and  S_4
REMARK    5  A    between atoms: S_4  and  C_7
REMARK    6  A    between atoms: C_9  and  C_10
REMARK    7  A    between atoms: C_10  and  O_12
REMARK    8  A    between atoms: C_13  and  N_14
REMARK    9  A    between atoms: N_14  and  C_15
REMARK   10  A    between atoms: C_15  and  C_16
REMARK                            x       y       z     vdW  Elec       q    Type
REMARK                         _______ _______ _______ _____ _____    ______ ____
ROOT
ATOM      1  C   UNL     1       3.324   4.655  19.296  0.00  0.00    +0.000 A 
ATOM      2  C   UNL     1       4.322   5.583  18.958  0.00  0.00    +0.000 A 
ATOM      3  C   UNL     1       5.221   5.315  17.917  0.00  0.00    +0.000 A 
ATOM      4  C   UNL     1       5.214   4.047  17.277  0.00  0.00    +0.000 A 
ATOM      5  C   UNL     1       4.211   3.134  17.657  0.00  0.00    +0.000 A 
ATOM      6  C   UNL     1       3.275   3.425  18.654  0.00  0.00    +0.000 A 
ATOM      7 CL   UNL     1       2.074   2.224  18.974  0.00  0.00    +0.000 Cl
ENDROOT
BRANCH   1   8
ATOM      8  S   UNL     1       2.116   5.152  20.496  0.00  0.00    +0.000 S 
ATOM      9  O   UNL     1       2.507   4.542  21.744  0.00  0.00    +0.000 OA
ATOM     10  O   UNL     1       0.822   4.897  19.905  0.00  0.00    +0.000 OA
BRANCH   8  11
ATOM     11  N   UNL     1       2.341   6.821  20.584  0.00  0.00    +0.000 NA
ATOM     12  H   UNL     1       2.579   7.131  21.526  0.00  0.00    +0.000 HD
BRANCH  11  14
ATOM     13  C   UNL     1       2.202   8.317  18.616  0.00  0.00    +0.000 C 
ATOM     14  C   UNL     1       1.470   7.756  19.838  0.00  0.00    +0.000 C 
BRANCH  14  15
ATOM     15  C   UNL     1       0.815   8.807  20.724  0.00  0.00    +0.000 A 
ATOM     16  C   UNL     1       0.636  10.130  20.290  0.00  0.00    +0.000 A 
ATOM     17  C   UNL     1       0.048  11.090  21.110  0.00  0.00    +0.000 A 
ATOM     18  C   UNL     1      -0.370  10.743  22.390  0.00  0.00    +0.000 A 
ATOM     19  C   UNL     1      -0.192   9.440  22.848  0.00  0.00    +0.000 A 
ATOM     20  C   UNL     1       0.396   8.476  22.023  0.00  0.00    +0.000 A 
ENDBRANCH  14  15
ENDBRANCH  11  14
ENDBRANCH   8  11
ENDBRANCH   1   8
BRANCH   3  21
ATOM     21  C   UNL     1       6.201   6.363  17.517  0.00  0.00    +0.000 C 
ATOM     22  O   UNL     1       6.063   7.040  16.512  0.00  0.00    +0.000 OA
BRANCH  21  23
ATOM     23  O   UNL     1       7.243   6.539  18.363  0.00  0.00    +0.000 OA
ATOM     24  H   UNL     1       7.874   5.806  18.474  0.00  0.00    +0.000 HD
ENDBRANCH  21  23
ENDBRANCH   3  21
BRANCH   4  25
ATOM     25  N   UNL     1       6.061   3.774  16.187  0.00  0.00    +0.000 N 
ATOM     26  H   UNL     1       6.684   2.980  16.400  0.00  0.00    +0.000 HD
BRANCH  25  27
ATOM     27  C   UNL     1       5.477   3.602  14.848  0.00  0.00    +0.000 C 
BRANCH  27  28
ATOM     28  C   UNL     1       6.339   4.088  13.728  0.00  0.00    +0.000 A 
ATOM     29  C   UNL     1       6.488   3.715  12.408  0.00  0.00    +0.000 A 
ATOM     30  C   UNL     1       7.492   4.552  11.869  0.00  0.00    +0.000 A 
ATOM     31  C   UNL     1       7.904   5.371  12.891  0.00  0.00    +0.000 A 
ATOM     32  O   UNL     1       7.211   5.092  14.029  0.00  0.00    +0.000 OA
ENDBRANCH  27  28
ENDBRANCH  25  27
ENDBRANCH   4  25
TORSDOF 9
ENDMDL
MODEL 7
REMARK VINA RESULT:      -7.8      2.478      8.732
REMARK  Name = 
REMARK  10 active torsions:
REMARK  status: ('A' for Active; 'I' for Inactive)
REMARK    1  A    between atoms: C_1  and  C_2
REMARK    2  A    between atoms: C_2  and  N_3
REMARK    3  A    between atoms: C_2  and  C_24
REMARK    4  A    between atoms: N_3  and  S_4
REMARK    5  A    between atoms: S_4  and  C_7
REMARK    6  A    between atoms: C_9  and  C_10
REMARK    7  A    between atoms: C_10  and  O_12
REMARK    8  A    between atoms: C_13  and  N_14
REMARK    9  A    between atoms: N_14  and  C_15
REMARK   10  A    between atoms: C_15  and  C_16
REMARK                            x       y       z     vdW  Elec       q    Type
REMARK                         _______ _______ _______ _____ _____    ______ ____
ROOT
ATOM      1  C   UNL     1       2.788   4.766  18.677  0.00  0.00    +0.000 A 
ATOM      2  C   UNL     1       2.597   6.009  18.052  0.00  0.00    +0.000 A 
ATOM      3  C   UNL     1       2.211   7.130  18.798  0.00  0.00    +0.000 A 
ATOM      4  C   UNL     1       1.885   6.994  20.174  0.00  0.00    +0.000 A 
ATOM      5  C   UNL     1       2.070   5.727  20.761  0.00  0.00    +0.000 A 
ATOM      6  C   UNL     1       2.514   4.622  20.030  0.00  0.00    +0.000 A 
ATOM      7 CL   UNL     1       2.741   3.147  20.902  0.00  0.00    +0.000 Cl
ENDROOT
BRANCH   1   8
ATOM      8  S   UNL     1       3.456   3.448  17.694  0.00  0.00    +0.000 S 
ATOM      9  O   UNL     1       2.329   2.667  17.244  0.00  0.00    +0.000 OA
ATOM     10  O   UNL     1       4.521   2.858  18.470  0.00  0.00    +0.000 OA
BRANCH   8  11
ATOM     11  N   UNL     1       4.139   4.266  16.387  0.00  0.00    +0.000 NA
ATOM     12  H   UNL     1       3.669   4.053  15.508  0.00  0.00    +0.000 HD
BRANCH  11  14
ATOM     13  C   UNL     1       6.066   5.682  17.032  0.00  0.00    +0.000 C 
ATOM     14  C   UNL     1       5.604   4.439  16.268  0.00  0.00    +0.000 C 
BRANCH  14  15
ATOM     15  C   UNL     1       6.106   4.353  14.833  0.00  0.00    +0.000 A 
ATOM     16  C   UNL     1       7.233   5.070  14.400  0.00  0.00    +0.000 A 
ATOM     17  C   UNL     1       7.679   4.998  13.084  0.00  0.00    +0.000 A 
ATOM     18  C   UNL     1       6.999   4.206  12.166  0.00  0.00    +0.000 A 
ATOM     19  C   UNL     1       5.870   3.495  12.567  0.00  0.00    +0.000 A 
ATOM     20  C   UNL     1       5.424   3.566  13.890  0.00  0.00    +0.000 A 
ENDBRANCH  14  15
ENDBRANCH  11  14
ENDBRANCH   8  11
ENDBRANCH   1   8
BRANCH   3  21
ATOM     21  C   UNL     1       2.116   8.454  18.122  0.00  0.00    +0.000 C 
ATOM     22  O   UNL     1       1.194   9.227  18.321  0.00  0.00    +0.000 OA
BRANCH  21  23
ATOM     23  O   UNL     1       3.141   8.759  17.292  0.00  0.00    +0.000 OA
ATOM     24  H   UNL     1       3.069   8.500  16.357  0.00  0.00    +0.000 HD
ENDBRANCH  21  23
ENDBRANCH   3  21
BRANCH   4  25
ATOM     25  N   UNL     1       1.557   8.113  20.961  0.00  0.00    +0.000 N 
ATOM     26  H   UNL     1       1.788   8.988  20.464  0.00  0.00    +0.000 HD
BRANCH  25  27
ATOM     27  C   UNL     1       0.209   8.214  21.541  0.00  0.00    +0.000 C 
BRANCH  27  28
ATOM     28  C   UNL     1      -0.247   9.611  21.810  0.00  0.00    +0.000 A 
ATOM     29  C   UNL     1      -0.149  10.798  21.112  0.00  0.00    +0.000 A 
ATOM     30  C   UNL     1      -0.763  11.785  21.917  0.00  0.00    +0.000 A 
ATOM     31  C   UNL     1      -1.184  11.147  23.058  0.00  0.00    +0.000 A 
ATOM     32  O   UNL     1      -0.870   9.824  23.005  0.00  0.00    +0.000 OA
ENDBRANCH  27  28
ENDBRANCH  25  27
ENDBRANCH   4  25
TORSDOF 9
ENDMDL
MODEL 8
REMARK VINA RESULT:      -7.8      0.977      1.481
REMARK  Name = 
REMARK  10 active torsions:
REMARK  status: ('A' for Active; 'I' for Inactive)
REMARK    1  A    between atoms: C_1  and  C_2
REMARK    2  A    between atoms: C_2  and  N_3
REMARK    3  A    between atoms: C_2  and  C_24
REMARK    4  A    between atoms: N_3  and  S_4
REMARK    5  A    between atoms: S_4  and  C_7
REMARK    6  A    between atoms: C_9  and  C_10
REMARK    7  A    between atoms: C_10  and  O_12
REMARK    8  A    between atoms: C_13  and  N_14
REMARK    9  A    between atoms: N_14  and  C_15
REMARK   10  A    between atoms: C_15  and  C_16
REMARK                            x       y       z     vdW  Elec       q    Type
REMARK                         _______ _______ _______ _____ _____    ______ ____
ROOT
ATOM      1  C   UNL     1       3.050   4.290  19.395  0.00  0.00    +0.000 A 
ATOM      2  C   UNL     1       4.374   4.759  19.426  0.00  0.00    +0.000 A 
ATOM      3  C   UNL     1       5.226   4.559  18.333  0.00  0.00    +0.000 A 
ATOM      4  C   UNL     1       4.802   3.768  17.232  0.00  0.00    +0.000 A 
ATOM      5  C   UNL     1       3.474   3.298  17.245  0.00  0.00    +0.000 A 
ATOM      6  C   UNL     1       2.603   3.549  18.309  0.00  0.00    +0.000 A 
ATOM      7 CL   UNL     1       0.989   2.950  18.158  0.00  0.00    +0.000 Cl
ENDROOT
BRANCH   1   8
ATOM      8  S   UNL     1       1.987   4.748  20.740  0.00  0.00    +0.000 S 
ATOM      9  O   UNL     1       2.511   4.091  21.913  0.00  0.00    +0.000 OA
ATOM     10  O   UNL     1       0.634   4.519  20.288  0.00  0.00    +0.000 OA
BRANCH   8  11
ATOM     11  N   UNL     1       2.233   6.412  20.861  0.00  0.00    +0.000 NA
ATOM     12  H   UNL     1       2.295   6.724  21.830  0.00  0.00    +0.000 HD
BRANCH  11  14
ATOM     13  C   UNL     1       2.448   7.743  18.784  0.00  0.00    +0.000 C 
ATOM     14  C   UNL     1       1.544   7.360  19.959  0.00  0.00    +0.000 C 
BRANCH  14  15
ATOM     15  C   UNL     1       0.918   8.540  20.689  0.00  0.00    +0.000 A 
ATOM     16  C   UNL     1       0.519   9.703  20.009  0.00  0.00    +0.000 A 
ATOM     17  C   UNL     1      -0.040  10.784  20.685  0.00  0.00    +0.000 A 
ATOM     18  C   UNL     1      -0.208  10.725  22.064  0.00  0.00    +0.000 A 
ATOM     19  C   UNL     1       0.192   9.589  22.763  0.00  0.00    +0.000 A 
ATOM     20  C   UNL     1       0.750   8.502  22.083  0.00  0.00    +0.000 A 
ENDBRANCH  14  15
ENDBRANCH  11  14
ENDBRANCH   8  11
ENDBRANCH   1   8
BRANCH   3  21
ATOM     21  C   UNL     1       6.591   5.157  18.358  0.00  0.00    +0.000 C 
ATOM     22  O   UNL     1       6.777   6.359  18.453  0.00  0.00    +0.000 OA
BRANCH  21  23
ATOM     23  O   UNL     1       7.615   4.275  18.301  0.00  0.00    +0.000 OA
ATOM     24  H   UNL     1       8.499   4.611  18.071  0.00  0.00    +0.000 HD
ENDBRANCH  21  23
ENDBRANCH   3  21
BRANCH   4  25
ATOM     25  N   UNL     1       5.613   3.605  16.094  0.00  0.00    +0.000 N 
ATOM     26  H   UNL     1       5.433   2.693  15.646  0.00  0.00    +0.000 HD
BRANCH  25  27
ATOM     27  C   UNL     1       5.639   4.663  15.072  0.00  0.00    +0.000 C 
BRANCH  27  28
ATOM     28  C   UNL     1       6.070   4.206  13.717  0.00  0.00    +0.000 A 
ATOM     29  C   UNL     1       5.580   3.274  12.823  0.00  0.00    +0.000 A 
ATOM     30  C   UNL     1       6.456   3.288  11.714  0.00  0.00    +0.000 A 
ATOM     31  C   UNL     1       7.431   4.211  12.002  0.00  0.00    +0.000 A 
ATOM     32  O   UNL     1       7.208   4.771  13.221  0.00  0.00    +0.000 OA
ENDBRANCH  27  28
ENDBRANCH  25  27
ENDBRANCH   4  25
TORSDOF 9
ENDMDL
MODEL 9
REMARK VINA RESULT:      -7.6      2.428      8.865
REMARK  Name = 
REMARK  10 active torsions:
REMARK  status: ('A' for Active; 'I' for Inactive)
REMARK    1  A    between atoms: C_1  and  C_2
REMARK    2  A    between atoms: C_2  and  N_3
REMARK    3  A    between atoms: C_2  and  C_24
REMARK    4  A    between atoms: N_3  and  S_4
REMARK    5  A    between atoms: S_4  and  C_7
REMARK    6  A    between atoms: C_9  and  C_10
REMARK    7  A    between atoms: C_10  and  O_12
REMARK    8  A    between atoms: C_13  and  N_14
REMARK    9  A    between atoms: N_14  and  C_15
REMARK   10  A    between atoms: C_15  and  C_16
REMARK                            x       y       z     vdW  Elec       q    Type
REMARK                         _______ _______ _______ _____ _____    ______ ____
ROOT
ATOM      1  C   UNL     1       5.393   5.248  16.920  0.00  0.00    +0.000 A 
ATOM      2  C   UNL     1       4.191   4.592  17.231  0.00  0.00    +0.000 A 
ATOM      3  C   UNL     1       3.129   5.292  17.819  0.00  0.00    +0.000 A 
ATOM      4  C   UNL     1       3.301   6.642  18.223  0.00  0.00    +0.000 A 
ATOM      5  C   UNL     1       4.528   7.261  17.912  0.00  0.00    +0.000 A 
ATOM      6  C   UNL     1       5.566   6.580  17.270  0.00  0.00    +0.000 A 
ATOM      7 CL   UNL     1       6.992   7.488  16.910  0.00  0.00    +0.000 Cl
ENDROOT
BRANCH   1   8
ATOM      8  S   UNL     1       6.612   4.335  16.010  0.00  0.00    +0.000 S 
ATOM      9  O   UNL     1       6.033   3.042  15.738  0.00  0.00    +0.000 OA
ATOM     10  O   UNL     1       7.852   4.467  16.741  0.00  0.00    +0.000 OA
BRANCH   8  11
ATOM     11  N   UNL     1       6.744   5.213  14.577  0.00  0.00    +0.000 NA
ATOM     12  H   UNL     1       5.899   5.743  14.368  0.00  0.00    +0.000 HD
BRANCH  11  14
ATOM     13  C   UNL     1       8.121   5.748  12.589  0.00  0.00    +0.000 C 
ATOM     14  C   UNL     1       7.418   4.647  13.386  0.00  0.00    +0.000 C 
BRANCH  14  15
ATOM     15  C   UNL     1       6.517   3.740  12.559  0.00  0.00    +0.000 A 
ATOM     16  C   UNL     1       7.023   2.623  11.874  0.00  0.00    +0.000 A 
ATOM     17  C   UNL     1       6.198   1.805  11.108  0.00  0.00    +0.000 A 
ATOM     18  C   UNL     1       4.841   2.092  11.008  0.00  0.00    +0.000 A 
ATOM     19  C   UNL     1       4.317   3.201  11.668  0.00  0.00    +0.000 A 
ATOM     20  C   UNL     1       5.146   4.021  12.439  0.00  0.00    +0.000 A 
ENDBRANCH  14  15
ENDBRANCH  11  14
ENDBRANCH   8  11
ENDBRANCH   1   8
BRANCH   3  21
ATOM     21  C   UNL     1       1.834   4.590  18.043  0.00  0.00    +0.000 C 
ATOM     22  O   UNL     1       1.164   4.143  17.126  0.00  0.00    +0.000 OA
BRANCH  21  23
ATOM     23  O   UNL     1       1.463   4.451  19.337  0.00  0.00    +0.000 OA
ATOM     24  H   UNL     1       0.546   4.185  19.526  0.00  0.00    +0.000 HD
ENDBRANCH  21  23
ENDBRANCH   3  21
BRANCH   4  25
ATOM     25  N   UNL     1       2.232   7.387  18.756  0.00  0.00    +0.000 N 
ATOM     26  H   UNL     1       2.328   7.480  19.779  0.00  0.00    +0.000 HD
BRANCH  25  27
ATOM     27  C   UNL     1       1.904   8.694  18.168  0.00  0.00    +0.000 C 
BRANCH  27  28
ATOM     28  C   UNL     1       1.044   9.563  19.027  0.00  0.00    +0.000 A 
ATOM     29  C   UNL     1       0.455  10.798  18.848  0.00  0.00    +0.000 A 
ATOM     30  C   UNL     1      -0.220  11.096  20.055  0.00  0.00    +0.000 A 
ATOM     31  C   UNL     1       0.010  10.037  20.898  0.00  0.00    +0.000 A 
ATOM     32  O   UNL     1       0.783   9.100  20.284  0.00  0.00    +0.000 OA
ENDBRANCH  27  28
ENDBRANCH  25  27
ENDBRANCH   4  25
TORSDOF 9
ENDMDL
