MODEL 1
REMARK VINA RESULT:      -6.6      0.000      0.000
REMARK  Name = 
REMARK  7 active torsions:
REMARK  status: ('A' for Active; 'I' for Inactive)
REMARK    1  A    between atoms: N_4  and  C_5
REMARK    2  A    between atoms: C_5  and  C_6
REMARK    3  A    between atoms: C_6  and  C_7
REMARK    4  A    between atoms: C_7  and  C_8
REMARK    5  A    between atoms: C_8  and  N_9
REMARK    6  A    between atoms: N_9  and  C_10
REMARK    7  A    between atoms: C_10  and  C_11
REMARK                            x       y       z     vdW  Elec       q    Type
REMARK                         _______ _______ _______ _____ _____    ______ ____
ROOT
ATOM      1  C   UNL     1       4.836   4.626  16.621  0.00  0.00    +0.000 C 
ENDROOT
BRANCH   1   2
ATOM      2  C   UNL     1       6.245   4.157  16.217  0.00  0.00    +0.000 C 
BRANCH   2   3
ATOM      3  C   UNL     1       7.259   5.055  16.942  0.00  0.00    +0.000 C 
BRANCH   3   7
ATOM      4  N   UNL     1       8.140   5.368  20.495  0.00  0.00    +0.000 NA
ATOM      5  C   UNL     1       7.947   5.686  19.264  0.00  0.00    +0.000 C 
ATOM      6  N   UNL     1       8.236   7.017  18.855  0.00  0.00    +0.000 N 
ATOM      7  N   UNL     1       7.454   4.713  18.335  0.00  0.00    +0.000 N 
ATOM      8  H   UNL     1       7.956   4.421  20.851  0.00  0.00    +0.000 HD
ATOM      9  H   UNL     1       8.590   7.702  19.538  0.00  0.00    +0.000 HD
ATOM     10  H   UNL     1       8.101   7.331  17.883  0.00  0.00    +0.000 HD
ATOM     11  H   UNL     1       7.244   3.756  18.661  0.00  0.00    +0.000 HD
ENDBRANCH   3   7
ENDBRANCH   2   3
ENDBRANCH   1   2
BRANCH   1  12
ATOM     12  C   UNL     1       4.711   6.128  16.892  0.00  0.00    +0.000 C 
BRANCH  12  13
ATOM     13  N   UNL     1       4.005   6.308  18.170  0.00  0.00    +0.000 NA
ATOM     14  H   UNL     1       4.195   7.276  18.523  0.00  0.00    +0.000 HD
BRANCH  13  15
ATOM     15  C   UNL     1       2.554   6.147  18.027  0.00  0.00    +0.000 C 
BRANCH  15  16
ATOM     16  C   UNL     1       2.079   4.999  18.885  0.00  0.00    +0.000 A 
ATOM     17  C   UNL     1       2.190   5.060  20.286  0.00  0.00    +0.000 A 
ATOM     18  C   UNL     1       1.753   3.993  21.077  0.00  0.00    +0.000 A 
ATOM     19  C   UNL     1       1.201   2.856  20.479  0.00  0.00    +0.000 A 
ATOM     20  C   UNL     1       1.085   2.785  19.088  0.00  0.00    +0.000 A 
ATOM     21  C   UNL     1       1.523   3.850  18.292  0.00  0.00    +0.000 A 
ENDBRANCH  15  16
ENDBRANCH  13  15
ENDBRANCH  12  13
ENDBRANCH   1  12
TORSDOF 7
ENDMDL
MODEL 2
REMARK VINA RESULT:      -6.3      1.572      2.145
REMARK  Name = 
REMARK  7 active torsions:
REMARK  status: ('A' for Active; 'I' for Inactive)
REMARK    1  A    between atoms: N_4  and  C_5
REMARK    2  A    between atoms: C_5  and  C_6
REMARK    3  A    between atoms: C_6  and  C_7
REMARK    4  A    between atoms: C_7  and  C_8
REMARK    5  A    between atoms: C_8  and  N_9
REMARK    6  A    between atoms: N_9  and  C_10
REMARK    7  A    between atoms: C_10  and  C_11
REMARK                            x       y       z     vdW  Elec       q    Type
REMARK                         _______ _______ _______ _____ _____    ______ ____
ROOT
ATOM      1  C   UNL     1       4.629   5.646  16.681  0.00  0.00    +0.000 C 
ENDROOT
BRANCH   1   2
ATOM      2  C   UNL     1       5.280   7.002  17.008  0.00  0.00    +0.000 C 
BRANCH   2   3
ATOM      3  C   UNL     1       6.803   6.800  17.000  0.00  0.00    +0.000 C 
BRANCH   3   7
ATOM      4  N   UNL     1       8.328   5.433  20.051  0.00  0.00    +0.000 NA
ATOM      5  C   UNL     1       7.827   5.486  18.867  0.00  0.00    +0.000 C 
ATOM      6  N   UNL     1       7.717   4.278  18.124  0.00  0.00    +0.000 N 
ATOM      7  N   UNL     1       7.392   6.737  18.320  0.00  0.00    +0.000 N 
ATOM      8  H   UNL     1       8.428   6.270  20.639  0.00  0.00    +0.000 HD
ATOM      9  H   UNL     1       8.035   3.388  18.535  0.00  0.00    +0.000 HD
ATOM     10  H   UNL     1       7.325   4.257  17.172  0.00  0.00    +0.000 HD
ATOM     11  H   UNL     1       7.492   7.600  18.879  0.00  0.00    +0.000 HD
ENDBRANCH   3   7
ENDBRANCH   2   3
ENDBRANCH   1   2
BRANCH   1  12
ATOM     12  C   UNL     1       4.150   4.852  17.899  0.00  0.00    +0.000 C 
BRANCH  12  13
ATOM     13  N   UNL     1       4.748   3.510  17.839  0.00  0.00    +0.000 NA
ATOM     14  H   UNL     1       5.380   3.388  18.666  0.00  0.00    +0.000 HD
BRANCH  13  15
ATOM     15  C   UNL     1       3.735   2.450  17.875  0.00  0.00    +0.000 C 
BRANCH  15  16
ATOM     16  C   UNL     1       2.862   2.617  19.096  0.00  0.00    +0.000 A 
ATOM     17  C   UNL     1       3.418   2.552  20.386  0.00  0.00    +0.000 A 
ATOM     18  C   UNL     1       2.606   2.703  21.515  0.00  0.00    +0.000 A 
ATOM     19  C   UNL     1       1.232   2.920  21.367  0.00  0.00    +0.000 A 
ATOM     20  C   UNL     1       0.670   2.988  20.090  0.00  0.00    +0.000 A 
ATOM     21  C   UNL     1       1.479   2.836  18.958  0.00  0.00    +0.000 A 
ENDBRANCH  15  16
ENDBRANCH  13  15
ENDBRANCH  12  13
ENDBRANCH   1  12
TORSDOF 7
ENDMDL
MODEL 3
REMARK VINA RESULT:      -6.2      0.625      1.371
REMARK  Name = 
REMARK  7 active torsions:
REMARK  status: ('A' for Active; 'I' for Inactive)
REMARK    1  A    between atoms: N_4  and  C_5
REMARK    2  A    between atoms: C_5  and  C_6
REMARK    3  A    between atoms: C_6  and  C_7
REMARK    4  A    between atoms: C_7  and  C_8
REMARK    5  A    between atoms: C_8  and  N_9
REMARK    6  A    between atoms: N_9  and  C_10
REMARK    7  A    between atoms: C_10  and  C_11
REMARK                            x       y       z     vdW  Elec       q    Type
REMARK                         _______ _______ _______ _____ _____    ______ ____
ROOT
ATOM      1  C   UNL     1       4.770   4.544  17.257  0.00  0.00    +0.000 C 
ENDROOT
BRANCH   1   2
ATOM      2  C   UNL     1       5.849   4.226  16.208  0.00  0.00    +0.000 C 
BRANCH   2   3
ATOM      3  C   UNL     1       7.200   4.689  16.775  0.00  0.00    +0.000 C 
BRANCH   3   7
ATOM      4  N   UNL     1       7.942   5.310  20.320  0.00  0.00    +0.000 NA
ATOM      5  C   UNL     1       7.794   5.521  19.060  0.00  0.00    +0.000 C 
ATOM      6  N   UNL     1       8.088   6.816  18.550  0.00  0.00    +0.000 N 
ATOM      7  N   UNL     1       7.344   4.468  18.198  0.00  0.00    +0.000 N 
ATOM      8  H   UNL     1       7.752   4.395  20.747  0.00  0.00    +0.000 HD
ATOM      9  H   UNL     1       8.410   7.560  19.186  0.00  0.00    +0.000 HD
ATOM     10  H   UNL     1       7.988   7.045  17.551  0.00  0.00    +0.000 HD
ATOM     11  H   UNL     1       7.129   3.540  18.596  0.00  0.00    +0.000 HD
ENDBRANCH   3   7
ENDBRANCH   2   3
ENDBRANCH   1   2
BRANCH   1  12
ATOM     12  C   UNL     1       4.427   6.030  17.399  0.00  0.00    +0.000 C 
BRANCH  12  13
ATOM     13  N   UNL     1       3.104   6.140  18.029  0.00  0.00    +0.000 NA
ATOM     14  H   UNL     1       2.622   6.990  17.649  0.00  0.00    +0.000 HD
BRANCH  13  15
ATOM     15  C   UNL     1       2.261   4.972  17.754  0.00  0.00    +0.000 C 
BRANCH  15  16
ATOM     16  C   UNL     1       1.959   4.243  19.042  0.00  0.00    +0.000 A 
ATOM     17  C   UNL     1       1.293   3.004  19.022  0.00  0.00    +0.000 A 
ATOM     18  C   UNL     1       1.012   2.334  20.217  0.00  0.00    +0.000 A 
ATOM     19  C   UNL     1       1.392   2.891  21.441  0.00  0.00    +0.000 A 
ATOM     20  C   UNL     1       2.056   4.121  21.472  0.00  0.00    +0.000 A 
ATOM     21  C   UNL     1       2.338   4.796  20.279  0.00  0.00    +0.000 A 
ENDBRANCH  15  16
ENDBRANCH  13  15
ENDBRANCH  12  13
ENDBRANCH   1  12
TORSDOF 7
ENDMDL
MODEL 4
REMARK VINA RESULT:      -6.2      2.478      5.481
REMARK  Name = 
REMARK  7 active torsions:
REMARK  status: ('A' for Active; 'I' for Inactive)
REMARK    1  A    between atoms: N_4  and  C_5
REMARK    2  A    between atoms: C_5  and  C_6
REMARK    3  A    between atoms: C_6  and  C_7
REMARK    4  A    between atoms: C_7  and  C_8
REMARK    5  A    between atoms: C_8  and  N_9
REMARK    6  A    between atoms: N_9  and  C_10
REMARK    7  A    between atoms: C_10  and  C_11
REMARK                            x       y       z     vdW  Elec       q    Type
REMARK                         _______ _______ _______ _____ _____    ______ ____
ROOT
ATOM      1  C   UNL     1       1.967   4.831  19.657  0.00  0.00    +0.000 C 
ENDROOT
BRANCH   1   2
ATOM      2  C   UNL     1       1.894   4.207  21.062  0.00  0.00    +0.000 C 
BRANCH   2   3
ATOM      3  C   UNL     1       2.396   2.758  20.954  0.00  0.00    +0.000 C 
BRANCH   3   7
ATOM      4  N   UNL     1       4.067   1.545  17.915  0.00  0.00    +0.000 NA
ATOM      5  C   UNL     1       3.894   1.922  19.133  0.00  0.00    +0.000 C 
ATOM      6  N   UNL     1       5.021   1.946  20.001  0.00  0.00    +0.000 N 
ATOM      7  N   UNL     1       2.593   2.308  19.593  0.00  0.00    +0.000 N 
ATOM      8  H   UNL     1       3.294   1.512  17.239  0.00  0.00    +0.000 HD
ATOM      9  H   UNL     1       5.948   1.665  19.651  0.00  0.00    +0.000 HD
ATOM     10  H   UNL     1       4.945   2.238  20.986  0.00  0.00    +0.000 HD
ATOM     11  H   UNL     1       1.791   2.272  18.944  0.00  0.00    +0.000 HD
ENDBRANCH   3   7
ENDBRANCH   2   3
ENDBRANCH   1   2
BRANCH   1  12
ATOM     12  C   UNL     1       2.319   6.321  19.633  0.00  0.00    +0.000 C 
BRANCH  12  13
ATOM     13  N   UNL     1       2.942   6.627  18.337  0.00  0.00    +0.000 NA
ATOM     14  H   UNL     1       3.537   7.483  18.446  0.00  0.00    +0.000 HD
BRANCH  13  15
ATOM     15  C   UNL     1       3.794   5.532  17.861  0.00  0.00    +0.000 C 
BRANCH  15  16
ATOM     16  C   UNL     1       5.247   5.875  18.094  0.00  0.00    +0.000 A 
ATOM     17  C   UNL     1       5.920   6.758  17.231  0.00  0.00    +0.000 A 
ATOM     18  C   UNL     1       7.266   7.070  17.447  0.00  0.00    +0.000 A 
ATOM     19  C   UNL     1       7.953   6.504  18.526  0.00  0.00    +0.000 A 
ATOM     20  C   UNL     1       7.293   5.626  19.390  0.00  0.00    +0.000 A 
ATOM     21  C   UNL     1       5.947   5.310  19.176  0.00  0.00    +0.000 A 
ENDBRANCH  15  16
ENDBRANCH  13  15
ENDBRANCH  12  13
ENDBRANCH   1  12
TORSDOF 7
ENDMDL
MODEL 5
REMARK VINA RESULT:      -6.1      2.491      5.794
REMARK  Name = 
REMARK  7 active torsions:
REMARK  status: ('A' for Active; 'I' for Inactive)
REMARK    1  A    between atoms: N_4  and  C_5
REMARK    2  A    between atoms: C_5  and  C_6
REMARK    3  A    between atoms: C_6  and  C_7
REMARK    4  A    between atoms: C_7  and  C_8
REMARK    5  A    between atoms: C_8  and  N_9
REMARK    6  A    between atoms: N_9  and  C_10
REMARK    7  A    between atoms: C_10  and  C_11
REMARK                            x       y       z     vdW  Elec       q    Type
REMARK                         _______ _______ _______ _____ _____    ______ ____
ROOT
ATOM      1  C   UNL     1       2.440   6.333  18.195  0.00  0.00    +0.000 C 
ENDROOT
BRANCH   1   2
ATOM      2  C   UNL     1       2.742   6.629  19.675  0.00  0.00    +0.000 C 
BRANCH   2   3
ATOM      3  C   UNL     1       1.798   5.764  20.524  0.00  0.00    +0.000 C 
BRANCH   3   7
ATOM      4  N   UNL     1       2.518   2.517  22.086  0.00  0.00    +0.000 NA
ATOM      5  C   UNL     1       1.924   3.417  21.386  0.00  0.00    +0.000 C 
ATOM      6  N   UNL     1       0.718   3.070  20.717  0.00  0.00    +0.000 N 
ATOM      7  N   UNL     1       2.474   4.737  21.289  0.00  0.00    +0.000 N 
ATOM      8  H   UNL     1       3.389   2.708  22.597  0.00  0.00    +0.000 HD
ATOM      9  H   UNL     1       0.339   2.115  20.799  0.00  0.00    +0.000 HD
ATOM     10  H   UNL     1       0.198   3.747  20.141  0.00  0.00    +0.000 HD
ATOM     11  H   UNL     1       3.355   4.960  21.777  0.00  0.00    +0.000 HD
ENDBRANCH   3   7
ENDBRANCH   2   3
ENDBRANCH   1   2
BRANCH   1  12
ATOM     12  C   UNL     1       2.279   4.849  17.856  0.00  0.00    +0.000 C 
BRANCH  12  13
ATOM     13  N   UNL     1       3.580   4.189  18.043  0.00  0.00    +0.000 NA
ATOM     14  H   UNL     1       3.431   3.152  18.048  0.00  0.00    +0.000 HD
BRANCH  13  15
ATOM     15  C   UNL     1       4.524   4.513  16.968  0.00  0.00    +0.000 C 
BRANCH  15  16
ATOM     16  C   UNL     1       5.700   5.276  17.531  0.00  0.00    +0.000 A 
ATOM     17  C   UNL     1       6.311   6.299  16.784  0.00  0.00    +0.000 A 
ATOM     18  C   UNL     1       7.402   7.000  17.307  0.00  0.00    +0.000 A 
ATOM     19  C   UNL     1       7.893   6.688  18.578  0.00  0.00    +0.000 A 
ATOM     20  C   UNL     1       7.293   5.675  19.329  0.00  0.00    +0.000 A 
ATOM     21  C   UNL     1       6.201   4.969  18.809  0.00  0.00    +0.000 A 
ENDBRANCH  15  16
ENDBRANCH  13  15
ENDBRANCH  12  13
ENDBRANCH   1  12
TORSDOF 7
ENDMDL
MODEL 6
REMARK VINA RESULT:      -6.1      1.742      2.730
REMARK  Name = 
REMARK  7 active torsions:
REMARK  status: ('A' for Active; 'I' for Inactive)
REMARK    1  A    between atoms: N_4  and  C_5
REMARK    2  A    between atoms: C_5  and  C_6
REMARK    3  A    between atoms: C_6  and  C_7
REMARK    4  A    between atoms: C_7  and  C_8
REMARK    5  A    between atoms: C_8  and  N_9
REMARK    6  A    between atoms: N_9  and  C_10
REMARK    7  A    between atoms: C_10  and  C_11
REMARK                            x       y       z     vdW  Elec       q    Type
REMARK                         _______ _______ _______ _____ _____    ______ ____
ROOT
ATOM      1  C   UNL     1       4.027   5.513  17.700  0.00  0.00    +0.000 C 
ENDROOT
BRANCH   1   2
ATOM      2  C   UNL     1       4.410   6.769  16.897  0.00  0.00    +0.000 C 
BRANCH   2   3
ATOM      3  C   UNL     1       5.915   7.008  17.096  0.00  0.00    +0.000 C 
BRANCH   3   7
ATOM      4  N   UNL     1       7.958   4.065  17.913  0.00  0.00    +0.000 NA
ATOM      5  C   UNL     1       7.394   4.993  17.224  0.00  0.00    +0.000 C 
ATOM      6  N   UNL     1       7.605   5.016  15.817  0.00  0.00    +0.000 N 
ATOM      7  N   UNL     1       6.574   5.976  17.868  0.00  0.00    +0.000 N 
ATOM      8  H   UNL     1       7.839   3.991  18.931  0.00  0.00    +0.000 HD
ATOM      9  H   UNL     1       8.198   4.301  15.373  0.00  0.00    +0.000 HD
ATOM     10  H   UNL     1       7.181   5.735  15.213  0.00  0.00    +0.000 HD
ATOM     11  H   UNL     1       6.445   5.941  18.892  0.00  0.00    +0.000 HD
ENDBRANCH   3   7
ENDBRANCH   2   3
ENDBRANCH   1   2
BRANCH   1  12
ATOM     12  C   UNL     1       3.931   4.227  16.875  0.00  0.00    +0.000 C 
BRANCH  12  13
ATOM     13  N   UNL     1       4.604   3.151  17.617  0.00  0.00    +0.000 NA
ATOM     14  H   UNL     1       4.960   3.541  18.523  0.00  0.00    +0.000 HD
BRANCH  13  15
ATOM     15  C   UNL     1       3.699   2.037  17.920  0.00  0.00    +0.000 C 
BRANCH  15  16
ATOM     16  C   UNL     1       2.834   2.388  19.108  0.00  0.00    +0.000 A 
ATOM     17  C   UNL     1       1.456   2.615  18.945  0.00  0.00    +0.000 A 
ATOM     18  C   UNL     1       0.658   2.944  20.046  0.00  0.00    +0.000 A 
ATOM     19  C   UNL     1       1.228   3.050  21.318  0.00  0.00    +0.000 A 
ATOM     20  C   UNL     1       2.596   2.825  21.491  0.00  0.00    +0.000 A 
ATOM     21  C   UNL     1       3.398   2.497  20.392  0.00  0.00    +0.000 A 
ENDBRANCH  15  16
ENDBRANCH  13  15
ENDBRANCH  12  13
ENDBRANCH   1  12
TORSDOF 7
ENDMDL
MODEL 7
REMARK VINA RESULT:      -6.1      3.212      4.315
REMARK  Name = 
REMARK  7 active torsions:
REMARK  status: ('A' for Active; 'I' for Inactive)
REMARK    1  A    between atoms: N_4  and  C_5
REMARK    2  A    between atoms: C_5  and  C_6
REMARK    3  A    between atoms: C_6  and  C_7
REMARK    4  A    between atoms: C_7  and  C_8
REMARK    5  A    between atoms: C_8  and  N_9
REMARK    6  A    between atoms: N_9  and  C_10
REMARK    7  A    between atoms: C_10  and  C_11
REMARK                            x       y       z     vdW  Elec       q    Type
REMARK                         _______ _______ _______ _____ _____    ______ ____
ROOT
ATOM      1  C   UNL     1       7.140   4.527  17.076  0.00  0.00    +0.000 C 
ENDROOT
BRANCH   1   2
ATOM      2  C   UNL     1       6.203   5.037  15.967  0.00  0.00    +0.000 C 
BRANCH   2   3
ATOM      3  C   UNL     1       6.860   4.713  14.617  0.00  0.00    +0.000 C 
BRANCH   3   7
ATOM      4  N   UNL     1       5.895   2.414  11.918  0.00  0.00    +0.000 NA
ATOM      5  C   UNL     1       6.444   3.407  12.522  0.00  0.00    +0.000 C 
ATOM      6  N   UNL     1       7.224   4.319  11.758  0.00  0.00    +0.000 N 
ATOM      7  N   UNL     1       6.268   3.583  13.934  0.00  0.00    +0.000 N 
ATOM      8  H   UNL     1       5.316   1.725  12.413  0.00  0.00    +0.000 HD
ATOM      9  H   UNL     1       7.339   4.176  10.744  0.00  0.00    +0.000 HD
ATOM     10  H   UNL     1       7.688   5.133  12.186  0.00  0.00    +0.000 HD
ATOM     11  H   UNL     1       5.704   2.901  14.466  0.00  0.00    +0.000 HD
ENDBRANCH   3   7
ENDBRANCH   2   3
ENDBRANCH   1   2
BRANCH   1  12
ATOM     12  C   UNL     1       7.160   5.383  18.345  0.00  0.00    +0.000 C 
BRANCH  12  13
ATOM     13  N   UNL     1       6.272   4.758  19.337  0.00  0.00    +0.000 NA
ATOM     14  H   UNL     1       6.683   4.899  20.290  0.00  0.00    +0.000 HD
BRANCH  13  15
ATOM     15  C   UNL     1       4.928   5.346  19.325  0.00  0.00    +0.000 C 
BRANCH  15  16
ATOM     16  C   UNL     1       3.924   4.322  18.851  0.00  0.00    +0.000 A 
ATOM     17  C   UNL     1       4.202   2.948  18.958  0.00  0.00    +0.000 A 
ATOM     18  C   UNL     1       3.271   2.003  18.514  0.00  0.00    +0.000 A 
ATOM     19  C   UNL     1       2.057   2.419  17.959  0.00  0.00    +0.000 A 
ATOM     20  C   UNL     1       1.772   3.782  17.849  0.00  0.00    +0.000 A 
ATOM     21  C   UNL     1       2.700   4.732  18.291  0.00  0.00    +0.000 A 
ENDBRANCH  15  16
ENDBRANCH  13  15
ENDBRANCH  12  13
ENDBRANCH   1  12
TORSDOF 7
ENDMDL
MODEL 8
REMARK VINA RESULT:      -6.1      3.467      4.677
REMARK  Name = 
REMARK  7 active torsions:
REMARK  status: ('A' for Active; 'I' for Inactive)
REMARK    1  A    between atoms: N_4  and  C_5
REMARK    2  A    between atoms: C_5  and  C_6
REMARK    3  A    between atoms: C_6  and  C_7
REMARK    4  A    between atoms: C_7  and  C_8
REMARK    5  A    between atoms: C_8  and  N_9
REMARK    6  A    between atoms: N_9  and  C_10
REMARK    7  A    between atoms: C_10  and  C_11
REMARK                            x       y       z     vdW  Elec       q    Type
REMARK                         _______ _______ _______ _____ _____    ______ ____
ROOT
ATOM      1  C   UNL     1       6.531   4.087  16.249  0.00  0.00    +0.000 C 
ENDROOT
BRANCH   1   2
ATOM      2  C   UNL     1       5.349   4.268  15.280  0.00  0.00    +0.000 C 
BRANCH   2   3
ATOM      3  C   UNL     1       5.931   4.527  13.882  0.00  0.00    +0.000 C 
BRANCH   3   7
ATOM      4  N   UNL     1       6.054   1.709  11.527  0.00  0.00    +0.000 NA
ATOM      5  C   UNL     1       5.654   2.786  12.105  0.00  0.00    +0.000 C 
ATOM      6  N   UNL     1       4.471   3.414  11.625  0.00  0.00    +0.000 N 
ATOM      7  N   UNL     1       6.389   3.331  13.208  0.00  0.00    +0.000 N 
ATOM      8  H   UNL     1       6.897   1.206  11.831  0.00  0.00    +0.000 HD
ATOM      9  H   UNL     1       3.956   3.006  10.831  0.00  0.00    +0.000 HD
ATOM     10  H   UNL     1       4.102   4.278  12.047  0.00  0.00    +0.000 HD
ATOM     11  H   UNL     1       7.249   2.860  13.530  0.00  0.00    +0.000 HD
ENDBRANCH   3   7
ENDBRANCH   2   3
ENDBRANCH   1   2
BRANCH   1  12
ATOM     12  C   UNL     1       6.721   5.229  17.252  0.00  0.00    +0.000 C 
BRANCH  12  13
ATOM     13  N   UNL     1       6.439   4.712  18.599  0.00  0.00    +0.000 NA
ATOM     14  H   UNL     1       7.218   5.001  19.238  0.00  0.00    +0.000 HD
BRANCH  13  15
ATOM     15  C   UNL     1       5.181   5.236  19.141  0.00  0.00    +0.000 C 
BRANCH  15  16
ATOM     16  C   UNL     1       4.036   4.337  18.738  0.00  0.00    +0.000 A 
ATOM     17  C   UNL     1       2.861   4.880  18.188  0.00  0.00    +0.000 A 
ATOM     18  C   UNL     1       1.801   4.046  17.820  0.00  0.00    +0.000 A 
ATOM     19  C   UNL     1       1.902   2.662  17.997  0.00  0.00    +0.000 A 
ATOM     20  C   UNL     1       3.065   2.112  18.542  0.00  0.00    +0.000 A 
ATOM     21  C   UNL     1       4.128   2.944  18.913  0.00  0.00    +0.000 A 
ENDBRANCH  15  16
ENDBRANCH  13  15
ENDBRANCH  12  13
ENDBRANCH   1  12
TORSDOF 7
ENDMDL
MODEL 9
REMARK VINA RESULT:      -6.1      1.885      2.983
REMARK  Name = 
REMARK  7 active torsions:
REMARK  status: ('A' for Active; 'I' for Inactive)
REMARK    1  A    between atoms: N_4  and  C_5
REMARK    2  A    between atoms: C_5  and  C_6
REMARK    3  A    between atoms: C_6  and  C_7
REMARK    4  A    between atoms: C_7  and  C_8
REMARK    5  A    between atoms: C_8  and  N_9
REMARK    6  A    between atoms: N_9  and  C_10
REMARK    7  A    between atoms: C_10  and  C_11
REMARK                            x       y       z     vdW  Elec       q    Type
REMARK                         _______ _______ _______ _____ _____    ______ ____
ROOT
ATOM      1  C   UNL     1       6.665   5.077  18.710  0.00  0.00    +0.000 C 
ENDROOT
BRANCH   1   2
ATOM      2  C   UNL     1       7.607   6.286  18.574  0.00  0.00    +0.000 C 
BRANCH   2   3
ATOM      3  C   UNL     1       7.465   6.828  17.144  0.00  0.00    +0.000 C 
BRANCH   3   7
ATOM      4  N   UNL     1       6.525   4.647  14.340  0.00  0.00    +0.000 NA
ATOM      5  C   UNL     1       6.451   5.570  15.232  0.00  0.00    +0.000 C 
ATOM      6  N   UNL     1       5.258   6.341  15.313  0.00  0.00    +0.000 N 
ATOM      7  N   UNL     1       7.551   5.808  16.120  0.00  0.00    +0.000 N 
ATOM      8  H   UNL     1       7.357   4.053  14.236  0.00  0.00    +0.000 HD
ATOM      9  H   UNL     1       4.478   6.154  14.665  0.00  0.00    +0.000 HD
ATOM     10  H   UNL     1       5.140   7.094  16.005  0.00  0.00    +0.000 HD
ATOM     11  H   UNL     1       8.408   5.240  16.034  0.00  0.00    +0.000 HD
ENDBRANCH   3   7
ENDBRANCH   2   3
ENDBRANCH   1   2
BRANCH   1  12
ATOM     12  C   UNL     1       5.277   5.403  19.269  0.00  0.00    +0.000 C 
BRANCH  12  13
ATOM     13  N   UNL     1       4.434   5.880  18.162  0.00  0.00    +0.000 NA
ATOM     14  H   UNL     1       4.314   5.100  17.473  0.00  0.00    +0.000 HD
BRANCH  13  15
ATOM     15  C   UNL     1       3.106   6.299  18.620  0.00  0.00    +0.000 C 
BRANCH  15  16
ATOM     16  C   UNL     1       2.285   5.086  18.989  0.00  0.00    +0.000 A 
ATOM     17  C   UNL     1       1.996   4.100  18.028  0.00  0.00    +0.000 A 
ATOM     18  C   UNL     1       1.232   2.980  18.372  0.00  0.00    +0.000 A 
ATOM     19  C   UNL     1       0.749   2.833  19.676  0.00  0.00    +0.000 A 
ATOM     20  C   UNL     1       1.031   3.806  20.638  0.00  0.00    +0.000 A 
ATOM     21  C   UNL     1       1.794   4.929  20.298  0.00  0.00    +0.000 A 
ENDBRANCH  15  16
ENDBRANCH  13  15
ENDBRANCH  12  13
ENDBRANCH   1  12
TORSDOF 7
ENDMDL
