MODEL 1
REMARK VINA RESULT:      -7.2      0.000      0.000
REMARK  Name = 
REMARK  4 active torsions:
REMARK  status: ('A' for Active; 'I' for Inactive)
REMARK    1  A    between atoms: C_1  and  N_2
REMARK    2  A    between atoms: C_3  and  C_4
REMARK    3  A    between atoms: C_4  and  C_5
REMARK    4  A    between atoms: C_5  and  C_6
REMARK                            x       y       z     vdW  Elec       q    Type
REMARK                         _______ _______ _______ _____ _____    ______ ____
ROOT
ATOM      1  C   UNL     1       7.474   6.769  17.756  0.00  0.00    +0.000 C 
ATOM      2  N   UNL     1       6.601   5.734  17.257  0.00  0.00    +0.000 N 
ATOM      3  C   UNL     1       5.648   5.001  17.922  0.00  0.00    +0.000 A 
ATOM      4  N   UNL     1       5.067   4.144  17.110  0.00  0.00    +0.000 NA
ATOM      5  C   UNL     1       5.676   4.289  15.899  0.00  0.00    +0.000 A 
ATOM      6  C   UNL     1       5.457   3.588  14.711  0.00  0.00    +0.000 A 
ATOM      7  C   UNL     1       6.206   3.924  13.587  0.00  0.00    +0.000 A 
ATOM      8 CL   UNL     1       5.903   3.045  12.127  0.00  0.00    +0.000 Cl
ATOM      9  C   UNL     1       7.171   4.949  13.646  0.00  0.00    +0.000 A 
ATOM     10 CL   UNL     1       8.117   5.410  12.271  0.00  0.00    +0.000 Cl
ATOM     11  C   UNL     1       7.406   5.647  14.838  0.00  0.00    +0.000 A 
ATOM     12  C   UNL     1       6.637   5.289  15.952  0.00  0.00    +0.000 A 
ENDROOT
BRANCH   3  13
ATOM     13  C   UNL     1       5.369   5.024  19.390  0.00  0.00    +0.000 C 
BRANCH  13  14
ATOM     14  C   UNL     1       3.967   5.479  19.772  0.00  0.00    +0.000 C 
BRANCH  14  15
ATOM     15  C   UNL     1       2.942   4.333  19.767  0.00  0.00    +0.000 C 
ATOM     16  C   UNL     1       1.934   4.438  18.614  0.00  0.00    +0.000 C 
ATOM     17  C   UNL     1       1.104   3.159  18.531  0.00  0.00    +0.000 C 
ATOM     18  C   UNL     1       0.401   2.845  19.851  0.00  0.00    +0.000 C 
ATOM     19  C   UNL     1       1.323   2.928  21.069  0.00  0.00    +0.000 C 
ATOM     20  C   UNL     1       2.155   4.211  21.082  0.00  0.00    +0.000 C 
ENDBRANCH  14  15
ENDBRANCH  13  14
ENDBRANCH   3  13
TORSDOF 3
ENDMDL
MODEL 2
REMARK VINA RESULT:      -7.2      4.127      7.678
REMARK  Name = 
REMARK  4 active torsions:
REMARK  status: ('A' for Active; 'I' for Inactive)
REMARK    1  A    between atoms: C_1  and  N_2
REMARK    2  A    between atoms: C_3  and  C_4
REMARK    3  A    between atoms: C_4  and  C_5
REMARK    4  A    between atoms: C_5  and  C_6
REMARK                            x       y       z     vdW  Elec       q    Type
REMARK                         _______ _______ _______ _____ _____    ______ ____
ROOT
ATOM      1  C   UNL     1       8.244   5.658  19.458  0.00  0.00    +0.000 C 
ATOM      2  N   UNL     1       7.203   6.137  18.580  0.00  0.00    +0.000 N 
ATOM      3  C   UNL     1       7.222   7.188  17.697  0.00  0.00    +0.000 A 
ATOM      4  N   UNL     1       6.063   7.305  17.085  0.00  0.00    +0.000 NA
ATOM      5  C   UNL     1       5.256   6.336  17.604  0.00  0.00    +0.000 A 
ATOM      6  C   UNL     1       3.916   6.059  17.322  0.00  0.00    +0.000 A 
ATOM      7  C   UNL     1       3.298   5.000  17.982  0.00  0.00    +0.000 A 
ATOM      8 CL   UNL     1       1.641   4.674  17.602  0.00  0.00    +0.000 Cl
ATOM      9  C   UNL     1       4.008   4.224  18.920  0.00  0.00    +0.000 A 
ATOM     10 CL   UNL     1       3.285   2.891  19.754  0.00  0.00    +0.000 Cl
ATOM     11  C   UNL     1       5.348   4.505  19.218  0.00  0.00    +0.000 A 
ATOM     12  C   UNL     1       5.944   5.575  18.538  0.00  0.00    +0.000 A 
ENDROOT
BRANCH   3  13
ATOM     13  C   UNL     1       8.320   8.185  17.520  0.00  0.00    +0.000 C 
BRANCH  13  14
ATOM     14  C   UNL     1       8.039   9.565  18.099  0.00  0.00    +0.000 C 
BRANCH  14  15
ATOM     15  C   UNL     1       9.288  10.229  18.702  0.00  0.00    +0.000 C 
ATOM     16  C   UNL     1       8.997  10.969  20.015  0.00  0.00    +0.000 C 
ATOM     17  C   UNL     1      10.307  11.397  20.672  0.00  0.00    +0.000 C 
ATOM     18  C   UNL     1      11.165  12.249  19.738  0.00  0.00    +0.000 C 
ATOM     19  C   UNL     1      11.320  11.653  18.337  0.00  0.00    +0.000 C 
ATOM     20  C   UNL     1       9.983  11.209  17.743  0.00  0.00    +0.000 C 
ENDBRANCH  14  15
ENDBRANCH  13  14
ENDBRANCH   3  13
TORSDOF 3
ENDMDL
MODEL 3
REMARK VINA RESULT:      -7.0      6.235      7.952
REMARK  Name = 
REMARK  4 active torsions:
REMARK  status: ('A' for Active; 'I' for Inactive)
REMARK    1  A    between atoms: C_1  and  N_2
REMARK    2  A    between atoms: C_3  and  C_4
REMARK    3  A    between atoms: C_4  and  C_5
REMARK    4  A    between atoms: C_5  and  C_6
REMARK                            x       y       z     vdW  Elec       q    Type
REMARK                         _______ _______ _______ _____ _____    ______ ____
ROOT
ATOM      1  C   UNL     1       1.955   9.290  17.443  0.00  0.00    +0.000 C 
ATOM      2  N   UNL     1       1.728   8.817  18.788  0.00  0.00    +0.000 N 
ATOM      3  C   UNL     1       2.169   7.664  19.392  0.00  0.00    +0.000 A 
ATOM      4  N   UNL     1       1.737   7.594  20.633  0.00  0.00    +0.000 NA
ATOM      5  C   UNL     1       0.968   8.701  20.835  0.00  0.00    +0.000 A 
ATOM      6  C   UNL     1       0.247   9.081  21.971  0.00  0.00    +0.000 A 
ATOM      7  C   UNL     1      -0.468  10.275  21.942  0.00  0.00    +0.000 A 
ATOM      8 CL   UNL     1      -1.340  10.723  23.368  0.00  0.00    +0.000 Cl
ATOM      9  C   UNL     1      -0.470  11.084  20.789  0.00  0.00    +0.000 A 
ATOM     10 CL   UNL     1      -1.334  12.582  20.712  0.00  0.00    +0.000 Cl
ATOM     11  C   UNL     1       0.239  10.703  19.642  0.00  0.00    +0.000 A 
ATOM     12  C   UNL     1       0.950   9.498  19.699  0.00  0.00    +0.000 A 
ENDROOT
BRANCH   3  13
ATOM     13  C   UNL     1       2.910   6.543  18.741  0.00  0.00    +0.000 C 
BRANCH  13  14
ATOM     14  C   UNL     1       2.043   5.380  18.278  0.00  0.00    +0.000 C 
BRANCH  14  15
ATOM     15  C   UNL     1       2.146   4.151  19.197  0.00  0.00    +0.000 C 
ATOM     16  C   UNL     1       1.186   4.218  20.394  0.00  0.00    +0.000 C 
ATOM     17  C   UNL     1       1.172   2.877  21.124  0.00  0.00    +0.000 C 
ATOM     18  C   UNL     1       2.571   2.448  21.562  0.00  0.00    +0.000 C 
ATOM     19  C   UNL     1       3.620   2.558  20.453  0.00  0.00    +0.000 C 
ATOM     20  C   UNL     1       3.565   3.906  19.733  0.00  0.00    +0.000 C 
ENDBRANCH  14  15
ENDBRANCH  13  14
ENDBRANCH   3  13
TORSDOF 3
ENDMDL
MODEL 4
REMARK VINA RESULT:      -7.0      6.826      8.597
REMARK  Name = 
REMARK  4 active torsions:
REMARK  status: ('A' for Active; 'I' for Inactive)
REMARK    1  A    between atoms: C_1  and  N_2
REMARK    2  A    between atoms: C_3  and  C_4
REMARK    3  A    between atoms: C_4  and  C_5
REMARK    4  A    between atoms: C_5  and  C_6
REMARK                            x       y       z     vdW  Elec       q    Type
REMARK                         _______ _______ _______ _____ _____    ______ ____
ROOT
ATOM      1  C   UNL     1       1.606   9.365  18.019  0.00  0.00    +0.000 C 
ATOM      2  N   UNL     1       1.275   9.190  19.413  0.00  0.00    +0.000 N 
ATOM      3  C   UNL     1       1.629   8.179  20.273  0.00  0.00    +0.000 A 
ATOM      4  N   UNL     1       1.117   8.382  21.467  0.00  0.00    +0.000 NA
ATOM      5  C   UNL     1       0.382   9.527  21.380  0.00  0.00    +0.000 A 
ATOM      6  C   UNL     1      -0.393  10.155  22.359  0.00  0.00    +0.000 A 
ATOM      7  C   UNL     1      -1.055  11.335  22.033  0.00  0.00    +0.000 A 
ATOM      8 CL   UNL     1      -1.997  12.096  23.270  0.00  0.00    +0.000 Cl
ATOM      9  C   UNL     1      -0.951  11.885  20.740  0.00  0.00    +0.000 A 
ATOM     10 CL   UNL     1      -1.746  13.356  20.293  0.00  0.00    +0.000 Cl
ATOM     11  C   UNL     1      -0.187  11.253  19.750  0.00  0.00    +0.000 A 
ATOM     12  C   UNL     1       0.469  10.068  20.106  0.00  0.00    +0.000 A 
ENDROOT
BRANCH   3  13
ATOM     13  C   UNL     1       2.363   6.926  19.922  0.00  0.00    +0.000 C 
BRANCH  13  14
ATOM     14  C   UNL     1       1.726   5.641  20.432  0.00  0.00    +0.000 C 
BRANCH  14  15
ATOM     15  C   UNL     1       1.693   4.526  19.373  0.00  0.00    +0.000 C 
ATOM     16  C   UNL     1       1.595   3.122  19.986  0.00  0.00    +0.000 C 
ATOM     17  C   UNL     1       1.332   2.093  18.890  0.00  0.00    +0.000 C 
ATOM     18  C   UNL     1       2.393   2.141  17.791  0.00  0.00    +0.000 C 
ATOM     19  C   UNL     1       2.680   3.556  17.282  0.00  0.00    +0.000 C 
ATOM     20  C   UNL     1       2.900   4.551  18.422  0.00  0.00    +0.000 C 
ENDBRANCH  14  15
ENDBRANCH  13  14
ENDBRANCH   3  13
TORSDOF 3
ENDMDL
MODEL 5
REMARK VINA RESULT:      -7.0      4.933      7.566
REMARK  Name = 
REMARK  4 active torsions:
REMARK  status: ('A' for Active; 'I' for Inactive)
REMARK    1  A    between atoms: C_1  and  N_2
REMARK    2  A    between atoms: C_3  and  C_4
REMARK    3  A    between atoms: C_4  and  C_5
REMARK    4  A    between atoms: C_5  and  C_6
REMARK                            x       y       z     vdW  Elec       q    Type
REMARK                         _______ _______ _______ _____ _____    ______ ____
ROOT
ATOM      1  C   UNL     1       2.230   5.078  20.849  0.00  0.00    +0.000 C 
ATOM      2  N   UNL     1       2.315   6.059  19.794  0.00  0.00    +0.000 N 
ATOM      3  C   UNL     1       2.886   5.954  18.549  0.00  0.00    +0.000 A 
ATOM      4  N   UNL     1       2.762   7.082  17.882  0.00  0.00    +0.000 NA
ATOM      5  C   UNL     1       2.131   7.955  18.719  0.00  0.00    +0.000 A 
ATOM      6  C   UNL     1       1.798   9.295  18.507  0.00  0.00    +0.000 A 
ATOM      7  C   UNL     1       1.141   9.989  19.520  0.00  0.00    +0.000 A 
ATOM      8 CL   UNL     1       0.730  11.644  19.223  0.00  0.00    +0.000 Cl
ATOM      9  C   UNL     1       0.822   9.355  20.737  0.00  0.00    +0.000 A 
ATOM     10 CL   UNL     1      -0.004  10.175  22.018  0.00  0.00    +0.000 Cl
ATOM     11  C   UNL     1       1.167   8.016  20.961  0.00  0.00    +0.000 A 
ATOM     12  C   UNL     1       1.825   7.342  19.925  0.00  0.00    +0.000 A 
ENDROOT
BRANCH   3  13
ATOM     13  C   UNL     1       3.680   4.802  18.026  0.00  0.00    +0.000 C 
BRANCH  13  14
ATOM     14  C   UNL     1       4.584   5.126  16.844  0.00  0.00    +0.000 C 
BRANCH  14  15
ATOM     15  C   UNL     1       5.973   5.630  17.272  0.00  0.00    +0.000 C 
ATOM     16  C   UNL     1       6.331   5.241  18.714  0.00  0.00    +0.000 C 
ATOM     17  C   UNL     1       7.798   5.564  18.989  0.00  0.00    +0.000 C 
ATOM     18  C   UNL     1       8.123   7.032  18.717  0.00  0.00    +0.000 C 
ATOM     19  C   UNL     1       7.603   7.533  17.367  0.00  0.00    +0.000 C 
ATOM     20  C   UNL     1       6.142   7.151  17.129  0.00  0.00    +0.000 C 
ENDBRANCH  14  15
ENDBRANCH  13  14
ENDBRANCH   3  13
TORSDOF 3
ENDMDL
MODEL 6
REMARK VINA RESULT:      -7.0      6.943      8.686
REMARK  Name = 
REMARK  4 active torsions:
REMARK  status: ('A' for Active; 'I' for Inactive)
REMARK    1  A    between atoms: C_1  and  N_2
REMARK    2  A    between atoms: C_3  and  C_4
REMARK    3  A    between atoms: C_4  and  C_5
REMARK    4  A    between atoms: C_5  and  C_6
REMARK                            x       y       z     vdW  Elec       q    Type
REMARK                         _______ _______ _______ _____ _____    ______ ____
ROOT
ATOM      1  C   UNL     1       1.327   9.265  18.102  0.00  0.00    +0.000 C 
ATOM      2  N   UNL     1       1.081   9.198  19.522  0.00  0.00    +0.000 N 
ATOM      3  C   UNL     1       1.520   8.275  20.441  0.00  0.00    +0.000 A 
ATOM      4  N   UNL     1       1.068   8.561  21.643  0.00  0.00    +0.000 NA
ATOM      5  C   UNL     1       0.286   9.670  21.504  0.00  0.00    +0.000 A 
ATOM      6  C   UNL     1      -0.457  10.352  22.472  0.00  0.00    +0.000 A 
ATOM      7  C   UNL     1      -1.181  11.478  22.089  0.00  0.00    +0.000 A 
ATOM      8 CL   UNL     1      -2.081  12.308  23.311  0.00  0.00    +0.000 Cl
ATOM      9  C   UNL     1      -1.169  11.919  20.751  0.00  0.00    +0.000 A 
ATOM     10 CL   UNL     1      -2.044  13.320  20.232  0.00  0.00    +0.000 Cl
ATOM     11  C   UNL     1      -0.438  11.232  19.773  0.00  0.00    +0.000 A 
ATOM     12  C   UNL     1       0.282  10.104  20.187  0.00  0.00    +0.000 A 
ENDROOT
BRANCH   3  13
ATOM     13  C   UNL     1       2.281   7.022  20.153  0.00  0.00    +0.000 C 
BRANCH  13  14
ATOM     14  C   UNL     1       1.531   5.730  20.447  0.00  0.00    +0.000 C 
BRANCH  14  15
ATOM     15  C   UNL     1       2.065   4.531  19.646  0.00  0.00    +0.000 C 
ATOM     16  C   UNL     1       2.048   4.770  18.130  0.00  0.00    +0.000 C 
ATOM     17  C   UNL     1       2.801   3.648  17.418  0.00  0.00    +0.000 C 
ATOM     18  C   UNL     1       2.240   2.270  17.765  0.00  0.00    +0.000 C 
ATOM     19  C   UNL     1       2.042   2.052  19.267  0.00  0.00    +0.000 C 
ATOM     20  C   UNL     1       1.315   3.221  19.934  0.00  0.00    +0.000 C 
ENDBRANCH  14  15
ENDBRANCH  13  14
ENDBRANCH   3  13
TORSDOF 3
ENDMDL
MODEL 7
REMARK VINA RESULT:      -7.0      0.901      1.026
REMARK  Name = 
REMARK  4 active torsions:
REMARK  status: ('A' for Active; 'I' for Inactive)
REMARK    1  A    between atoms: C_1  and  N_2
REMARK    2  A    between atoms: C_3  and  C_4
REMARK    3  A    between atoms: C_4  and  C_5
REMARK    4  A    between atoms: C_5  and  C_6
REMARK                            x       y       z     vdW  Elec       q    Type
REMARK                         _______ _______ _______ _____ _____    ______ ____
ROOT
ATOM      1  C   UNL     1       7.452   6.127  18.120  0.00  0.00    +0.000 C 
ATOM      2  N   UNL     1       6.531   5.233  17.460  0.00  0.00    +0.000 N 
ATOM      3  C   UNL     1       5.511   4.482  17.993  0.00  0.00    +0.000 A 
ATOM      4  N   UNL     1       4.906   3.786  17.055  0.00  0.00    +0.000 NA
ATOM      5  C   UNL     1       5.565   4.054  15.892  0.00  0.00    +0.000 A 
ATOM      6  C   UNL     1       5.342   3.539  14.612  0.00  0.00    +0.000 A 
ATOM      7  C   UNL     1       6.150   3.974  13.565  0.00  0.00    +0.000 A 
ATOM      8 CL   UNL     1       5.842   3.326  11.990  0.00  0.00    +0.000 Cl
ATOM      9  C   UNL     1       7.176   4.913  13.791  0.00  0.00    +0.000 A 
ATOM     10 CL   UNL     1       8.196   5.493  12.518  0.00  0.00    +0.000 Cl
ATOM     11  C   UNL     1       7.413   5.424  15.074  0.00  0.00    +0.000 A 
ATOM     12  C   UNL     1       6.585   4.969  16.107  0.00  0.00    +0.000 A 
ENDROOT
BRANCH   3  13
ATOM     13  C   UNL     1       5.183   4.323  19.441  0.00  0.00    +0.000 C 
BRANCH  13  14
ATOM     14  C   UNL     1       4.693   2.939  19.843  0.00  0.00    +0.000 C 
BRANCH  14  15
ATOM     15  C   UNL     1       3.164   2.866  20.001  0.00  0.00    +0.000 C 
ATOM     16  C   UNL     1       2.467   2.236  18.787  0.00  0.00    +0.000 C 
ATOM     17  C   UNL     1       0.996   1.982  19.106  0.00  0.00    +0.000 C 
ATOM     18  C   UNL     1       0.279   3.255  19.554  0.00  0.00    +0.000 C 
ATOM     19  C   UNL     1       1.038   4.039  20.627  0.00  0.00    +0.000 C 
ATOM     20  C   UNL     1       2.513   4.232  20.273  0.00  0.00    +0.000 C 
ENDBRANCH  14  15
ENDBRANCH  13  14
ENDBRANCH   3  13
TORSDOF 3
ENDMDL
MODEL 8
REMARK VINA RESULT:      -6.9      4.328      7.003
REMARK  Name = 
REMARK  4 active torsions:
REMARK  status: ('A' for Active; 'I' for Inactive)
REMARK    1  A    between atoms: C_1  and  N_2
REMARK    2  A    between atoms: C_3  and  C_4
REMARK    3  A    between atoms: C_4  and  C_5
REMARK    4  A    between atoms: C_5  and  C_6
REMARK                            x       y       z     vdW  Elec       q    Type
REMARK                         _______ _______ _______ _____ _____    ______ ____
ROOT
ATOM      1  C   UNL     1       2.860   3.852  20.384  0.00  0.00    +0.000 C 
ATOM      2  N   UNL     1       2.822   4.870  19.362  0.00  0.00    +0.000 N 
ATOM      3  C   UNL     1       3.248   4.812  18.057  0.00  0.00    +0.000 A 
ATOM      4  N   UNL     1       3.045   5.961  17.449  0.00  0.00    +0.000 NA
ATOM      5  C   UNL     1       2.511   6.800  18.381  0.00  0.00    +0.000 A 
ATOM      6  C   UNL     1       2.151   8.144  18.256  0.00  0.00    +0.000 A 
ATOM      7  C   UNL     1       1.611   8.798  19.360  0.00  0.00    +0.000 A 
ATOM      8 CL   UNL     1       1.164  10.459  19.170  0.00  0.00    +0.000 Cl
ATOM      9  C   UNL     1       1.434   8.120  20.583  0.00  0.00    +0.000 A 
ATOM     10 CL   UNL     1       0.756   8.889  21.977  0.00  0.00    +0.000 Cl
ATOM     11  C   UNL     1       1.806   6.776  20.719  0.00  0.00    +0.000 A 
ATOM     12  C   UNL     1       2.345   6.143  19.592  0.00  0.00    +0.000 A 
ENDROOT
BRANCH   3  13
ATOM     13  C   UNL     1       3.981   3.685  17.407  0.00  0.00    +0.000 C 
BRANCH  13  14
ATOM     14  C   UNL     1       5.303   4.066  16.754  0.00  0.00    +0.000 C 
BRANCH  14  15
ATOM     15  C   UNL     1       6.042   5.185  17.506  0.00  0.00    +0.000 C 
ATOM     16  C   UNL     1       6.404   6.373  16.603  0.00  0.00    +0.000 C 
ATOM     17  C   UNL     1       6.918   7.534  17.452  0.00  0.00    +0.000 C 
ATOM     18  C   UNL     1       8.103   7.125  18.326  0.00  0.00    +0.000 C 
ATOM     19  C   UNL     1       7.872   5.823  19.098  0.00  0.00    +0.000 C 
ATOM     20  C   UNL     1       7.325   4.708  18.207  0.00  0.00    +0.000 C 
ENDBRANCH  14  15
ENDBRANCH  13  14
ENDBRANCH   3  13
TORSDOF 3
ENDMDL
MODEL 9
REMARK VINA RESULT:      -6.9      6.488      8.120
REMARK  Name = 
REMARK  4 active torsions:
REMARK  status: ('A' for Active; 'I' for Inactive)
REMARK    1  A    between atoms: C_1  and  N_2
REMARK    2  A    between atoms: C_3  and  C_4
REMARK    3  A    between atoms: C_4  and  C_5
REMARK    4  A    between atoms: C_5  and  C_6
REMARK                            x       y       z     vdW  Elec       q    Type
REMARK                         _______ _______ _______ _____ _____    ______ ____
ROOT
ATOM      1  C   UNL     1       2.042   9.818  17.653  0.00  0.00    +0.000 C 
ATOM      2  N   UNL     1       1.660   9.275  18.935  0.00  0.00    +0.000 N 
ATOM      3  C   UNL     1       1.962   8.055  19.491  0.00  0.00    +0.000 A 
ATOM      4  N   UNL     1       1.415   7.937  20.681  0.00  0.00    +0.000 NA
ATOM      5  C   UNL     1       0.710   9.084  20.896  0.00  0.00    +0.000 A 
ATOM      6  C   UNL     1      -0.083   9.442  21.990  0.00  0.00    +0.000 A 
ATOM      7  C   UNL     1      -0.707  10.686  21.986  0.00  0.00    +0.000 A 
ATOM      8 CL   UNL     1      -1.671  11.105  23.360  0.00  0.00    +0.000 Cl
ATOM      9  C   UNL     1      -0.546  11.568  20.899  0.00  0.00    +0.000 A 
ATOM     10 CL   UNL     1      -1.292  13.129  20.856  0.00  0.00    +0.000 Cl
ATOM     11  C   UNL     1       0.235  11.210  19.792  0.00  0.00    +0.000 A 
ATOM     12  C   UNL     1       0.852   9.953  19.824  0.00  0.00    +0.000 A 
ENDROOT
BRANCH   3  13
ATOM     13  C   UNL     1       2.678   6.925  18.827  0.00  0.00    +0.000 C 
BRANCH  13  14
ATOM     14  C   UNL     1       3.264   5.887  19.774  0.00  0.00    +0.000 C 
BRANCH  14  15
ATOM     15  C   UNL     1       2.656   4.487  19.580  0.00  0.00    +0.000 C 
ATOM     16  C   UNL     1       2.263   4.204  18.123  0.00  0.00    +0.000 C 
ATOM     17  C   UNL     1       1.891   2.731  17.963  0.00  0.00    +0.000 C 
ATOM     18  C   UNL     1       0.780   2.312  18.925  0.00  0.00    +0.000 C 
ATOM     19  C   UNL     1       1.025   2.754  20.370  0.00  0.00    +0.000 C 
ATOM     20  C   UNL     1       1.429   4.226  20.467  0.00  0.00    +0.000 C 
ENDBRANCH  14  15
ENDBRANCH  13  14
ENDBRANCH   3  13
TORSDOF 3
ENDMDL
