MODEL 1
REMARK VINA RESULT:      -7.8      0.000      0.000
REMARK  Name = 
REMARK  8 active torsions:
REMARK  status: ('A' for Active; 'I' for Inactive)
REMARK    1  A    between atoms: N_2  and  C_4
REMARK    2  A    between atoms: C_7  and  C_8
REMARK    3  A    between atoms: C_8  and  C_9
REMARK    4  A    between atoms: C_8  and  C_17
REMARK    5  A    between atoms: C_10  and  O_11
REMARK    6  A    between atoms: C_15  and  O_16
REMARK    7  A    between atoms: C_18  and  O_19
REMARK    8  A    between atoms: C_23  and  O_24
REMARK                            x       y       z     vdW  Elec       q    Type
REMARK                         _______ _______ _______ _____ _____    ______ ____
ROOT
ATOM      1  C   UNL     1       6.087   4.815  18.010  0.00  0.00    +0.000 C 
ENDROOT
BRANCH   1   5
ATOM      2  C   UNL     1       6.002   3.884  13.754  0.00  0.00    +0.000 A 
ATOM      3  C   UNL     1       7.197   4.263  14.375  0.00  0.00    +0.000 A 
ATOM      4  C   UNL     1       7.212   4.504  15.751  0.00  0.00    +0.000 A 
ATOM      5  C   UNL     1       6.038   4.394  16.523  0.00  0.00    +0.000 A 
ATOM      6  C   UNL     1       4.840   4.032  15.871  0.00  0.00    +0.000 A 
ATOM      7  C   UNL     1       4.826   3.759  14.503  0.00  0.00    +0.000 A 
BRANCH   2   9
ATOM      8  O   UNL     1       4.901   3.340  11.786  0.00  0.00    +0.000 OA
ATOM      9  N   UNL     1       5.984   3.641  12.309  0.00  0.00    +0.000 N 
ATOM     10  O   UNL     1       7.055   3.757  11.691  0.00  0.00    +0.000 OA
ENDBRANCH   2   9
ENDBRANCH   1   5
BRANCH   1  11
ATOM     11  C   UNL     1       6.830   6.137  18.061  0.00  0.00    +0.000 A 
ATOM     12  C   UNL     1       6.641   7.185  17.185  0.00  0.00    +0.000 A 
ATOM     13  N   UNL     1       7.313   8.346  17.220  0.00  0.00    +0.000 NA
ATOM     14  C   UNL     1       8.258   8.434  18.165  0.00  0.00    +0.000 A 
ATOM     15  N   UNL     1       8.581   7.483  19.047  0.00  0.00    +0.000 NA
ATOM     16  C   UNL     1       7.853   6.366  18.952  0.00  0.00    +0.000 A 
BRANCH  12  17
ATOM     17  O   UNL     1       5.709   7.102  16.192  0.00  0.00    +0.000 OA
ATOM     18  H   UNL     1       6.228   7.246  15.381  0.00  0.00    +0.000 HD
ENDBRANCH  12  17
BRANCH  16  19
ATOM     19  O   UNL     1       8.256   5.402  19.819  0.00  0.00    +0.000 OA
ATOM     20  H   UNL     1       8.269   5.913  20.651  0.00  0.00    +0.000 HD
ENDBRANCH  16  19
ENDBRANCH   1  11
BRANCH   1  21
ATOM     21  C   UNL     1       4.804   4.691  18.839  0.00  0.00    +0.000 A 
ATOM     22  C   UNL     1       3.782   5.612  18.844  0.00  0.00    +0.000 A 
ATOM     23  N   UNL     1       2.633   5.511  19.519  0.00  0.00    +0.000 NA
ATOM     24  C   UNL     1       2.441   4.365  20.178  0.00  0.00    +0.000 A 
ATOM     25  N   UNL     1       3.310   3.353  20.222  0.00  0.00    +0.000 NA
ATOM     26  C   UNL     1       4.439   3.550  19.526  0.00  0.00    +0.000 A 
BRANCH  22  27
ATOM     27  O   UNL     1       3.876   6.744  18.092  0.00  0.00    +0.000 OA
ATOM     28  H   UNL     1       4.555   7.281  18.539  0.00  0.00    +0.000 HD
ENDBRANCH  22  27
BRANCH  26  29
ATOM     29  O   UNL     1       5.256   2.469  19.616  0.00  0.00    +0.000 OA
ATOM     30  H   UNL     1       6.053   2.798  19.152  0.00  0.00    +0.000 HD
ENDBRANCH  26  29
ENDBRANCH   1  21
TORSDOF 8
ENDMDL
MODEL 2
REMARK VINA RESULT:      -7.8      2.874      5.754
REMARK  Name = 
REMARK  8 active torsions:
REMARK  status: ('A' for Active; 'I' for Inactive)
REMARK    1  A    between atoms: N_2  and  C_4
REMARK    2  A    between atoms: C_7  and  C_8
REMARK    3  A    between atoms: C_8  and  C_9
REMARK    4  A    between atoms: C_8  and  C_17
REMARK    5  A    between atoms: C_10  and  O_11
REMARK    6  A    between atoms: C_15  and  O_16
REMARK    7  A    between atoms: C_18  and  O_19
REMARK    8  A    between atoms: C_23  and  O_24
REMARK                            x       y       z     vdW  Elec       q    Type
REMARK                         _______ _______ _______ _____ _____    ______ ____
ROOT
ATOM      1  C   UNL     1       3.703   5.573  17.558  0.00  0.00    +0.000 C 
ENDROOT
BRANCH   1   5
ATOM      2  C   UNL     1       1.499   8.824  19.443  0.00  0.00    +0.000 A 
ATOM      3  C   UNL     1       1.768   7.646  20.147  0.00  0.00    +0.000 A 
ATOM      4  C   UNL     1       2.522   6.638  19.542  0.00  0.00    +0.000 A 
ATOM      5  C   UNL     1       3.001   6.778  18.223  0.00  0.00    +0.000 A 
ATOM      6  C   UNL     1       2.698   7.966  17.525  0.00  0.00    +0.000 A 
ATOM      7  C   UNL     1       1.972   8.989  18.136  0.00  0.00    +0.000 A 
BRANCH   2   9
ATOM      8  O   UNL     1      -0.385   9.553  20.582  0.00  0.00    +0.000 OA
ATOM      9  N   UNL     1       0.699   9.877  20.075  0.00  0.00    +0.000 N 
ATOM     10  O   UNL     1       1.156  11.031  20.070  0.00  0.00    +0.000 OA
ENDBRANCH   2   9
ENDBRANCH   1   5
BRANCH   1  11
ATOM     11  C   UNL     1       5.193   5.852  17.618  0.00  0.00    +0.000 A 
ATOM     12  C   UNL     1       5.951   5.865  18.771  0.00  0.00    +0.000 A 
ATOM     13  N   UNL     1       7.264   6.132  18.824  0.00  0.00    +0.000 NA
ATOM     14  C   UNL     1       7.834   6.445  17.653  0.00  0.00    +0.000 A 
ATOM     15  N   UNL     1       7.216   6.518  16.471  0.00  0.00    +0.000 NA
ATOM     16  C   UNL     1       5.912   6.223  16.505  0.00  0.00    +0.000 A 
BRANCH  12  17
ATOM     17  O   UNL     1       5.382   5.585  19.979  0.00  0.00    +0.000 OA
ATOM     18  H   UNL     1       4.451   5.844  19.857  0.00  0.00    +0.000 HD
ENDBRANCH  12  17
BRANCH  16  19
ATOM     19  O   UNL     1       5.308   6.374  15.299  0.00  0.00    +0.000 OA
ATOM     20  H   UNL     1       5.272   7.348  15.245  0.00  0.00    +0.000 HD
ENDBRANCH  16  19
ENDBRANCH   1  11
BRANCH   1  21
ATOM     21  C   UNL     1       3.231   4.163  17.935  0.00  0.00    +0.000 A 
ATOM     22  C   UNL     1       1.948   3.696  17.765  0.00  0.00    +0.000 A 
ATOM     23  N   UNL     1       1.517   2.461  18.040  0.00  0.00    +0.000 NA
ATOM     24  C   UNL     1       2.450   1.591  18.436  0.00  0.00    +0.000 A 
ATOM     25  N   UNL     1       3.744   1.876  18.593  0.00  0.00    +0.000 NA
ATOM     26  C   UNL     1       4.081   3.141  18.307  0.00  0.00    +0.000 A 
BRANCH  22  27
ATOM     27  O   UNL     1       0.985   4.508  17.248  0.00  0.00    +0.000 OA
ATOM     28  H   UNL     1       0.496   3.944  16.622  0.00  0.00    +0.000 HD
ENDBRANCH  22  27
BRANCH  26  29
ATOM     29  O   UNL     1       5.413   3.338  18.481  0.00  0.00    +0.000 OA
ATOM     30  H   UNL     1       5.598   3.999  17.783  0.00  0.00    +0.000 HD
ENDBRANCH  26  29
ENDBRANCH   1  21
TORSDOF 8
ENDMDL
MODEL 3
REMARK VINA RESULT:      -7.7      2.836      6.650
REMARK  Name = 
REMARK  8 active torsions:
REMARK  status: ('A' for Active; 'I' for Inactive)
REMARK    1  A    between atoms: N_2  and  C_4
REMARK    2  A    between atoms: C_7  and  C_8
REMARK    3  A    between atoms: C_8  and  C_9
REMARK    4  A    between atoms: C_8  and  C_17
REMARK    5  A    between atoms: C_10  and  O_11
REMARK    6  A    between atoms: C_15  and  O_16
REMARK    7  A    between atoms: C_18  and  O_19
REMARK    8  A    between atoms: C_23  and  O_24
REMARK                            x       y       z     vdW  Elec       q    Type
REMARK                         _______ _______ _______ _____ _____    ______ ____
ROOT
ATOM      1  C   UNL     1       3.856   5.021  19.062  0.00  0.00    +0.000 C 
ENDROOT
BRANCH   1   5
ATOM      2  C   UNL     1       1.817   8.867  18.875  0.00  0.00    +0.000 A 
ATOM      3  C   UNL     1       2.624   8.438  17.816  0.00  0.00    +0.000 A 
ATOM      4  C   UNL     1       3.225   7.178  17.874  0.00  0.00    +0.000 A 
ATOM      5  C   UNL     1       3.049   6.337  18.992  0.00  0.00    +0.000 A 
ATOM      6  C   UNL     1       2.249   6.801  20.057  0.00  0.00    +0.000 A 
ATOM      7  C   UNL     1       1.621   8.044  19.991  0.00  0.00    +0.000 A 
BRANCH   2   9
ATOM      8  O   UNL     1       0.028  10.301  19.222  0.00  0.00    +0.000 OA
ATOM      9  N   UNL     1       1.195  10.192  18.819  0.00  0.00    +0.000 N 
ATOM     10  O   UNL     1       1.876  11.131  18.376  0.00  0.00    +0.000 OA
ENDBRANCH   2   9
ENDBRANCH   1   5
BRANCH   1  11
ATOM     11  C   UNL     1       2.842   3.891  19.047  0.00  0.00    +0.000 A 
ATOM     12  C   UNL     1       1.704   3.859  18.268  0.00  0.00    +0.000 A 
ATOM     13  N   UNL     1       0.799   2.869  18.271  0.00  0.00    +0.000 NA
ATOM     14  C   UNL     1       1.036   1.877  19.139  0.00  0.00    +0.000 A 
ATOM     15  N   UNL     1       2.068   1.801  19.985  0.00  0.00    +0.000 NA
ATOM     16  C   UNL     1       2.929   2.821  19.906  0.00  0.00    +0.000 A 
BRANCH  12  17
ATOM     17  O   UNL     1       1.425   4.877  17.403  0.00  0.00    +0.000 OA
ATOM     18  H   UNL     1       1.603   5.677  17.928  0.00  0.00    +0.000 HD
ENDBRANCH  12  17
BRANCH  16  19
ATOM     19  O   UNL     1       3.924   2.739  20.826  0.00  0.00    +0.000 OA
ATOM     20  H   UNL     1       3.426   2.953  21.638  0.00  0.00    +0.000 HD
ENDBRANCH  16  19
ENDBRANCH   1  11
BRANCH   1  21
ATOM     21  C   UNL     1       5.088   4.879  18.161  0.00  0.00    +0.000 A 
ATOM     22  C   UNL     1       6.388   5.042  18.581  0.00  0.00    +0.000 A 
ATOM     23  N   UNL     1       7.483   4.880  17.832  0.00  0.00    +0.000 NA
ATOM     24  C   UNL     1       7.282   4.439  16.588  0.00  0.00    +0.000 A 
ATOM     25  N   UNL     1       6.087   4.179  16.053  0.00  0.00    +0.000 NA
ATOM     26  C   UNL     1       5.046   4.382  16.873  0.00  0.00    +0.000 A 
BRANCH  22  27
ATOM     27  O   UNL     1       6.654   5.374  19.875  0.00  0.00    +0.000 OA
ATOM     28  H   UNL     1       7.409   5.988  19.821  0.00  0.00    +0.000 HD
ENDBRANCH  22  27
BRANCH  26  29
ATOM     29  O   UNL     1       3.876   4.081  16.253  0.00  0.00    +0.000 OA
ATOM     30  H   UNL     1       4.160   4.063  15.316  0.00  0.00    +0.000 HD
ENDBRANCH  26  29
ENDBRANCH   1  21
TORSDOF 8
ENDMDL
MODEL 4
REMARK VINA RESULT:      -7.6      2.834      6.744
REMARK  Name = 
REMARK  8 active torsions:
REMARK  status: ('A' for Active; 'I' for Inactive)
REMARK    1  A    between atoms: N_2  and  C_4
REMARK    2  A    between atoms: C_7  and  C_8
REMARK    3  A    between atoms: C_8  and  C_9
REMARK    4  A    between atoms: C_8  and  C_17
REMARK    5  A    between atoms: C_10  and  O_11
REMARK    6  A    between atoms: C_15  and  O_16
REMARK    7  A    between atoms: C_18  and  O_19
REMARK    8  A    between atoms: C_23  and  O_24
REMARK                            x       y       z     vdW  Elec       q    Type
REMARK                         _______ _______ _______ _____ _____    ______ ____
ROOT
ATOM      1  C   UNL     1       3.925   5.010  19.148  0.00  0.00    +0.000 C 
ENDROOT
BRANCH   1   5
ATOM      2  C   UNL     1       1.632   8.715  19.122  0.00  0.00    +0.000 A 
ATOM      3  C   UNL     1       1.574   7.851  20.221  0.00  0.00    +0.000 A 
ATOM      4  C   UNL     1       2.359   6.695  20.230  0.00  0.00    +0.000 A 
ATOM      5  C   UNL     1       3.195   6.372  19.142  0.00  0.00    +0.000 A 
ATOM      6  C   UNL     1       3.219   7.247  18.036  0.00  0.00    +0.000 A 
ATOM      7  C   UNL     1       2.462   8.418  18.034  0.00  0.00    +0.000 A 
BRANCH   2   9
ATOM      8  O   UNL     1       0.072  10.110  18.123  0.00  0.00    +0.000 OA
ATOM      9  N   UNL     1       0.802   9.922  19.107  0.00  0.00    +0.000 N 
ATOM     10  O   UNL     1       0.872  10.683  20.085  0.00  0.00    +0.000 OA
ENDBRANCH   2   9
ENDBRANCH   1   5
BRANCH   1  11
ATOM     11  C   UNL     1       2.850   3.942  19.063  0.00  0.00    +0.000 A 
ATOM     12  C   UNL     1       1.747   3.993  18.236  0.00  0.00    +0.000 A 
ATOM     13  N   UNL     1       0.788   3.057  18.176  0.00  0.00    +0.000 NA
ATOM     14  C   UNL     1       0.929   2.035  19.031  0.00  0.00    +0.000 A 
ATOM     15  N   UNL     1       1.916   1.881  19.918  0.00  0.00    +0.000 NA
ATOM     16  C   UNL     1       2.837   2.851  19.900  0.00  0.00    +0.000 A 
BRANCH  12  17
ATOM     17  O   UNL     1       1.566   5.043  17.383  0.00  0.00    +0.000 OA
ATOM     18  H   UNL     1       2.358   5.591  17.527  0.00  0.00    +0.000 HD
ENDBRANCH  12  17
BRANCH  16  19
ATOM     19  O   UNL     1       3.784   2.692  20.860  0.00  0.00    +0.000 OA
ATOM     20  H   UNL     1       3.359   2.005  21.409  0.00  0.00    +0.000 HD
ENDBRANCH  16  19
ENDBRANCH   1  11
BRANCH   1  21
ATOM     21  C   UNL     1       5.158   4.847  18.252  0.00  0.00    +0.000 A 
ATOM     22  C   UNL     1       6.459   4.978  18.679  0.00  0.00    +0.000 A 
ATOM     23  N   UNL     1       7.555   4.797  17.934  0.00  0.00    +0.000 NA
ATOM     24  C   UNL     1       7.349   4.368  16.686  0.00  0.00    +0.000 A 
ATOM     25  N   UNL     1       6.152   4.139  16.144  0.00  0.00    +0.000 NA
ATOM     26  C   UNL     1       5.112   4.360  16.960  0.00  0.00    +0.000 A 
BRANCH  22  27
ATOM     27  O   UNL     1       6.727   5.295  19.976  0.00  0.00    +0.000 OA
ATOM     28  H   UNL     1       7.184   4.511  20.332  0.00  0.00    +0.000 HD
ENDBRANCH  22  27
BRANCH  26  29
ATOM     29  O   UNL     1       3.938   4.089  16.333  0.00  0.00    +0.000 OA
ATOM     30  H   UNL     1       4.229   3.438  15.663  0.00  0.00    +0.000 HD
ENDBRANCH  26  29
ENDBRANCH   1  21
TORSDOF 8
ENDMDL
MODEL 5
REMARK VINA RESULT:      -7.6      2.884      5.731
REMARK  Name = 
REMARK  8 active torsions:
REMARK  status: ('A' for Active; 'I' for Inactive)
REMARK    1  A    between atoms: N_2  and  C_4
REMARK    2  A    between atoms: C_7  and  C_8
REMARK    3  A    between atoms: C_8  and  C_9
REMARK    4  A    between atoms: C_8  and  C_17
REMARK    5  A    between atoms: C_10  and  O_11
REMARK    6  A    between atoms: C_15  and  O_16
REMARK    7  A    between atoms: C_18  and  O_19
REMARK    8  A    between atoms: C_23  and  O_24
REMARK                            x       y       z     vdW  Elec       q    Type
REMARK                         _______ _______ _______ _____ _____    ______ ____
ROOT
ATOM      1  C   UNL     1       3.625   5.513  17.529  0.00  0.00    +0.000 C 
ENDROOT
BRANCH   1   5
ATOM      2  C   UNL     1       1.664   8.966  19.323  0.00  0.00    +0.000 A 
ATOM      3  C   UNL     1       2.096   9.005  17.993  0.00  0.00    +0.000 A 
ATOM      4  C   UNL     1       2.674   7.868  17.422  0.00  0.00    +0.000 A 
ATOM      5  C   UNL     1       2.849   6.686  18.170  0.00  0.00    +0.000 A 
ATOM      6  C   UNL     1       2.426   6.678  19.516  0.00  0.00    +0.000 A 
ATOM      7  C   UNL     1       1.820   7.799  20.081  0.00  0.00    +0.000 A 
BRANCH   2   9
ATOM      8  O   UNL     1       1.031  11.195  19.241  0.00  0.00    +0.000 OA
ATOM      9  N   UNL     1       1.068  10.161  19.924  0.00  0.00    +0.000 N 
ATOM     10  O   UNL     1       0.628  10.068  21.081  0.00  0.00    +0.000 OA
ENDBRANCH   2   9
ENDBRANCH   1   5
BRANCH   1  11
ATOM     11  C   UNL     1       5.097   5.870  17.613  0.00  0.00    +0.000 A 
ATOM     12  C   UNL     1       5.842   5.890  18.774  0.00  0.00    +0.000 A 
ATOM     13  N   UNL     1       7.139   6.225  18.849  0.00  0.00    +0.000 NA
ATOM     14  C   UNL     1       7.701   6.603  17.694  0.00  0.00    +0.000 A 
ATOM     15  N   UNL     1       7.091   6.680  16.508  0.00  0.00    +0.000 NA
ATOM     16  C   UNL     1       5.805   6.313  16.520  0.00  0.00    +0.000 A 
BRANCH  12  17
ATOM     17  O   UNL     1       5.278   5.542  19.967  0.00  0.00    +0.000 OA
ATOM     18  H   UNL     1       5.561   4.619  20.092  0.00  0.00    +0.000 HD
ENDBRANCH  12  17
BRANCH  16  19
ATOM     19  O   UNL     1       5.205   6.468  15.312  0.00  0.00    +0.000 OA
ATOM     20  H   UNL     1       5.445   7.394  15.118  0.00  0.00    +0.000 HD
ENDBRANCH  16  19
ENDBRANCH   1  11
BRANCH   1  21
ATOM     21  C   UNL     1       3.220   4.084  17.910  0.00  0.00    +0.000 A 
ATOM     22  C   UNL     1       1.954   3.565  17.768  0.00  0.00    +0.000 A 
ATOM     23  N   UNL     1       1.581   2.312  18.047  0.00  0.00    +0.000 NA
ATOM     24  C   UNL     1       2.557   1.480  18.418  0.00  0.00    +0.000 A 
ATOM     25  N   UNL     1       3.842   1.817  18.546  0.00  0.00    +0.000 NA
ATOM     26  C   UNL     1       4.120   3.096  18.258  0.00  0.00    +0.000 A 
BRANCH  22  27
ATOM     27  O   UNL     1       0.946   4.339  17.277  0.00  0.00    +0.000 OA
ATOM     28  H   UNL     1       1.337   4.795  16.511  0.00  0.00    +0.000 HD
ENDBRANCH  22  27
BRANCH  26  29
ATOM     29  O   UNL     1       5.447   3.347  18.402  0.00  0.00    +0.000 OA
ATOM     30  H   UNL     1       5.829   2.699  17.776  0.00  0.00    +0.000 HD
ENDBRANCH  26  29
ENDBRANCH   1  21
TORSDOF 8
ENDMDL
MODEL 6
REMARK VINA RESULT:      -7.6      0.114      1.603
REMARK  Name = 
REMARK  8 active torsions:
REMARK  status: ('A' for Active; 'I' for Inactive)
REMARK    1  A    between atoms: N_2  and  C_4
REMARK    2  A    between atoms: C_7  and  C_8
REMARK    3  A    between atoms: C_8  and  C_9
REMARK    4  A    between atoms: C_8  and  C_17
REMARK    5  A    between atoms: C_10  and  O_11
REMARK    6  A    between atoms: C_15  and  O_16
REMARK    7  A    between atoms: C_18  and  O_19
REMARK    8  A    between atoms: C_23  and  O_24
REMARK                            x       y       z     vdW  Elec       q    Type
REMARK                         _______ _______ _______ _____ _____    ______ ____
ROOT
ATOM      1  C   UNL     1       6.035   4.781  17.936  0.00  0.00    +0.000 C 
ENDROOT
BRANCH   1   5
ATOM      2  C   UNL     1       6.054   3.884  13.672  0.00  0.00    +0.000 A 
ATOM      3  C   UNL     1       7.228   4.288  14.319  0.00  0.00    +0.000 A 
ATOM      4  C   UNL     1       7.210   4.518  15.697  0.00  0.00    +0.000 A 
ATOM      5  C   UNL     1       6.025   4.371  16.446  0.00  0.00    +0.000 A 
ATOM      6  C   UNL     1       4.849   3.985  15.768  0.00  0.00    +0.000 A 
ATOM      7  C   UNL     1       4.868   3.723  14.398  0.00  0.00    +0.000 A 
BRANCH   2   9
ATOM      8  O   UNL     1       5.013   3.298  11.685  0.00  0.00    +0.000 OA
ATOM      9  N   UNL     1       6.070   3.652  12.226  0.00  0.00    +0.000 N 
ATOM     10  O   UNL     1       7.142   3.830  11.624  0.00  0.00    +0.000 OA
ENDBRANCH   2   9
ENDBRANCH   1   5
BRANCH   1  11
ATOM     11  C   UNL     1       6.788   6.096  18.018  0.00  0.00    +0.000 A 
ATOM     12  C   UNL     1       6.615   7.162  17.160  0.00  0.00    +0.000 A 
ATOM     13  N   UNL     1       7.296   8.317  17.222  0.00  0.00    +0.000 NA
ATOM     14  C   UNL     1       8.233   8.380  18.177  0.00  0.00    +0.000 A 
ATOM     15  N   UNL     1       8.541   7.410  19.043  0.00  0.00    +0.000 NA
ATOM     16  C   UNL     1       7.805   6.300  18.922  0.00  0.00    +0.000 A 
BRANCH  12  17
ATOM     17  O   UNL     1       5.691   7.105  16.158  0.00  0.00    +0.000 OA
ATOM     18  H   UNL     1       5.847   6.232  15.755  0.00  0.00    +0.000 HD
ENDBRANCH  12  17
BRANCH  16  19
ATOM     19  O   UNL     1       8.193   5.318  19.774  0.00  0.00    +0.000 OA
ATOM     20  H   UNL     1       8.638   4.714  19.149  0.00  0.00    +0.000 HD
ENDBRANCH  16  19
ENDBRANCH   1  11
BRANCH   1  21
ATOM     21  C   UNL     1       4.728   4.663  18.727  0.00  0.00    +0.000 A 
ATOM     22  C   UNL     1       4.408   3.616  19.560  0.00  0.00    +0.000 A 
ATOM     23  N   UNL     1       3.299   3.506  20.298  0.00  0.00    +0.000 NA
ATOM     24  C   UNL     1       2.475   4.557  20.276  0.00  0.00    +0.000 A 
ATOM     25  N   UNL     1       2.674   5.669  19.565  0.00  0.00    +0.000 NA
ATOM     26  C   UNL     1       3.806   5.684  18.846  0.00  0.00    +0.000 A 
BRANCH  22  27
ATOM     27  O   UNL     1       5.271   2.573  19.713  0.00  0.00    +0.000 OA
ATOM     28  H   UNL     1       5.320   2.433  20.676  0.00  0.00    +0.000 HD
ENDBRANCH  22  27
BRANCH  26  29
ATOM     29  O   UNL     1       3.932   6.853  18.167  0.00  0.00    +0.000 OA
ATOM     30  H   UNL     1       3.651   6.581  17.270  0.00  0.00    +0.000 HD
ENDBRANCH  26  29
ENDBRANCH   1  21
TORSDOF 8
ENDMDL
MODEL 7
REMARK VINA RESULT:      -7.6      2.748      6.660
REMARK  Name = 
REMARK  8 active torsions:
REMARK  status: ('A' for Active; 'I' for Inactive)
REMARK    1  A    between atoms: N_2  and  C_4
REMARK    2  A    between atoms: C_7  and  C_8
REMARK    3  A    between atoms: C_8  and  C_9
REMARK    4  A    between atoms: C_8  and  C_17
REMARK    5  A    between atoms: C_10  and  O_11
REMARK    6  A    between atoms: C_15  and  O_16
REMARK    7  A    between atoms: C_18  and  O_19
REMARK    8  A    between atoms: C_23  and  O_24
REMARK                            x       y       z     vdW  Elec       q    Type
REMARK                         _______ _______ _______ _____ _____    ______ ____
ROOT
ATOM      1  C   UNL     1       4.023   4.842  19.089  0.00  0.00    +0.000 C 
ENDROOT
BRANCH   1   5
ATOM      2  C   UNL     1       1.795   8.586  19.026  0.00  0.00    +0.000 A 
ATOM      3  C   UNL     1       1.711   7.727  20.127  0.00  0.00    +0.000 A 
ATOM      4  C   UNL     1       2.476   6.558  20.149  0.00  0.00    +0.000 A 
ATOM      5  C   UNL     1       3.317   6.216  19.071  0.00  0.00    +0.000 A 
ATOM      6  C   UNL     1       3.367   7.086  17.961  0.00  0.00    +0.000 A 
ATOM      7  C   UNL     1       2.631   8.270  17.947  0.00  0.00    +0.000 A 
BRANCH   2   9
ATOM      8  O   UNL     1       1.053  10.567  19.974  0.00  0.00    +0.000 OA
ATOM      9  N   UNL     1       0.986   9.806  18.998  0.00  0.00    +0.000 N 
ATOM     10  O   UNL     1       0.283  10.011  17.995  0.00  0.00    +0.000 OA
ENDBRANCH   2   9
ENDBRANCH   1   5
BRANCH   1  11
ATOM     11  C   UNL     1       2.929   3.792  19.050  0.00  0.00    +0.000 A 
ATOM     12  C   UNL     1       1.799   3.855  18.261  0.00  0.00    +0.000 A 
ATOM     13  N   UNL     1       0.822   2.935  18.243  0.00  0.00    +0.000 NA
ATOM     14  C   UNL     1       0.976   1.917  19.099  0.00  0.00    +0.000 A 
ATOM     15  N   UNL     1       1.991   1.753  19.953  0.00  0.00    +0.000 NA
ATOM     16  C   UNL     1       2.927   2.707  19.896  0.00  0.00    +0.000 A 
BRANCH  12  17
ATOM     17  O   UNL     1       1.605   4.902  17.408  0.00  0.00    +0.000 OA
ATOM     18  H   UNL     1       1.107   4.506  16.672  0.00  0.00    +0.000 HD
ENDBRANCH  12  17
BRANCH  16  19
ATOM     19  O   UNL     1       3.904   2.538  20.823  0.00  0.00    +0.000 OA
ATOM     20  H   UNL     1       4.664   2.921  20.344  0.00  0.00    +0.000 HD
ENDBRANCH  16  19
ENDBRANCH   1  11
BRANCH   1  21
ATOM     21  C   UNL     1       5.234   4.638  18.171  0.00  0.00    +0.000 A 
ATOM     22  C   UNL     1       5.158   4.292  16.841  0.00  0.00    +0.000 A 
ATOM     23  N   UNL     1       6.191   4.152  16.004  0.00  0.00    +0.000 NA
ATOM     24  C   UNL     1       7.391   4.463  16.499  0.00  0.00    +0.000 A 
ATOM     25  N   UNL     1       7.621   4.870  17.749  0.00  0.00    +0.000 NA
ATOM     26  C   UNL     1       6.528   4.968  18.520  0.00  0.00    +0.000 A 
BRANCH  22  27
ATOM     27  O   UNL     1       3.947   4.082  16.255  0.00  0.00    +0.000 OA
ATOM     28  H   UNL     1       3.408   4.849  16.521  0.00  0.00    +0.000 HD
ENDBRANCH  22  27
BRANCH  26  29
ATOM     29  O   UNL     1       6.852   5.399  19.766  0.00  0.00    +0.000 OA
ATOM     30  H   UNL     1       7.799   5.154  19.809  0.00  0.00    +0.000 HD
ENDBRANCH  26  29
ENDBRANCH   1  21
TORSDOF 8
ENDMDL
MODEL 8
REMARK VINA RESULT:      -7.6      2.832      5.888
REMARK  Name = 
REMARK  8 active torsions:
REMARK  status: ('A' for Active; 'I' for Inactive)
REMARK    1  A    between atoms: N_2  and  C_4
REMARK    2  A    between atoms: C_7  and  C_8
REMARK    3  A    between atoms: C_8  and  C_9
REMARK    4  A    between atoms: C_8  and  C_17
REMARK    5  A    between atoms: C_10  and  O_11
REMARK    6  A    between atoms: C_15  and  O_16
REMARK    7  A    between atoms: C_18  and  O_19
REMARK    8  A    between atoms: C_23  and  O_24
REMARK                            x       y       z     vdW  Elec       q    Type
REMARK                         _______ _______ _______ _____ _____    ______ ____
ROOT
ATOM      1  C   UNL     1       3.722   5.489  17.505  0.00  0.00    +0.000 C 
ENDROOT
BRANCH   1   5
ATOM      2  C   UNL     1       1.528   8.588  19.643  0.00  0.00    +0.000 A 
ATOM      3  C   UNL     1       1.803   7.360  20.256  0.00  0.00    +0.000 A 
ATOM      4  C   UNL     1       2.554   6.402  19.571  0.00  0.00    +0.000 A 
ATOM      5  C   UNL     1       3.024   6.641  18.263  0.00  0.00    +0.000 A 
ATOM      6  C   UNL     1       2.715   7.878  17.658  0.00  0.00    +0.000 A 
ATOM      7  C   UNL     1       1.993   8.851  18.349  0.00  0.00    +0.000 A 
BRANCH   2   9
ATOM      8  O   UNL     1      -0.228  10.097  19.761  0.00  0.00    +0.000 OA
ATOM      9  N   UNL     1       0.732   9.589  20.358  0.00  0.00    +0.000 N 
ATOM     10  O   UNL     1       1.061   9.865  21.522  0.00  0.00    +0.000 OA
ENDBRANCH   2   9
ENDBRANCH   1   5
BRANCH   1  11
ATOM     11  C   UNL     1       5.211   5.778  17.554  0.00  0.00    +0.000 A 
ATOM     12  C   UNL     1       5.961   5.873  18.708  0.00  0.00    +0.000 A 
ATOM     13  N   UNL     1       7.273   6.148  18.750  0.00  0.00    +0.000 NA
ATOM     14  C   UNL     1       7.849   6.383  17.564  0.00  0.00    +0.000 A 
ATOM     15  N   UNL     1       7.238   6.373  16.376  0.00  0.00    +0.000 NA
ATOM     16  C   UNL     1       5.935   6.075  16.423  0.00  0.00    +0.000 A 
BRANCH  12  17
ATOM     17  O   UNL     1       5.386   5.674  19.929  0.00  0.00    +0.000 OA
ATOM     18  H   UNL     1       6.096   5.259  20.450  0.00  0.00    +0.000 HD
ENDBRANCH  12  17
BRANCH  16  19
ATOM     19  O   UNL     1       5.338   6.141  15.205  0.00  0.00    +0.000 OA
ATOM     20  H   UNL     1       6.122   6.080  14.626  0.00  0.00    +0.000 HD
ENDBRANCH  16  19
ENDBRANCH   1  11
BRANCH   1  21
ATOM     21  C   UNL     1       3.269   4.054  17.795  0.00  0.00    +0.000 A 
ATOM     22  C   UNL     1       4.070   3.074  18.334  0.00  0.00    +0.000 A 
ATOM     23  N   UNL     1       3.692   1.829  18.641  0.00  0.00    +0.000 NA
ATOM     24  C   UNL     1       2.395   1.554  18.480  0.00  0.00    +0.000 A 
ATOM     25  N   UNL     1       1.483   2.414  18.022  0.00  0.00    +0.000 NA
ATOM     26  C   UNL     1       1.955   3.634  17.729  0.00  0.00    +0.000 A 
BRANCH  22  27
ATOM     27  O   UNL     1       5.372   3.339  18.632  0.00  0.00    +0.000 OA
ATOM     28  H   UNL     1       5.403   4.304  18.764  0.00  0.00    +0.000 HD
ENDBRANCH  22  27
BRANCH  26  29
ATOM     29  O   UNL     1       0.960   4.444  17.285  0.00  0.00    +0.000 OA
ATOM     30  H   UNL     1       0.252   3.791  17.107  0.00  0.00    +0.000 HD
ENDBRANCH  26  29
ENDBRANCH   1  21
TORSDOF 8
ENDMDL
MODEL 9
REMARK VINA RESULT:      -7.6      2.826      6.837
REMARK  Name = 
REMARK  8 active torsions:
REMARK  status: ('A' for Active; 'I' for Inactive)
REMARK    1  A    between atoms: N_2  and  C_4
REMARK    2  A    between atoms: C_7  and  C_8
REMARK    3  A    between atoms: C_8  and  C_9
REMARK    4  A    between atoms: C_8  and  C_17
REMARK    5  A    between atoms: C_10  and  O_11
REMARK    6  A    between atoms: C_15  and  O_16
REMARK    7  A    between atoms: C_18  and  O_19
REMARK    8  A    between atoms: C_23  and  O_24
REMARK                            x       y       z     vdW  Elec       q    Type
REMARK                         _______ _______ _______ _____ _____    ______ ____
ROOT
ATOM      1  C   UNL     1       3.871   5.025  19.116  0.00  0.00    +0.000 C 
ENDROOT
BRANCH   1   5
ATOM      2  C   UNL     1       1.816   8.863  18.921  0.00  0.00    +0.000 A 
ATOM      3  C   UNL     1       2.635   8.441  17.869  0.00  0.00    +0.000 A 
ATOM      4  C   UNL     1       3.241   7.184  17.929  0.00  0.00    +0.000 A 
ATOM      5  C   UNL     1       3.059   6.339  19.042  0.00  0.00    +0.000 A 
ATOM      6  C   UNL     1       2.246   6.795  20.101  0.00  0.00    +0.000 A 
ATOM      7  C   UNL     1       1.613   8.036  20.033  0.00  0.00    +0.000 A 
BRANCH   2   9
ATOM      8  O   UNL     1       0.056  10.310  19.350  0.00  0.00    +0.000 OA
ATOM      9  N   UNL     1       1.189  10.185  18.863  0.00  0.00    +0.000 N 
ATOM     10  O   UNL     1       1.832  11.107  18.334  0.00  0.00    +0.000 OA
ENDBRANCH   2   9
ENDBRANCH   1   5
BRANCH   1  11
ATOM     11  C   UNL     1       2.861   3.893  19.133  0.00  0.00    +0.000 A 
ATOM     12  C   UNL     1       2.990   2.728  19.861  0.00  0.00    +0.000 A 
ATOM     13  N   UNL     1       2.105   1.720  19.860  0.00  0.00    +0.000 NA
ATOM     14  C   UNL     1       1.055   1.879  19.044  0.00  0.00    +0.000 A 
ATOM     15  N   UNL     1       0.827   2.928  18.248  0.00  0.00    +0.000 NA
ATOM     16  C   UNL     1       1.749   3.893  18.323  0.00  0.00    +0.000 A 
BRANCH  12  17
ATOM     17  O   UNL     1       4.070   2.531  20.671  0.00  0.00    +0.000 OA
ATOM     18  H   UNL     1       3.673   2.382  21.547  0.00  0.00    +0.000 HD
ENDBRANCH  12  17
BRANCH  16  19
ATOM     19  O   UNL     1       1.517   4.908  17.452  0.00  0.00    +0.000 OA
ATOM     20  H   UNL     1       1.170   5.585  18.064  0.00  0.00    +0.000 HD
ENDBRANCH  16  19
ENDBRANCH   1  11
BRANCH   1  21
ATOM     21  C   UNL     1       5.088   4.875  18.196  0.00  0.00    +0.000 A 
ATOM     22  C   UNL     1       6.395   5.042  18.593  0.00  0.00    +0.000 A 
ATOM     23  N   UNL     1       7.478   4.874  17.828  0.00  0.00    +0.000 NA
ATOM     24  C   UNL     1       7.256   4.421  16.591  0.00  0.00    +0.000 A 
ATOM     25  N   UNL     1       6.052   4.156  16.079  0.00  0.00    +0.000 NA
ATOM     26  C   UNL     1       5.025   4.366  16.914  0.00  0.00    +0.000 A 
BRANCH  22  27
ATOM     27  O   UNL     1       6.682   5.386  19.879  0.00  0.00    +0.000 OA
ATOM     28  H   UNL     1       7.655   5.394  19.920  0.00  0.00    +0.000 HD
ENDBRANCH  22  27
BRANCH  26  29
ATOM     29  O   UNL     1       3.845   4.060  16.316  0.00  0.00    +0.000 OA
ATOM     30  H   UNL     1       3.296   3.826  17.093  0.00  0.00    +0.000 HD
ENDBRANCH  26  29
ENDBRANCH   1  21
TORSDOF 8
ENDMDL
