MODEL 1
REMARK VINA RESULT:      -7.8      0.000      0.000
REMARK  Name = 
REMARK  9 active torsions:
REMARK  status: ('A' for Active; 'I' for Inactive)
REMARK    1  A    between atoms: C_1  and  C_2
REMARK    2  A    between atoms: C_3  and  N_4
REMARK    3  A    between atoms: N_4  and  C_5
REMARK    4  A    between atoms: C_6  and  C_7
REMARK    5  A    between atoms: C_13  and  C_14
REMARK    6  A    between atoms: C_17  and  C_18
REMARK    7  A    between atoms: C_18  and  N_19
REMARK    8  A    between atoms: N_19  and  C_20
REMARK    9  A    between atoms: N_19  and  C_21
REMARK                            x       y       z     vdW  Elec       q    Type
REMARK                         _______ _______ _______ _____ _____    ______ ____
ROOT
ATOM      1  C   UNL     1       4.159   4.099  19.915  0.00  0.00    +0.000 A 
ATOM      2  C   UNL     1       3.783   2.909  20.573  0.00  0.00    +0.000 A 
ATOM      3  C   UNL     1       2.537   2.805  21.177  0.00  0.00    +0.000 A 
ATOM      4  N   UNL     1       1.613   3.776  21.209  0.00  0.00    +0.000 NA
ATOM      5  C   UNL     1       1.984   4.911  20.584  0.00  0.00    +0.000 A 
ATOM      6  S   UNL     1       0.929   6.242  20.574  0.00  0.00    +0.000 S 
ATOM      7  C   UNL     1       2.036   7.220  19.707  0.00  0.00    +0.000 A 
ATOM      8  C   UNL     1       3.160   6.481  19.374  0.00  0.00    +0.000 A 
ATOM      9  C   UNL     1       3.187   5.148  19.924  0.00  0.00    +0.000 A 
ENDROOT
BRANCH   7  10
ATOM     10  C   UNL     1       1.717   8.622  19.376  0.00  0.00    +0.000 A 
ATOM     11  C   UNL     1       2.110   9.210  18.163  0.00  0.00    +0.000 A 
ATOM     12  C   UNL     1       1.838  10.555  17.890  0.00  0.00    +0.000 A 
ATOM     13  C   UNL     1       1.149  11.344  18.816  0.00  0.00    +0.000 A 
ATOM     14  C   UNL     1       0.714  10.755  20.009  0.00  0.00    +0.000 A 
ATOM     15  C   UNL     1       0.995   9.412  20.282  0.00  0.00    +0.000 A 
BRANCH  13  16
ATOM     16  C   UNL     1       0.917  12.817  18.562  0.00  0.00    +0.000 C 
BRANCH  16  17
ATOM     17  N   UNL     1       1.508  13.711  19.573  0.00  0.00    +0.000 NA
ATOM     18  C   UNL     1       2.929  13.959  19.317  0.00  0.00    +0.000 C 
ATOM     19  C   UNL     1       0.780  14.983  19.582  0.00  0.00    +0.000 C 
ENDBRANCH  16  17
ENDBRANCH  13  16
ENDBRANCH   7  10
BRANCH   1  20
ATOM     20  N   UNL     1       5.484   4.203  19.390  0.00  0.00    +0.000 N 
ATOM     21  H   UNL     1       6.186   3.661  19.889  0.00  0.00    +0.000 HD
BRANCH  20  24
ATOM     22  C   UNL     1       4.242   3.031  16.976  0.00  0.00    +0.000 C 
ATOM     23  C   UNL     1       5.400   3.991  16.927  0.00  0.00    +0.000 A 
ATOM     24  C   UNL     1       5.922   4.587  18.102  0.00  0.00    +0.000 A 
ATOM     25  C   UNL     1       6.942   5.551  18.005  0.00  0.00    +0.000 A 
ATOM     26  C   UNL     1       7.485   5.939  16.775  0.00  0.00    +0.000 A 
ATOM     27  C   UNL     1       7.007   5.288  15.636  0.00  0.00    +0.000 A 
ATOM     28  N   UNL     1       7.370   5.429  14.314  0.00  0.00    +0.000 N 
ATOM     29  C   UNL     1       6.660   4.559  13.532  0.00  0.00    +0.000 A 
ATOM     30  C   UNL     1       5.799   3.869  14.352  0.00  0.00    +0.000 A 
ATOM     31  C   UNL     1       6.000   4.327  15.686  0.00  0.00    +0.000 A 
ATOM     32  H   UNL     1       8.071   6.074  13.976  0.00  0.00    +0.000 HD
ENDBRANCH  20  24
ENDBRANCH   1  20
BRANCH   2  33
ATOM     33  C   UNL     1       4.655   1.779  20.646  0.00  0.00    +0.000 C 
ATOM     34  N   UNL     1       5.389   0.882  20.709  0.00  0.00    +0.000 NA
ENDBRANCH   2  33
TORSDOF 6
ENDMDL
MODEL 2
REMARK VINA RESULT:      -7.6      2.449      9.293
REMARK  Name = 
REMARK  9 active torsions:
REMARK  status: ('A' for Active; 'I' for Inactive)
REMARK    1  A    between atoms: C_1  and  C_2
REMARK    2  A    between atoms: C_3  and  N_4
REMARK    3  A    between atoms: N_4  and  C_5
REMARK    4  A    between atoms: C_6  and  C_7
REMARK    5  A    between atoms: C_13  and  C_14
REMARK    6  A    between atoms: C_17  and  C_18
REMARK    7  A    between atoms: C_18  and  N_19
REMARK    8  A    between atoms: N_19  and  C_20
REMARK    9  A    between atoms: N_19  and  C_21
REMARK                            x       y       z     vdW  Elec       q    Type
REMARK                         _______ _______ _______ _____ _____    ______ ____
ROOT
ATOM      1  C   UNL     1       0.007  11.121  20.619  0.00  0.00    +0.000 A 
ATOM      2  C   UNL     1      -0.677  11.293  21.841  0.00  0.00    +0.000 A 
ATOM      3  C   UNL     1      -0.679  10.280  22.792  0.00  0.00    +0.000 A 
ATOM      4  N   UNL     1      -0.074   9.091  22.653  0.00  0.00    +0.000 NA
ATOM      5  C   UNL     1       0.570   8.935  21.479  0.00  0.00    +0.000 A 
ATOM      6  S   UNL     1       1.351   7.464  21.146  0.00  0.00    +0.000 S 
ATOM      7  C   UNL     1       1.845   7.983  19.590  0.00  0.00    +0.000 A 
ATOM      8  C   UNL     1       1.469   9.301  19.389  0.00  0.00    +0.000 A 
ATOM      9  C   UNL     1       0.669   9.865  20.448  0.00  0.00    +0.000 A 
ENDROOT
BRANCH   7  10
ATOM     10  C   UNL     1       2.600   7.087  18.692  0.00  0.00    +0.000 A 
ATOM     11  C   UNL     1       2.331   5.711  18.613  0.00  0.00    +0.000 A 
ATOM     12  C   UNL     1       3.091   4.873  17.790  0.00  0.00    +0.000 A 
ATOM     13  C   UNL     1       4.129   5.392  17.010  0.00  0.00    +0.000 A 
ATOM     14  C   UNL     1       4.375   6.769  17.049  0.00  0.00    +0.000 A 
ATOM     15  C   UNL     1       3.619   7.603  17.879  0.00  0.00    +0.000 A 
BRANCH  13  16
ATOM     16  C   UNL     1       5.004   4.481  16.176  0.00  0.00    +0.000 C 
BRANCH  16  17
ATOM     17  N   UNL     1       6.349   5.015  15.899  0.00  0.00    +0.000 NA
ATOM     18  C   UNL     1       7.334   4.538  16.873  0.00  0.00    +0.000 C 
ATOM     19  C   UNL     1       6.760   4.618  14.549  0.00  0.00    +0.000 C 
ENDBRANCH  16  17
ENDBRANCH  13  16
ENDBRANCH   7  10
BRANCH   1  20
ATOM     20  N   UNL     1      -0.095  12.145  19.628  0.00  0.00    +0.000 N 
ATOM     21  H   UNL     1      -1.044  12.450  19.423  0.00  0.00    +0.000 HD
BRANCH  20  24
ATOM     22  C   UNL     1      -0.680  15.043  19.646  0.00  0.00    +0.000 C 
ATOM     23  C   UNL     1       0.598  14.460  19.104  0.00  0.00    +0.000 A 
ATOM     24  C   UNL     1       0.873  13.072  19.178  0.00  0.00    +0.000 A 
ATOM     25  C   UNL     1       2.117  12.580  18.747  0.00  0.00    +0.000 A 
ATOM     26  C   UNL     1       3.107  13.418  18.220  0.00  0.00    +0.000 A 
ATOM     27  C   UNL     1       2.790  14.771  18.090  0.00  0.00    +0.000 A 
ATOM     28  N   UNL     1       3.536  15.813  17.582  0.00  0.00    +0.000 N 
ATOM     29  C   UNL     1       2.812  16.975  17.616  0.00  0.00    +0.000 A 
ATOM     30  C   UNL     1       1.595  16.691  18.188  0.00  0.00    +0.000 A 
ATOM     31  C   UNL     1       1.569  15.301  18.503  0.00  0.00    +0.000 A 
ATOM     32  H   UNL     1       4.476  15.726  17.223  0.00  0.00    +0.000 HD
ENDBRANCH  20  24
ENDBRANCH   1  20
BRANCH   2  33
ATOM     33  C   UNL     1      -1.387  12.494  22.147  0.00  0.00    +0.000 C 
ATOM     34  N   UNL     1      -1.936  13.487  22.393  0.00  0.00    +0.000 NA
ENDBRANCH   2  33
TORSDOF 6
ENDMDL
MODEL 3
REMARK VINA RESULT:      -7.6      0.744      1.319
REMARK  Name = 
REMARK  9 active torsions:
REMARK  status: ('A' for Active; 'I' for Inactive)
REMARK    1  A    between atoms: C_1  and  C_2
REMARK    2  A    between atoms: C_3  and  N_4
REMARK    3  A    between atoms: N_4  and  C_5
REMARK    4  A    between atoms: C_6  and  C_7
REMARK    5  A    between atoms: C_13  and  C_14
REMARK    6  A    between atoms: C_17  and  C_18
REMARK    7  A    between atoms: C_18  and  N_19
REMARK    8  A    between atoms: N_19  and  C_20
REMARK    9  A    between atoms: N_19  and  C_21
REMARK                            x       y       z     vdW  Elec       q    Type
REMARK                         _______ _______ _______ _____ _____    ______ ____
ROOT
ATOM      1  C   UNL     1       4.268   3.822  19.925  0.00  0.00    +0.000 A 
ATOM      2  C   UNL     1       3.917   2.615  20.567  0.00  0.00    +0.000 A 
ATOM      3  C   UNL     1       2.684   2.487  21.192  0.00  0.00    +0.000 A 
ATOM      4  N   UNL     1       1.750   3.447  21.261  0.00  0.00    +0.000 NA
ATOM      5  C   UNL     1       2.098   4.597  20.652  0.00  0.00    +0.000 A 
ATOM      6  S   UNL     1       1.030   5.917  20.688  0.00  0.00    +0.000 S 
ATOM      7  C   UNL     1       2.109   6.924  19.820  0.00  0.00    +0.000 A 
ATOM      8  C   UNL     1       3.234   6.204  19.451  0.00  0.00    +0.000 A 
ATOM      9  C   UNL     1       3.285   4.860  19.974  0.00  0.00    +0.000 A 
ENDROOT
BRANCH   7  10
ATOM     10  C   UNL     1       1.770   8.328  19.523  0.00  0.00    +0.000 A 
ATOM     11  C   UNL     1       1.141   9.159  20.464  0.00  0.00    +0.000 A 
ATOM     12  C   UNL     1       0.785  10.474  20.143  0.00  0.00    +0.000 A 
ATOM     13  C   UNL     1       1.065  10.999  18.878  0.00  0.00    +0.000 A 
ATOM     14  C   UNL     1       1.732  10.193  17.949  0.00  0.00    +0.000 A 
ATOM     15  C   UNL     1       2.079   8.876  18.269  0.00  0.00    +0.000 A 
BRANCH  13  16
ATOM     16  C   UNL     1       0.616  12.393  18.499  0.00  0.00    +0.000 C 
BRANCH  16  17
ATOM     17  N   UNL     1      -0.515  12.906  19.292  0.00  0.00    +0.000 NA
ATOM     18  C   UNL     1      -0.482  14.366  19.405  0.00  0.00    +0.000 C 
ATOM     19  C   UNL     1      -1.774  12.489  18.670  0.00  0.00    +0.000 C 
ENDBRANCH  16  17
ENDBRANCH  13  16
ENDBRANCH   7  10
BRANCH   1  20
ATOM     20  N   UNL     1       5.581   3.949  19.377  0.00  0.00    +0.000 N 
ATOM     21  H   UNL     1       6.289   3.370  19.821  0.00  0.00    +0.000 HD
BRANCH  20  24
ATOM     22  C   UNL     1       4.309   2.911  16.918  0.00  0.00    +0.000 C 
ATOM     23  C   UNL     1       5.457   3.886  16.908  0.00  0.00    +0.000 A 
ATOM     24  C   UNL     1       5.993   4.416  18.107  0.00  0.00    +0.000 A 
ATOM     25  C   UNL     1       7.000   5.395  18.052  0.00  0.00    +0.000 A 
ATOM     26  C   UNL     1       7.518   5.863  16.838  0.00  0.00    +0.000 A 
ATOM     27  C   UNL     1       7.027   5.277  15.670  0.00  0.00    +0.000 A 
ATOM     28  N   UNL     1       7.366   5.501  14.354  0.00  0.00    +0.000 N 
ATOM     29  C   UNL     1       6.651   4.671  13.532  0.00  0.00    +0.000 A 
ATOM     30  C   UNL     1       5.812   3.924  14.323  0.00  0.00    +0.000 A 
ATOM     31  C   UNL     1       6.031   4.302  15.679  0.00  0.00    +0.000 A 
ATOM     32  H   UNL     1       8.053   6.173  14.043  0.00  0.00    +0.000 HD
ENDBRANCH  20  24
ENDBRANCH   1  20
BRANCH   2  33
ATOM     33  C   UNL     1       4.802   1.494  20.601  0.00  0.00    +0.000 C 
ATOM     34  N   UNL     1       5.524   0.587  20.661  0.00  0.00    +0.000 NA
ENDBRANCH   2  33
TORSDOF 6
ENDMDL
MODEL 4
REMARK VINA RESULT:      -7.5      3.564      9.234
REMARK  Name = 
REMARK  9 active torsions:
REMARK  status: ('A' for Active; 'I' for Inactive)
REMARK    1  A    between atoms: C_1  and  C_2
REMARK    2  A    between atoms: C_3  and  N_4
REMARK    3  A    between atoms: N_4  and  C_5
REMARK    4  A    between atoms: C_6  and  C_7
REMARK    5  A    between atoms: C_13  and  C_14
REMARK    6  A    between atoms: C_17  and  C_18
REMARK    7  A    between atoms: C_18  and  N_19
REMARK    8  A    between atoms: N_19  and  C_20
REMARK    9  A    between atoms: N_19  and  C_21
REMARK                            x       y       z     vdW  Elec       q    Type
REMARK                         _______ _______ _______ _____ _____    ______ ____
ROOT
ATOM      1  C   UNL     1      -0.664  10.950  20.872  0.00  0.00    +0.000 A 
ATOM      2  C   UNL     1      -1.216  11.182  22.150  0.00  0.00    +0.000 A 
ATOM      3  C   UNL     1      -0.868  10.370  23.222  0.00  0.00    +0.000 A 
ATOM      4  N   UNL     1      -0.026   9.328  23.158  0.00  0.00    +0.000 NA
ATOM      5  C   UNL     1       0.490   9.111  21.932  0.00  0.00    +0.000 A 
ATOM      6  S   UNL     1       1.544   7.801  21.691  0.00  0.00    +0.000 S 
ATOM      7  C   UNL     1       1.713   8.137  20.020  0.00  0.00    +0.000 A 
ATOM      8  C   UNL     1       1.020   9.292  19.697  0.00  0.00    +0.000 A 
ATOM      9  C   UNL     1       0.246   9.850  20.778  0.00  0.00    +0.000 A 
ENDROOT
BRANCH   7  10
ATOM     10  C   UNL     1       2.539   7.278  19.150  0.00  0.00    +0.000 A 
ATOM     11  C   UNL     1       3.186   7.776  18.007  0.00  0.00    +0.000 A 
ATOM     12  C   UNL     1       3.925   6.933  17.171  0.00  0.00    +0.000 A 
ATOM     13  C   UNL     1       4.054   5.572  17.464  0.00  0.00    +0.000 A 
ATOM     14  C   UNL     1       3.451   5.076  18.626  0.00  0.00    +0.000 A 
ATOM     15  C   UNL     1       2.705   5.919  19.455  0.00  0.00    +0.000 A 
BRANCH  13  16
ATOM     16  C   UNL     1       4.789   4.641  16.525  0.00  0.00    +0.000 C 
BRANCH  16  17
ATOM     17  N   UNL     1       6.126   5.111  16.124  0.00  0.00    +0.000 NA
ATOM     18  C   UNL     1       7.152   4.732  17.098  0.00  0.00    +0.000 C 
ATOM     19  C   UNL     1       6.464   4.552  14.812  0.00  0.00    +0.000 C 
ENDBRANCH  16  17
ENDBRANCH  13  16
ENDBRANCH   7  10
BRANCH   1  20
ATOM     20  N   UNL     1      -1.119  11.744  19.775  0.00  0.00    +0.000 N 
ATOM     21  H   UNL     1      -0.484  12.487  19.491  0.00  0.00    +0.000 HD
BRANCH  20  24
ATOM     22  C   UNL     1      -0.389  10.065  17.454  0.00  0.00    +0.000 C 
ATOM     23  C   UNL     1      -1.740  10.710  17.616  0.00  0.00    +0.000 A 
ATOM     24  C   UNL     1      -2.077  11.449  18.777  0.00  0.00    +0.000 A 
ATOM     25  C   UNL     1      -3.379  11.956  18.932  0.00  0.00    +0.000 A 
ATOM     26  C   UNL     1      -4.369  11.773  17.960  0.00  0.00    +0.000 A 
ATOM     27  C   UNL     1      -3.997  11.104  16.793  0.00  0.00    +0.000 A 
ATOM     28  N   UNL     1      -4.733  10.811  15.665  0.00  0.00    +0.000 N 
ATOM     29  C   UNL     1      -3.951  10.167  14.743  0.00  0.00    +0.000 A 
ATOM     30  C   UNL     1      -2.702  10.008  15.295  0.00  0.00    +0.000 A 
ATOM     31  C   UNL     1      -2.718  10.587  16.597  0.00  0.00    +0.000 A 
ATOM     32  H   UNL     1      -5.705  11.051  15.534  0.00  0.00    +0.000 HD
ENDBRANCH  20  24
ENDBRANCH   1  20
BRANCH   2  33
ATOM     33  C   UNL     1      -2.142  12.243  22.391  0.00  0.00    +0.000 C 
ATOM     34  N   UNL     1      -2.887  13.117  22.558  0.00  0.00    +0.000 NA
ENDBRANCH   2  33
TORSDOF 6
ENDMDL
MODEL 5
REMARK VINA RESULT:      -7.4      2.411      9.333
REMARK  Name = 
REMARK  9 active torsions:
REMARK  status: ('A' for Active; 'I' for Inactive)
REMARK    1  A    between atoms: C_1  and  C_2
REMARK    2  A    between atoms: C_3  and  N_4
REMARK    3  A    between atoms: N_4  and  C_5
REMARK    4  A    between atoms: C_6  and  C_7
REMARK    5  A    between atoms: C_13  and  C_14
REMARK    6  A    between atoms: C_17  and  C_18
REMARK    7  A    between atoms: C_18  and  N_19
REMARK    8  A    between atoms: N_19  and  C_20
REMARK    9  A    between atoms: N_19  and  C_21
REMARK                            x       y       z     vdW  Elec       q    Type
REMARK                         _______ _______ _______ _____ _____    ______ ____
ROOT
ATOM      1  C   UNL     1      -0.145  11.128  20.240  0.00  0.00    +0.000 A 
ATOM      2  C   UNL     1      -0.837  11.385  21.442  0.00  0.00    +0.000 A 
ATOM      3  C   UNL     1      -0.785  10.474  22.489  0.00  0.00    +0.000 A 
ATOM      4  N   UNL     1      -0.120   9.310  22.467  0.00  0.00    +0.000 NA
ATOM      5  C   UNL     1       0.532   9.071  21.312  0.00  0.00    +0.000 A 
ATOM      6  S   UNL     1       1.390   7.618  21.123  0.00  0.00    +0.000 S 
ATOM      7  C   UNL     1       1.857   8.003  19.522  0.00  0.00    +0.000 A 
ATOM      8  C   UNL     1       1.412   9.272  19.191  0.00  0.00    +0.000 A 
ATOM      9  C   UNL     1       0.583   9.897  20.193  0.00  0.00    +0.000 A 
ENDROOT
BRANCH   7  10
ATOM     10  C   UNL     1       2.658   7.062  18.714  0.00  0.00    +0.000 A 
ATOM     11  C   UNL     1       3.616   7.504  17.787  0.00  0.00    +0.000 A 
ATOM     12  C   UNL     1       4.330   6.595  16.999  0.00  0.00    +0.000 A 
ATOM     13  C   UNL     1       4.118   5.219  17.128  0.00  0.00    +0.000 A 
ATOM     14  C   UNL     1       3.197   4.768  18.081  0.00  0.00    +0.000 A 
ATOM     15  C   UNL     1       2.479   5.679  18.862  0.00  0.00    +0.000 A 
BRANCH  13  16
ATOM     16  C   UNL     1       4.830   4.235  16.227  0.00  0.00    +0.000 C 
BRANCH  16  17
ATOM     17  N   UNL     1       6.098   4.732  15.664  0.00  0.00    +0.000 NA
ATOM     18  C   UNL     1       7.225   4.495  16.569  0.00  0.00    +0.000 C 
ATOM     19  C   UNL     1       6.352   4.072  14.380  0.00  0.00    +0.000 C 
ENDBRANCH  16  17
ENDBRANCH  13  16
ENDBRANCH   7  10
BRANCH   1  20
ATOM     20  N   UNL     1      -0.300  12.040  19.152  0.00  0.00    +0.000 N 
ATOM     21  H   UNL     1      -1.183  11.965  18.652  0.00  0.00    +0.000 HD
BRANCH  20  24
ATOM     22  C   UNL     1       2.432  12.064  18.021  0.00  0.00    +0.000 C 
ATOM     23  C   UNL     1       1.692  13.312  18.423  0.00  0.00    +0.000 A 
ATOM     24  C   UNL     1       0.357  13.266  18.895  0.00  0.00    +0.000 A 
ATOM     25  C   UNL     1      -0.331  14.461  19.170  0.00  0.00    +0.000 A 
ATOM     26  C   UNL     1       0.267  15.717  19.013  0.00  0.00    +0.000 A 
ATOM     27  C   UNL     1       1.605  15.738  18.615  0.00  0.00    +0.000 A 
ATOM     28  N   UNL     1       2.455  16.804  18.415  0.00  0.00    +0.000 N 
ATOM     29  C   UNL     1       3.700  16.358  18.061  0.00  0.00    +0.000 A 
ATOM     30  C   UNL     1       3.647  14.986  17.996  0.00  0.00    +0.000 A 
ATOM     31  C   UNL     1       2.324  14.579  18.334  0.00  0.00    +0.000 A 
ATOM     32  H   UNL     1       2.197  17.774  18.528  0.00  0.00    +0.000 HD
ENDBRANCH  20  24
ENDBRANCH   1  20
BRANCH   2  33
ATOM     33  C   UNL     1      -1.609  12.572  21.629  0.00  0.00    +0.000 C 
ATOM     34  N   UNL     1      -2.213  13.554  21.766  0.00  0.00    +0.000 NA
ENDBRANCH   2  33
TORSDOF 6
ENDMDL
MODEL 6
REMARK VINA RESULT:      -7.3      2.630      9.557
REMARK  Name = 
REMARK  9 active torsions:
REMARK  status: ('A' for Active; 'I' for Inactive)
REMARK    1  A    between atoms: C_1  and  C_2
REMARK    2  A    between atoms: C_3  and  N_4
REMARK    3  A    between atoms: N_4  and  C_5
REMARK    4  A    between atoms: C_6  and  C_7
REMARK    5  A    between atoms: C_13  and  C_14
REMARK    6  A    between atoms: C_17  and  C_18
REMARK    7  A    between atoms: C_18  and  N_19
REMARK    8  A    between atoms: N_19  and  C_20
REMARK    9  A    between atoms: N_19  and  C_21
REMARK                            x       y       z     vdW  Elec       q    Type
REMARK                         _______ _______ _______ _____ _____    ______ ____
ROOT
ATOM      1  C   UNL     1      -0.162  13.144  21.674  0.00  0.00    +0.000 A 
ATOM      2  C   UNL     1      -1.123  13.475  22.653  0.00  0.00    +0.000 A 
ATOM      3  C   UNL     1      -1.766  12.474  23.370  0.00  0.00    +0.000 A 
ATOM      4  N   UNL     1      -1.564  11.158  23.208  0.00  0.00    +0.000 NA
ATOM      5  C   UNL     1      -0.651  10.853  22.266  0.00  0.00    +0.000 A 
ATOM      6  S   UNL     1      -0.317   9.224  21.924  0.00  0.00    +0.000 S 
ATOM      7  C   UNL     1       0.807   9.624  20.696  0.00  0.00    +0.000 A 
ATOM      8  C   UNL     1       0.963  10.999  20.627  0.00  0.00    +0.000 A 
ATOM      9  C   UNL     1       0.080  11.747  21.487  0.00  0.00    +0.000 A 
ENDROOT
BRANCH   7  10
ATOM     10  C   UNL     1       1.490   8.574  19.915  0.00  0.00    +0.000 A 
ATOM     11  C   UNL     1       1.790   7.315  20.461  0.00  0.00    +0.000 A 
ATOM     12  C   UNL     1       2.480   6.352  19.718  0.00  0.00    +0.000 A 
ATOM     13  C   UNL     1       2.874   6.615  18.402  0.00  0.00    +0.000 A 
ATOM     14  C   UNL     1       2.540   7.849  17.835  0.00  0.00    +0.000 A 
ATOM     15  C   UNL     1       1.857   8.814  18.583  0.00  0.00    +0.000 A 
BRANCH  13  16
ATOM     16  C   UNL     1       3.686   5.607  17.618  0.00  0.00    +0.000 C 
BRANCH  16  17
ATOM     17  N   UNL     1       3.932   4.339  18.327  0.00  0.00    +0.000 NA
ATOM     18  C   UNL     1       3.460   3.185  17.557  0.00  0.00    +0.000 C 
ATOM     19  C   UNL     1       5.366   4.200  18.591  0.00  0.00    +0.000 C 
ENDBRANCH  16  17
ENDBRANCH  13  16
ENDBRANCH   7  10
BRANCH   1  20
ATOM     20  N   UNL     1       0.407  14.195  20.890  0.00  0.00    +0.000 N 
ATOM     21  H   UNL     1       0.127  15.134  21.165  0.00  0.00    +0.000 HD
BRANCH  20  24
ATOM     22  C   UNL     1       3.016  14.990  22.029  0.00  0.00    +0.000 C 
ATOM     23  C   UNL     1       2.818  14.645  20.578  0.00  0.00    +0.000 A 
ATOM     24  C   UNL     1       1.568  14.198  20.083  0.00  0.00    +0.000 A 
ATOM     25  C   UNL     1       1.448  13.795  18.742  0.00  0.00    +0.000 A 
ATOM     26  C   UNL     1       2.529  13.835  17.853  0.00  0.00    +0.000 A 
ATOM     27  C   UNL     1       3.733  14.344  18.341  0.00  0.00    +0.000 A 
ATOM     28  N   UNL     1       4.940  14.536  17.703  0.00  0.00    +0.000 N 
ATOM     29  C   UNL     1       5.846  15.098  18.561  0.00  0.00    +0.000 A 
ATOM     30  C   UNL     1       5.231  15.239  19.783  0.00  0.00    +0.000 A 
ATOM     31  C   UNL     1       3.896  14.757  19.662  0.00  0.00    +0.000 A 
ATOM     32  H   UNL     1       5.121  14.307  16.736  0.00  0.00    +0.000 HD
ENDBRANCH  20  24
ENDBRANCH   1  20
BRANCH   2  33
ATOM     33  C   UNL     1      -1.470  14.830  22.943  0.00  0.00    +0.000 C 
ATOM     34  N   UNL     1      -1.745  15.939  23.148  0.00  0.00    +0.000 NA
ENDBRANCH   2  33
TORSDOF 6
ENDMDL
MODEL 7
REMARK VINA RESULT:      -7.2      2.709      9.287
REMARK  Name = 
REMARK  9 active torsions:
REMARK  status: ('A' for Active; 'I' for Inactive)
REMARK    1  A    between atoms: C_1  and  C_2
REMARK    2  A    between atoms: C_3  and  N_4
REMARK    3  A    between atoms: N_4  and  C_5
REMARK    4  A    between atoms: C_6  and  C_7
REMARK    5  A    between atoms: C_13  and  C_14
REMARK    6  A    between atoms: C_17  and  C_18
REMARK    7  A    between atoms: C_18  and  N_19
REMARK    8  A    between atoms: N_19  and  C_20
REMARK    9  A    between atoms: N_19  and  C_21
REMARK                            x       y       z     vdW  Elec       q    Type
REMARK                         _______ _______ _______ _____ _____    ______ ____
ROOT
ATOM      1  C   UNL     1       1.031   9.660  19.472  0.00  0.00    +0.000 A 
ATOM      2  C   UNL     1       0.303   9.656  20.681  0.00  0.00    +0.000 A 
ATOM      3  C   UNL     1       0.368   8.563  21.535  0.00  0.00    +0.000 A 
ATOM      4  N   UNL     1       1.080   7.449  21.309  0.00  0.00    +0.000 NA
ATOM      5  C   UNL     1       1.766   7.460  20.149  0.00  0.00    +0.000 A 
ATOM      6  S   UNL     1       2.685   6.101  19.710  0.00  0.00    +0.000 S 
ATOM      7  C   UNL     1       3.171   6.804  18.226  0.00  0.00    +0.000 A 
ATOM      8  C   UNL     1       2.683   8.097  18.133  0.00  0.00    +0.000 A 
ATOM      9  C   UNL     1       1.808   8.488  19.211  0.00  0.00    +0.000 A 
ENDROOT
BRANCH   7  10
ATOM     10  C   UNL     1       4.026   6.066  17.277  0.00  0.00    +0.000 A 
ATOM     11  C   UNL     1       4.797   6.720  16.302  0.00  0.00    +0.000 A 
ATOM     12  C   UNL     1       5.563   5.997  15.382  0.00  0.00    +0.000 A 
ATOM     13  C   UNL     1       5.594   4.600  15.423  0.00  0.00    +0.000 A 
ATOM     14  C   UNL     1       4.865   3.940  16.419  0.00  0.00    +0.000 A 
ATOM     15  C   UNL     1       4.093   4.666  17.332  0.00  0.00    +0.000 A 
BRANCH  13  16
ATOM     16  C   UNL     1       6.360   3.809  14.385  0.00  0.00    +0.000 C 
BRANCH  16  17
ATOM     17  N   UNL     1       6.175   4.280  13.002  0.00  0.00    +0.000 NA
ATOM     18  C   UNL     1       7.428   4.770  12.422  0.00  0.00    +0.000 C 
ATOM     19  C   UNL     1       5.649   3.185  12.182  0.00  0.00    +0.000 C 
ENDBRANCH  16  17
ENDBRANCH  13  16
ENDBRANCH   7  10
BRANCH   1  20
ATOM     20  N   UNL     1       0.863  10.760  18.575  0.00  0.00    +0.000 N 
ATOM     21  H   UNL     1       0.215  10.593  17.809  0.00  0.00    +0.000 HD
BRANCH  20  24
ATOM     22  C   UNL     1      -1.293  12.743  18.184  0.00  0.00    +0.000 C 
ATOM     23  C   UNL     1       0.125  13.119  18.521  0.00  0.00    +0.000 A 
ATOM     24  C   UNL     1       1.115  12.137  18.772  0.00  0.00    +0.000 A 
ATOM     25  C   UNL     1       2.403  12.528  19.176  0.00  0.00    +0.000 A 
ATOM     26  C   UNL     1       2.760  13.874  19.325  0.00  0.00    +0.000 A 
ATOM     27  C   UNL     1       1.792  14.827  19.005  0.00  0.00    +0.000 A 
ATOM     28  N   UNL     1       1.862  16.203  19.019  0.00  0.00    +0.000 N 
ATOM     29  C   UNL     1       0.678  16.742  18.592  0.00  0.00    +0.000 A 
ATOM     30  C   UNL     1      -0.184  15.703  18.333  0.00  0.00    +0.000 A 
ATOM     31  C   UNL     1       0.504  14.484  18.599  0.00  0.00    +0.000 A 
ATOM     32  H   UNL     1       2.676  16.735  19.292  0.00  0.00    +0.000 HD
ENDBRANCH  20  24
ENDBRANCH   1  20
BRANCH   2  33
ATOM     33  C   UNL     1      -0.520  10.758  21.070  0.00  0.00    +0.000 C 
ATOM     34  N   UNL     1      -1.162  11.671  21.386  0.00  0.00    +0.000 NA
ENDBRANCH   2  33
TORSDOF 6
ENDMDL
MODEL 8
REMARK VINA RESULT:      -7.2      3.915      9.656
REMARK  Name = 
REMARK  9 active torsions:
REMARK  status: ('A' for Active; 'I' for Inactive)
REMARK    1  A    between atoms: C_1  and  C_2
REMARK    2  A    between atoms: C_3  and  N_4
REMARK    3  A    between atoms: N_4  and  C_5
REMARK    4  A    between atoms: C_6  and  C_7
REMARK    5  A    between atoms: C_13  and  C_14
REMARK    6  A    between atoms: C_17  and  C_18
REMARK    7  A    between atoms: C_18  and  N_19
REMARK    8  A    between atoms: N_19  and  C_20
REMARK    9  A    between atoms: N_19  and  C_21
REMARK                            x       y       z     vdW  Elec       q    Type
REMARK                         _______ _______ _______ _____ _____    ______ ____
ROOT
ATOM      1  C   UNL     1      -1.735  12.026  20.957  0.00  0.00    +0.000 A 
ATOM      2  C   UNL     1      -2.265  12.456  22.193  0.00  0.00    +0.000 A 
ATOM      3  C   UNL     1      -1.842  11.871  23.379  0.00  0.00    +0.000 A 
ATOM      4  N   UNL     1      -0.945  10.879  23.472  0.00  0.00    +0.000 NA
ATOM      5  C   UNL     1      -0.450  10.471  22.287  0.00  0.00    +0.000 A 
ATOM      6  S   UNL     1       0.671   9.195  22.244  0.00  0.00    +0.000 S 
ATOM      7  C   UNL     1       0.775   9.232  20.536  0.00  0.00    +0.000 A 
ATOM      8  C   UNL     1       0.009  10.273  20.037  0.00  0.00    +0.000 A 
ATOM      9  C   UNL     1      -0.767  10.976  21.028  0.00  0.00    +0.000 A 
ENDROOT
BRANCH   7  10
ATOM     10  C   UNL     1       1.626   8.274  19.803  0.00  0.00    +0.000 A 
ATOM     11  C   UNL     1       2.164   8.568  18.540  0.00  0.00    +0.000 A 
ATOM     12  C   UNL     1       2.929   7.626  17.844  0.00  0.00    +0.000 A 
ATOM     13  C   UNL     1       3.192   6.371  18.400  0.00  0.00    +0.000 A 
ATOM     14  C   UNL     1       2.698   6.085  19.678  0.00  0.00    +0.000 A 
ATOM     15  C   UNL     1       1.927   7.026  20.368  0.00  0.00    +0.000 A 
BRANCH  13  16
ATOM     16  C   UNL     1       3.954   5.320  17.622  0.00  0.00    +0.000 C 
BRANCH  16  17
ATOM     17  N   UNL     1       5.298   5.740  17.188  0.00  0.00    +0.000 NA
ATOM     18  C   UNL     1       6.350   4.962  17.847  0.00  0.00    +0.000 C 
ATOM     19  C   UNL     1       5.410   5.585  15.735  0.00  0.00    +0.000 C 
ENDBRANCH  16  17
ENDBRANCH  13  16
ENDBRANCH   7  10
BRANCH   1  20
ATOM     20  N   UNL     1      -2.264  12.585  19.754  0.00  0.00    +0.000 N 
ATOM     21  H   UNL     1      -1.884  13.494  19.500  0.00  0.00    +0.000 HD
BRANCH  20  24
ATOM     22  C   UNL     1      -0.677  11.522  17.497  0.00  0.00    +0.000 C 
ATOM     23  C   UNL     1      -2.181  11.497  17.534  0.00  0.00    +0.000 A 
ATOM     24  C   UNL     1      -2.905  11.951  18.664  0.00  0.00    +0.000 A 
ATOM     25  C   UNL     1      -4.305  11.823  18.697  0.00  0.00    +0.000 A 
ATOM     26  C   UNL     1      -5.028  11.274  17.632  0.00  0.00    +0.000 A 
ATOM     27  C   UNL     1      -4.303  10.898  16.500  0.00  0.00    +0.000 A 
ATOM     28  N   UNL     1      -4.736  10.371  15.303  0.00  0.00    +0.000 N 
ATOM     29  C   UNL     1      -3.677  10.186  14.455  0.00  0.00    +0.000 A 
ATOM     30  C   UNL     1      -2.537  10.565  15.124  0.00  0.00    +0.000 A 
ATOM     31  C   UNL     1      -2.916  11.009  16.423  0.00  0.00    +0.000 A 
ATOM     32  H   UNL     1      -5.700  10.164  15.080  0.00  0.00    +0.000 HD
ENDBRANCH  20  24
ENDBRANCH   1  20
BRANCH   2  33
ATOM     33  C   UNL     1      -3.244  13.494  22.274  0.00  0.00    +0.000 C 
ATOM     34  N   UNL     1      -4.057  14.321  22.319  0.00  0.00    +0.000 NA
ENDBRANCH   2  33
TORSDOF 6
ENDMDL
MODEL 9
REMARK VINA RESULT:      -7.1      2.793      9.391
REMARK  Name = 
REMARK  9 active torsions:
REMARK  status: ('A' for Active; 'I' for Inactive)
REMARK    1  A    between atoms: C_1  and  C_2
REMARK    2  A    between atoms: C_3  and  N_4
REMARK    3  A    between atoms: N_4  and  C_5
REMARK    4  A    between atoms: C_6  and  C_7
REMARK    5  A    between atoms: C_13  and  C_14
REMARK    6  A    between atoms: C_17  and  C_18
REMARK    7  A    between atoms: C_18  and  N_19
REMARK    8  A    between atoms: N_19  and  C_20
REMARK    9  A    between atoms: N_19  and  C_21
REMARK                            x       y       z     vdW  Elec       q    Type
REMARK                         _______ _______ _______ _____ _____    ______ ____
ROOT
ATOM      1  C   UNL     1      -0.087  13.099  21.743  0.00  0.00    +0.000 A 
ATOM      2  C   UNL     1      -1.066  13.376  22.721  0.00  0.00    +0.000 A 
ATOM      3  C   UNL     1      -1.714  12.338  23.377  0.00  0.00    +0.000 A 
ATOM      4  N   UNL     1      -1.501  11.033  23.155  0.00  0.00    +0.000 NA
ATOM      5  C   UNL     1      -0.570  10.779  22.215  0.00  0.00    +0.000 A 
ATOM      6  S   UNL     1      -0.218   9.170  21.801  0.00  0.00    +0.000 S 
ATOM      7  C   UNL     1       0.924   9.636  20.613  0.00  0.00    +0.000 A 
ATOM      8  C   UNL     1       1.071  11.014  20.613  0.00  0.00    +0.000 A 
ATOM      9  C   UNL     1       0.168  11.714  21.494  0.00  0.00    +0.000 A 
ENDROOT
BRANCH   7  10
ATOM     10  C   UNL     1       1.627   8.629  19.795  0.00  0.00    +0.000 A 
ATOM     11  C   UNL     1       1.953   7.358  20.294  0.00  0.00    +0.000 A 
ATOM     12  C   UNL     1       2.662   6.437  19.516  0.00  0.00    +0.000 A 
ATOM     13  C   UNL     1       3.048   6.755  18.210  0.00  0.00    +0.000 A 
ATOM     14  C   UNL     1       2.688   8.003  17.689  0.00  0.00    +0.000 A 
ATOM     15  C   UNL     1       1.987   8.925  18.472  0.00  0.00    +0.000 A 
BRANCH  13  16
ATOM     16  C   UNL     1       3.880   5.793  17.390  0.00  0.00    +0.000 C 
BRANCH  16  17
ATOM     17  N   UNL     1       4.964   6.429  16.620  0.00  0.00    +0.000 NA
ATOM     18  C   UNL     1       6.144   6.683  17.451  0.00  0.00    +0.000 C 
ATOM     19  C   UNL     1       5.332   5.565  15.495  0.00  0.00    +0.000 C 
ENDBRANCH  16  17
ENDBRANCH  13  16
ENDBRANCH   7  10
BRANCH   1  20
ATOM     20  N   UNL     1       0.488  14.190  21.021  0.00  0.00    +0.000 N 
ATOM     21  H   UNL     1       0.252  15.112  21.380  0.00  0.00    +0.000 HD
BRANCH  20  24
ATOM     22  C   UNL     1       3.142  14.943  22.082  0.00  0.00    +0.000 C 
ATOM     23  C   UNL     1       2.886  14.648  20.628  0.00  0.00    +0.000 A 
ATOM     24  C   UNL     1       1.616  14.220  20.169  0.00  0.00    +0.000 A 
ATOM     25  C   UNL     1       1.442  13.864  18.820  0.00  0.00    +0.000 A 
ATOM     26  C   UNL     1       2.486  13.933  17.891  0.00  0.00    +0.000 A 
ATOM     27  C   UNL     1       3.711  14.424  18.348  0.00  0.00    +0.000 A 
ATOM     28  N   UNL     1       4.891  14.637  17.669  0.00  0.00    +0.000 N 
ATOM     29  C   UNL     1       5.832  15.168  18.510  0.00  0.00    +0.000 A 
ATOM     30  C   UNL     1       5.267  15.267  19.759  0.00  0.00    +0.000 A 
ATOM     31  C   UNL     1       3.926  14.791  19.675  0.00  0.00    +0.000 A 
ATOM     32  H   UNL     1       5.034  14.442  16.689  0.00  0.00    +0.000 HD
ENDBRANCH  20  24
ENDBRANCH   1  20
BRANCH   2  33
ATOM     33  C   UNL     1      -1.427  14.714  23.070  0.00  0.00    +0.000 C 
ATOM     34  N   UNL     1      -1.705  15.796  23.381  0.00  0.00    +0.000 NA
ENDBRANCH   2  33
TORSDOF 6
ENDMDL
