MODEL 1
REMARK VINA RESULT:      -7.7      0.000      0.000
REMARK  Name = 
REMARK  4 active torsions:
REMARK  status: ('A' for Active; 'I' for Inactive)
REMARK    1  A    between atoms: C_9  and  O_10
REMARK    2  A    between atoms: O_10  and  C_11
REMARK    3  A    between atoms: C_16  and  C_18
REMARK    4  A    between atoms: C_18  and  C_19
REMARK                            x       y       z     vdW  Elec       q    Type
REMARK                         _______ _______ _______ _____ _____    ______ ____
ROOT
ATOM      1  C   UNL     1      -0.443  10.568  21.400  0.00  0.00    +0.000 A 
ATOM      2  N   UNL     1       0.024  10.841  20.201  0.00  0.00    +0.000 NA
ATOM      3  N   UNL     1       0.879   9.858  19.748  0.00  0.00    +0.000 NA
ATOM      4  C   UNL     1       1.023   8.891  20.623  0.00  0.00    +0.000 A 
ATOM      5  N   UNL     1       1.800   7.761  20.550  0.00  0.00    +0.000 N 
ATOM      6  C   UNL     1       2.387   7.400  19.356  0.00  0.00    +0.000 C 
ATOM      7  O   UNL     1       2.265   8.002  18.286  0.00  0.00    +0.000 OA
ATOM      8  S   UNL     1       0.113   9.081  22.054  0.00  0.00    +0.000 S 
ATOM      9  H   UNL     1       1.835   7.157  21.357  0.00  0.00    +0.000 HD
ENDROOT
BRANCH   1  10
ATOM     10  O   UNL     1      -1.234  11.388  22.097  0.00  0.00    +0.000 OA
BRANCH  10  19
ATOM     11  N   UNL     1      -5.544  18.160  24.892  0.00  0.00    +0.000 N 
ATOM     12  C   UNL     1      -5.223  16.922  24.475  0.00  0.00    +0.000 A 
ATOM     13  N   UNL     1      -6.089  15.994  24.147  0.00  0.00    +0.000 NA
ATOM     14  N   UNL     1      -5.474  14.847  23.683  0.00  0.00    +0.000 NA
ATOM     15  C   UNL     1      -4.157  14.907  23.719  0.00  0.00    +0.000 A 
ATOM     16  N   UNL     1      -3.318  13.930  23.268  0.00  0.00    +0.000 N 
ATOM     17  C   UNL     1      -1.974  13.730  23.785  0.00  0.00    +0.000 C 
ATOM     18  C   UNL     1      -0.996  13.772  22.617  0.00  0.00    +0.000 C 
ATOM     19  C   UNL     1      -1.368  12.717  21.559  0.00  0.00    +0.000 C 
ATOM     20  C   UNL     1      -2.829  12.909  21.117  0.00  0.00    +0.000 C 
ATOM     21  C   UNL     1      -3.792  12.936  22.312  0.00  0.00    +0.000 C 
ATOM     22  S   UNL     1      -3.594  16.427  24.335  0.00  0.00    +0.000 S 
ATOM     23  H   UNL     1      -6.499  18.323  25.193  0.00  0.00    +0.000 HD
ATOM     24  H   UNL     1      -4.839  18.745  25.323  0.00  0.00    +0.000 HD
ENDBRANCH  10  19
ENDBRANCH   1  10
BRANCH   6  25
ATOM     25  C   UNL     1       3.204   6.124  19.417  0.00  0.00    +0.000 C 
BRANCH  25  26
ATOM     26  C   UNL     1       2.336   4.891  19.466  0.00  0.00    +0.000 A 
ATOM     27  C   UNL     1       1.954   4.335  20.697  0.00  0.00    +0.000 A 
ATOM     28  C   UNL     1       1.210   3.155  20.742  0.00  0.00    +0.000 A 
ATOM     29  C   UNL     1       0.826   2.530  19.558  0.00  0.00    +0.000 A 
ATOM     30  C   UNL     1       1.165   3.096  18.331  0.00  0.00    +0.000 A 
ATOM     31  C   UNL     1       1.911   4.275  18.282  0.00  0.00    +0.000 A 
ENDBRANCH  25  26
ENDBRANCH   6  25
TORSDOF 4
ENDMDL
MODEL 2
REMARK VINA RESULT:      -7.4      1.269      1.755
REMARK  Name = 
REMARK  4 active torsions:
REMARK  status: ('A' for Active; 'I' for Inactive)
REMARK    1  A    between atoms: C_9  and  O_10
REMARK    2  A    between atoms: O_10  and  C_11
REMARK    3  A    between atoms: C_16  and  C_18
REMARK    4  A    between atoms: C_18  and  C_19
REMARK                            x       y       z     vdW  Elec       q    Type
REMARK                         _______ _______ _______ _____ _____    ______ ____
ROOT
ATOM      1  C   UNL     1      -0.282  10.426  20.516  0.00  0.00    +0.000 A 
ATOM      2  N   UNL     1       0.367  10.528  19.376  0.00  0.00    +0.000 NA
ATOM      3  N   UNL     1       1.244   9.480  19.191  0.00  0.00    +0.000 NA
ATOM      4  C   UNL     1       1.224   8.638  20.197  0.00  0.00    +0.000 A 
ATOM      5  N   UNL     1       1.964   7.498  20.392  0.00  0.00    +0.000 N 
ATOM      6  C   UNL     1       2.708   6.970  19.359  0.00  0.00    +0.000 C 
ATOM      7  O   UNL     1       2.767   7.424  18.212  0.00  0.00    +0.000 OA
ATOM      8  S   UNL     1       0.119   9.033  21.436  0.00  0.00    +0.000 S 
ATOM      9  H   UNL     1       1.859   7.009  21.267  0.00  0.00    +0.000 HD
ENDROOT
BRANCH   1  10
ATOM     10  O   UNL     1      -1.139  11.344  20.970  0.00  0.00    +0.000 OA
BRANCH  10  19
ATOM     11  N   UNL     1      -4.534  17.805  25.326  0.00  0.00    +0.000 N 
ATOM     12  C   UNL     1      -3.942  17.071  24.368  0.00  0.00    +0.000 A 
ATOM     13  N   UNL     1      -3.333  17.563  23.315  0.00  0.00    +0.000 NA
ATOM     14  N   UNL     1      -2.751  16.578  22.540  0.00  0.00    +0.000 NA
ATOM     15  C   UNL     1      -2.976  15.358  22.989  0.00  0.00    +0.000 A 
ATOM     16  N   UNL     1      -2.469  14.218  22.437  0.00  0.00    +0.000 N 
ATOM     17  C   UNL     1      -3.117  12.921  22.547  0.00  0.00    +0.000 C 
ATOM     18  C   UNL     1      -2.120  11.932  23.139  0.00  0.00    +0.000 C 
ATOM     19  C   UNL     1      -0.844  11.866  22.280  0.00  0.00    +0.000 C 
ATOM     20  C   UNL     1      -0.253  13.276  22.110  0.00  0.00    +0.000 C 
ATOM     21  C   UNL     1      -1.290  14.275  21.581  0.00  0.00    +0.000 C 
ATOM     22  S   UNL     1      -3.934  15.364  24.434  0.00  0.00    +0.000 S 
ATOM     23  H   UNL     1      -4.727  18.780  25.121  0.00  0.00    +0.000 HD
ATOM     24  H   UNL     1      -5.157  17.361  25.989  0.00  0.00    +0.000 HD
ENDBRANCH  10  19
ENDBRANCH   1  10
BRANCH   6  25
ATOM     25  C   UNL     1       3.463   5.703  19.710  0.00  0.00    +0.000 C 
BRANCH  25  26
ATOM     26  C   UNL     1       2.679   4.459  19.373  0.00  0.00    +0.000 A 
ATOM     27  C   UNL     1       3.052   3.651  18.287  0.00  0.00    +0.000 A 
ATOM     28  C   UNL     1       2.286   2.540  17.933  0.00  0.00    +0.000 A 
ATOM     29  C   UNL     1       1.151   2.215  18.671  0.00  0.00    +0.000 A 
ATOM     30  C   UNL     1       0.795   2.986  19.776  0.00  0.00    +0.000 A 
ATOM     31  C   UNL     1       1.558   4.099  20.132  0.00  0.00    +0.000 A 
ENDBRANCH  25  26
ENDBRANCH   6  25
TORSDOF 4
ENDMDL
MODEL 3
REMARK VINA RESULT:      -7.4      3.627     11.370
REMARK  Name = 
REMARK  4 active torsions:
REMARK  status: ('A' for Active; 'I' for Inactive)
REMARK    1  A    between atoms: C_9  and  O_10
REMARK    2  A    between atoms: O_10  and  C_11
REMARK    3  A    between atoms: C_16  and  C_18
REMARK    4  A    between atoms: C_18  and  C_19
REMARK                            x       y       z     vdW  Elec       q    Type
REMARK                         _______ _______ _______ _____ _____    ______ ____
ROOT
ATOM      1  C   UNL     1       1.349   8.635  20.811  0.00  0.00    +0.000 A 
ATOM      2  N   UNL     1       0.899   8.519  22.042  0.00  0.00    +0.000 NA
ATOM      3  N   UNL     1       0.065   9.562  22.383  0.00  0.00    +0.000 NA
ATOM      4  C   UNL     1      -0.075  10.421  21.401  0.00  0.00    +0.000 A 
ATOM      5  N   UNL     1      -0.796  11.589  21.364  0.00  0.00    +0.000 N 
ATOM      6  C   UNL     1      -1.690  11.884  22.371  0.00  0.00    +0.000 C 
ATOM      7  O   UNL     1      -1.940  11.163  23.341  0.00  0.00    +0.000 OA
ATOM      8  S   UNL     1       0.770  10.019  19.975  0.00  0.00    +0.000 S 
ATOM      9  H   UNL     1      -0.731  12.159  20.535  0.00  0.00    +0.000 HD
ENDROOT
BRANCH   1  10
ATOM     10  O   UNL     1       2.228   7.797  20.256  0.00  0.00    +0.000 OA
BRANCH  10  19
ATOM     11  N   UNL     1       6.311   3.507  14.160  0.00  0.00    +0.000 N 
ATOM     12  C   UNL     1       5.899   4.479  14.992  0.00  0.00    +0.000 A 
ATOM     13  N   UNL     1       6.185   5.752  14.857  0.00  0.00    +0.000 NA
ATOM     14  N   UNL     1       5.564   6.531  15.815  0.00  0.00    +0.000 NA
ATOM     15  C   UNL     1       4.866   5.830  16.688  0.00  0.00    +0.000 A 
ATOM     16  N   UNL     1       4.118   6.363  17.697  0.00  0.00    +0.000 N 
ATOM     17  C   UNL     1       3.828   5.657  18.935  0.00  0.00    +0.000 C 
ATOM     18  C   UNL     1       2.317   5.622  19.128  0.00  0.00    +0.000 C 
ATOM     19  C   UNL     1       1.735   7.047  19.130  0.00  0.00    +0.000 C 
ATOM     20  C   UNL     1       2.153   7.786  17.846  0.00  0.00    +0.000 C 
ATOM     21  C   UNL     1       3.672   7.750  17.630  0.00  0.00    +0.000 C 
ATOM     22  S   UNL     1       4.933   4.129  16.358  0.00  0.00    +0.000 S 
ATOM     23  H   UNL     1       7.071   3.722  13.523  0.00  0.00    +0.000 HD
ATOM     24  H   UNL     1       6.230   2.537  14.439  0.00  0.00    +0.000 HD
ENDBRANCH  10  19
ENDBRANCH   1  10
BRANCH   6  25
ATOM     25  C   UNL     1      -2.428  13.197  22.194  0.00  0.00    +0.000 C 
BRANCH  25  26
ATOM     26  C   UNL     1      -3.919  13.042  22.361  0.00  0.00    +0.000 A 
ATOM     27  C   UNL     1      -4.511  13.154  23.629  0.00  0.00    +0.000 A 
ATOM     28  C   UNL     1      -5.880  12.941  23.795  0.00  0.00    +0.000 A 
ATOM     29  C   UNL     1      -6.673  12.633  22.693  0.00  0.00    +0.000 A 
ATOM     30  C   UNL     1      -6.103  12.561  21.423  0.00  0.00    +0.000 A 
ATOM     31  C   UNL     1      -4.733  12.771  21.255  0.00  0.00    +0.000 A 
ENDBRANCH  25  26
ENDBRANCH   6  25
TORSDOF 4
ENDMDL
MODEL 4
REMARK VINA RESULT:      -7.4      3.635      4.944
REMARK  Name = 
REMARK  4 active torsions:
REMARK  status: ('A' for Active; 'I' for Inactive)
REMARK    1  A    between atoms: C_9  and  O_10
REMARK    2  A    between atoms: O_10  and  C_11
REMARK    3  A    between atoms: C_16  and  C_18
REMARK    4  A    between atoms: C_18  and  C_19
REMARK                            x       y       z     vdW  Elec       q    Type
REMARK                         _______ _______ _______ _____ _____    ______ ____
ROOT
ATOM      1  C   UNL     1       1.538   8.713  19.833  0.00  0.00    +0.000 A 
ATOM      2  N   UNL     1       1.526   7.736  20.714  0.00  0.00    +0.000 NA
ATOM      3  N   UNL     1       1.985   6.553  20.173  0.00  0.00    +0.000 NA
ATOM      4  C   UNL     1       2.317   6.686  18.911  0.00  0.00    +0.000 A 
ATOM      5  N   UNL     1       2.787   5.741  18.032  0.00  0.00    +0.000 N 
ATOM      6  C   UNL     1       3.191   4.507  18.493  0.00  0.00    +0.000 C 
ATOM      7  O   UNL     1       3.196   4.148  19.674  0.00  0.00    +0.000 OA
ATOM      8  S   UNL     1       2.128   8.262  18.285  0.00  0.00    +0.000 S 
ATOM      9  H   UNL     1       2.927   6.016  17.072  0.00  0.00    +0.000 HD
ENDROOT
BRANCH   1  10
ATOM     10  O   UNL     1       1.080   9.944  20.077  0.00  0.00    +0.000 OA
BRANCH  10  19
ATOM     11  N   UNL     1      -1.366  18.033  19.170  0.00  0.00    +0.000 N 
ATOM     12  C   UNL     1      -1.271  16.757  19.585  0.00  0.00    +0.000 A 
ATOM     13  N   UNL     1      -2.156  16.144  20.332  0.00  0.00    +0.000 NA
ATOM     14  N   UNL     1      -1.836  14.816  20.539  0.00  0.00    +0.000 NA
ATOM     15  C   UNL     1      -0.690  14.462  19.990  0.00  0.00    +0.000 A 
ATOM     16  N   UNL     1      -0.175  13.199  20.003  0.00  0.00    +0.000 N 
ATOM     17  C   UNL     1       1.249  12.915  19.922  0.00  0.00    +0.000 C 
ATOM     18  C   UNL     1       1.486  11.966  18.753  0.00  0.00    +0.000 C 
ATOM     19  C   UNL     1       0.653  10.682  18.917  0.00  0.00    +0.000 C 
ATOM     20  C   UNL     1      -0.832  11.040  19.100  0.00  0.00    +0.000 C 
ATOM     21  C   UNL     1      -1.045  12.052  20.234  0.00  0.00    +0.000 C 
ATOM     22  S   UNL     1       0.068  15.783  19.162  0.00  0.00    +0.000 S 
ATOM     23  H   UNL     1      -2.035  18.632  19.641  0.00  0.00    +0.000 HD
ATOM     24  H   UNL     1      -0.556  18.497  18.778  0.00  0.00    +0.000 HD
ENDBRANCH  10  19
ENDBRANCH   1  10
BRANCH   6  25
ATOM     25  C   UNL     1       3.701   3.568  17.415  0.00  0.00    +0.000 C 
BRANCH  25  26
ATOM     26  C   UNL     1       4.956   4.084  16.756  0.00  0.00    +0.000 A 
ATOM     27  C   UNL     1       4.990   4.323  15.373  0.00  0.00    +0.000 A 
ATOM     28  C   UNL     1       6.171   4.732  14.753  0.00  0.00    +0.000 A 
ATOM     29  C   UNL     1       7.324   4.924  15.511  0.00  0.00    +0.000 A 
ATOM     30  C   UNL     1       7.289   4.730  16.891  0.00  0.00    +0.000 A 
ATOM     31  C   UNL     1       6.110   4.318  17.514  0.00  0.00    +0.000 A 
ENDBRANCH  25  26
ENDBRANCH   6  25
TORSDOF 4
ENDMDL
MODEL 5
REMARK VINA RESULT:      -7.3      4.001      5.186
REMARK  Name = 
REMARK  4 active torsions:
REMARK  status: ('A' for Active; 'I' for Inactive)
REMARK    1  A    between atoms: C_9  and  O_10
REMARK    2  A    between atoms: O_10  and  C_11
REMARK    3  A    between atoms: C_16  and  C_18
REMARK    4  A    between atoms: C_18  and  C_19
REMARK                            x       y       z     vdW  Elec       q    Type
REMARK                         _______ _______ _______ _____ _____    ______ ____
ROOT
ATOM      1  C   UNL     1       1.505   9.034  19.723  0.00  0.00    +0.000 A 
ATOM      2  N   UNL     1       1.569   8.148  20.693  0.00  0.00    +0.000 NA
ATOM      3  N   UNL     1       2.034   6.930  20.245  0.00  0.00    +0.000 NA
ATOM      4  C   UNL     1       2.296   6.946  18.960  0.00  0.00    +0.000 A 
ATOM      5  N   UNL     1       2.748   5.932  18.152  0.00  0.00    +0.000 N 
ATOM      6  C   UNL     1       3.212   4.759  18.706  0.00  0.00    +0.000 C 
ATOM      7  O   UNL     1       3.289   4.518  19.915  0.00  0.00    +0.000 OA
ATOM      8  S   UNL     1       2.028   8.448  18.195  0.00  0.00    +0.000 S 
ATOM      9  H   UNL     1       2.830   6.115  17.163  0.00  0.00    +0.000 HD
ENDROOT
BRANCH   1  10
ATOM     10  O   UNL     1       1.024  10.271  19.872  0.00  0.00    +0.000 OA
BRANCH  10  19
ATOM     11  N   UNL     1       0.171  18.627  18.569  0.00  0.00    +0.000 N 
ATOM     12  C   UNL     1      -0.017  17.367  18.999  0.00  0.00    +0.000 A 
ATOM     13  N   UNL     1      -1.096  16.936  19.607  0.00  0.00    +0.000 NA
ATOM     14  N   UNL     1      -1.044  15.579  19.865  0.00  0.00    +0.000 NA
ATOM     15  C   UNL     1       0.093  15.020  19.498  0.00  0.00    +0.000 A 
ATOM     16  N   UNL     1       0.374  13.688  19.594  0.00  0.00    +0.000 N 
ATOM     17  C   UNL     1       1.724  13.165  19.731  0.00  0.00    +0.000 C 
ATOM     18  C   UNL     1       1.965  12.154  18.616  0.00  0.00    +0.000 C 
ATOM     19  C   UNL     1       0.908  11.036  18.657  0.00  0.00    +0.000 C 
ATOM     20  C   UNL     1      -0.504  11.646  18.611  0.00  0.00    +0.000 C 
ATOM     21  C   UNL     1      -0.705  12.713  19.695  0.00  0.00    +0.000 C 
ATOM     22  S   UNL     1       1.181  16.167  18.788  0.00  0.00    +0.000 S 
ATOM     23  H   UNL     1      -0.446  19.345  18.932  0.00  0.00    +0.000 HD
ATOM     24  H   UNL     1       1.098  18.935  18.302  0.00  0.00    +0.000 HD
ENDBRANCH  10  19
ENDBRANCH   1  10
BRANCH   6  25
ATOM     25  C   UNL     1       3.693   3.733  17.698  0.00  0.00    +0.000 C 
BRANCH  25  26
ATOM     26  C   UNL     1       4.968   4.158  17.014  0.00  0.00    +0.000 A 
ATOM     27  C   UNL     1       6.116   4.458  17.764  0.00  0.00    +0.000 A 
ATOM     28  C   UNL     1       7.273   4.919  17.136  0.00  0.00    +0.000 A 
ATOM     29  C   UNL     1       7.301   5.068  15.751  0.00  0.00    +0.000 A 
ATOM     30  C   UNL     1       6.180   4.733  14.994  0.00  0.00    +0.000 A 
ATOM     31  C   UNL     1       5.020   4.274  15.619  0.00  0.00    +0.000 A 
ENDBRANCH  25  26
ENDBRANCH   6  25
TORSDOF 4
ENDMDL
MODEL 6
REMARK VINA RESULT:      -7.3      1.331      1.523
REMARK  Name = 
REMARK  4 active torsions:
REMARK  status: ('A' for Active; 'I' for Inactive)
REMARK    1  A    between atoms: C_9  and  O_10
REMARK    2  A    between atoms: O_10  and  C_11
REMARK    3  A    between atoms: C_16  and  C_18
REMARK    4  A    between atoms: C_18  and  C_19
REMARK                            x       y       z     vdW  Elec       q    Type
REMARK                         _______ _______ _______ _____ _____    ______ ____
ROOT
ATOM      1  C   UNL     1      -0.114  10.178  20.257  0.00  0.00    +0.000 A 
ATOM      2  N   UNL     1       0.529  10.225  19.111  0.00  0.00    +0.000 NA
ATOM      3  N   UNL     1       1.415   9.178  18.977  0.00  0.00    +0.000 NA
ATOM      4  C   UNL     1       1.407   8.390  20.026  0.00  0.00    +0.000 A 
ATOM      5  N   UNL     1       2.159   7.269  20.277  0.00  0.00    +0.000 N 
ATOM      6  C   UNL     1       2.904   6.694  19.269  0.00  0.00    +0.000 C 
ATOM      7  O   UNL     1       2.954   7.088  18.100  0.00  0.00    +0.000 OA
ATOM      8  S   UNL     1       0.304   8.839  21.248  0.00  0.00    +0.000 S 
ATOM      9  H   UNL     1       2.062   6.825  21.177  0.00  0.00    +0.000 HD
ENDROOT
BRANCH   1  10
ATOM     10  O   UNL     1      -0.979  11.110  20.667  0.00  0.00    +0.000 OA
BRANCH  10  19
ATOM     11  N   UNL     1      -4.883  17.075  25.296  0.00  0.00    +0.000 N 
ATOM     12  C   UNL     1      -4.426  16.341  24.265  0.00  0.00    +0.000 A 
ATOM     13  N   UNL     1      -4.467  16.709  23.007  0.00  0.00    +0.000 NA
ATOM     14  N   UNL     1      -3.856  15.791  22.175  0.00  0.00    +0.000 NA
ATOM     15  C   UNL     1      -3.412  14.722  22.809  0.00  0.00    +0.000 A 
ATOM     16  N   UNL     1      -2.726  13.697  22.226  0.00  0.00    +0.000 N 
ATOM     17  C   UNL     1      -2.731  12.337  22.742  0.00  0.00    +0.000 C 
ATOM     18  C   UNL     1      -1.288  11.901  22.966  0.00  0.00    +0.000 C 
ATOM     19  C   UNL     1      -0.475  12.019  21.664  0.00  0.00    +0.000 C 
ATOM     20  C   UNL     1      -0.584  13.448  21.106  0.00  0.00    +0.000 C 
ATOM     21  C   UNL     1      -2.043  13.898  20.954  0.00  0.00    +0.000 C 
ATOM     22  S   UNL     1      -3.726  14.802  24.512  0.00  0.00    +0.000 S 
ATOM     23  H   UNL     1      -5.501  17.850  25.083  0.00  0.00    +0.000 HD
ATOM     24  H   UNL     1      -5.009  16.645  26.204  0.00  0.00    +0.000 HD
ENDBRANCH  10  19
ENDBRANCH   1  10
BRANCH   6  25
ATOM     25  C   UNL     1       3.673   5.454  19.683  0.00  0.00    +0.000 C 
BRANCH  25  26
ATOM     26  C   UNL     1       2.951   4.183  19.308  0.00  0.00    +0.000 A 
ATOM     27  C   UNL     1       1.611   3.987  19.676  0.00  0.00    +0.000 A 
ATOM     28  C   UNL     1       0.965   2.784  19.390  0.00  0.00    +0.000 A 
ATOM     29  C   UNL     1       1.647   1.772  18.719  0.00  0.00    +0.000 A 
ATOM     30  C   UNL     1       2.965   1.972  18.312  0.00  0.00    +0.000 A 
ATOM     31  C   UNL     1       3.614   3.174  18.598  0.00  0.00    +0.000 A 
ENDBRANCH  25  26
ENDBRANCH   6  25
TORSDOF 4
ENDMDL
MODEL 7
REMARK VINA RESULT:      -7.3      2.171      2.947
REMARK  Name = 
REMARK  4 active torsions:
REMARK  status: ('A' for Active; 'I' for Inactive)
REMARK    1  A    between atoms: C_9  and  O_10
REMARK    2  A    between atoms: O_10  and  C_11
REMARK    3  A    between atoms: C_16  and  C_18
REMARK    4  A    between atoms: C_18  and  C_19
REMARK                            x       y       z     vdW  Elec       q    Type
REMARK                         _______ _______ _______ _____ _____    ______ ____
ROOT
ATOM      1  C   UNL     1      -0.041   9.817  20.269  0.00  0.00    +0.000 A 
ATOM      2  N   UNL     1       0.655   9.971  19.164  0.00  0.00    +0.000 NA
ATOM      3  N   UNL     1       1.590   8.971  19.003  0.00  0.00    +0.000 NA
ATOM      4  C   UNL     1       1.564   8.110  19.992  0.00  0.00    +0.000 A 
ATOM      5  N   UNL     1       2.349   7.003  20.203  0.00  0.00    +0.000 N 
ATOM      6  C   UNL     1       3.165   6.532  19.197  0.00  0.00    +0.000 C 
ATOM      7  O   UNL     1       3.256   7.010  18.063  0.00  0.00    +0.000 OA
ATOM      8  S   UNL     1       0.384   8.427  21.183  0.00  0.00    +0.000 S 
ATOM      9  H   UNL     1       2.226   6.492  21.063  0.00  0.00    +0.000 HD
ENDROOT
BRANCH   1  10
ATOM     10  O   UNL     1      -0.963  10.683  20.698  0.00  0.00    +0.000 OA
BRANCH  10  19
ATOM     11  N   UNL     1      -4.881  16.779  25.140  0.00  0.00    +0.000 N 
ATOM     12  C   UNL     1      -4.520  15.933  24.159  0.00  0.00    +0.000 A 
ATOM     13  N   UNL     1      -4.905  16.027  22.909  0.00  0.00    +0.000 NA
ATOM     14  N   UNL     1      -4.318  15.066  22.108  0.00  0.00    +0.000 NA
ATOM     15  C   UNL     1      -3.544  14.231  22.774  0.00  0.00    +0.000 A 
ATOM     16  N   UNL     1      -2.810  13.228  22.209  0.00  0.00    +0.000 N 
ATOM     17  C   UNL     1      -2.433  12.017  22.921  0.00  0.00    +0.000 C 
ATOM     18  C   UNL     1      -0.919  11.865  22.845  0.00  0.00    +0.000 C 
ATOM     19  C   UNL     1      -0.447  11.842  21.380  0.00  0.00    +0.000 C 
ATOM     20  C   UNL     1      -0.955  13.094  20.645  0.00  0.00    +0.000 C 
ATOM     21  C   UNL     1      -2.472  13.271  20.792  0.00  0.00    +0.000 C 
ATOM     22  S   UNL     1      -3.492  14.603  24.466  0.00  0.00    +0.000 S 
ATOM     23  H   UNL     1      -5.672  17.390  24.968  0.00  0.00    +0.000 HD
ATOM     24  H   UNL     1      -4.719  16.527  26.107  0.00  0.00    +0.000 HD
ENDBRANCH  10  19
ENDBRANCH   1  10
BRANCH   6  25
ATOM     25  C   UNL     1       3.964   5.295  19.562  0.00  0.00    +0.000 C 
BRANCH  25  26
ATOM     26  C   UNL     1       5.142   5.084  18.643  0.00  0.00    +0.000 A 
ATOM     27  C   UNL     1       4.974   4.453  17.400  0.00  0.00    +0.000 A 
ATOM     28  C   UNL     1       6.074   4.195  16.582  0.00  0.00    +0.000 A 
ATOM     29  C   UNL     1       7.349   4.581  16.988  0.00  0.00    +0.000 A 
ATOM     30  C   UNL     1       7.521   5.245  18.201  0.00  0.00    +0.000 A 
ATOM     31  C   UNL     1       6.423   5.502  19.024  0.00  0.00    +0.000 A 
ENDBRANCH  25  26
ENDBRANCH   6  25
TORSDOF 4
ENDMDL
MODEL 8
REMARK VINA RESULT:      -7.3      3.036      4.381
REMARK  Name = 
REMARK  4 active torsions:
REMARK  status: ('A' for Active; 'I' for Inactive)
REMARK    1  A    between atoms: C_9  and  O_10
REMARK    2  A    between atoms: O_10  and  C_11
REMARK    3  A    between atoms: C_16  and  C_18
REMARK    4  A    between atoms: C_18  and  C_19
REMARK                            x       y       z     vdW  Elec       q    Type
REMARK                         _______ _______ _______ _____ _____    ______ ____
ROOT
ATOM      1  C   UNL     1       1.647   8.768  19.520  0.00  0.00    +0.000 A 
ATOM      2  N   UNL     1       1.707   7.857  20.468  0.00  0.00    +0.000 NA
ATOM      3  N   UNL     1       2.174   6.651  19.990  0.00  0.00    +0.000 NA
ATOM      4  C   UNL     1       2.440   6.700  18.707  0.00  0.00    +0.000 A 
ATOM      5  N   UNL     1       2.894   5.707  17.874  0.00  0.00    +0.000 N 
ATOM      6  C   UNL     1       3.357   4.520  18.401  0.00  0.00    +0.000 C 
ATOM      7  O   UNL     1       3.430   4.248  19.603  0.00  0.00    +0.000 OA
ATOM      8  S   UNL     1       2.174   8.221  17.980  0.00  0.00    +0.000 S 
ATOM      9  H   UNL     1       2.979   5.914  16.891  0.00  0.00    +0.000 HD
ENDROOT
BRANCH   1  10
ATOM     10  O   UNL     1       1.165  10.000  19.699  0.00  0.00    +0.000 OA
BRANCH  10  19
ATOM     11  N   UNL     1      -3.797  16.034  23.049  0.00  0.00    +0.000 N 
ATOM     12  C   UNL     1      -2.847  15.098  22.881  0.00  0.00    +0.000 A 
ATOM     13  N   UNL     1      -2.130  14.576  23.847  0.00  0.00    +0.000 NA
ATOM     14  N   UNL     1      -1.285  13.582  23.391  0.00  0.00    +0.000 NA
ATOM     15  C   UNL     1      -1.337  13.407  22.085  0.00  0.00    +0.000 A 
ATOM     16  N   UNL     1      -0.643  12.456  21.396  0.00  0.00    +0.000 N 
ATOM     17  C   UNL     1      -0.259  12.601  20.001  0.00  0.00    +0.000 C 
ATOM     18  C   UNL     1      -0.790  11.402  19.226  0.00  0.00    +0.000 C 
ATOM     19  C   UNL     1      -0.267  10.087  19.833  0.00  0.00    +0.000 C 
ATOM     20  C   UNL     1      -0.611  10.027  21.331  0.00  0.00    +0.000 C 
ATOM     21  C   UNL     1      -0.131  11.276  22.082  0.00  0.00    +0.000 C 
ATOM     22  S   UNL     1      -2.469  14.483  21.332  0.00  0.00    +0.000 S 
ATOM     23  H   UNL     1      -3.811  16.538  23.929  0.00  0.00    +0.000 HD
ATOM     24  H   UNL     1      -4.157  16.536  22.247  0.00  0.00    +0.000 HD
ENDBRANCH  10  19
ENDBRANCH   1  10
BRANCH   6  25
ATOM     25  C   UNL     1       3.841   3.519  17.368  0.00  0.00    +0.000 C 
BRANCH  25  26
ATOM     26  C   UNL     1       5.076   3.997  16.646  0.00  0.00    +0.000 A 
ATOM     27  C   UNL     1       6.229   4.355  17.362  0.00  0.00    +0.000 A 
ATOM     28  C   UNL     1       7.347   4.863  16.699  0.00  0.00    +0.000 A 
ATOM     29  C   UNL     1       7.330   5.000  15.313  0.00  0.00    +0.000 A 
ATOM     30  C   UNL     1       6.206   4.608  14.589  0.00  0.00    +0.000 A 
ATOM     31  C   UNL     1       5.085   4.102  15.250  0.00  0.00    +0.000 A 
ENDBRANCH  25  26
ENDBRANCH   6  25
TORSDOF 4
ENDMDL
MODEL 9
REMARK VINA RESULT:      -7.2      2.247      3.008
REMARK  Name = 
REMARK  4 active torsions:
REMARK  status: ('A' for Active; 'I' for Inactive)
REMARK    1  A    between atoms: C_9  and  O_10
REMARK    2  A    between atoms: O_10  and  C_11
REMARK    3  A    between atoms: C_16  and  C_18
REMARK    4  A    between atoms: C_18  and  C_19
REMARK                            x       y       z     vdW  Elec       q    Type
REMARK                         _______ _______ _______ _____ _____    ______ ____
ROOT
ATOM      1  C   UNL     1       0.222  10.061  20.114  0.00  0.00    +0.000 A 
ATOM      2  N   UNL     1       0.747   9.990  18.910  0.00  0.00    +0.000 NA
ATOM      3  N   UNL     1       1.596   8.911  18.784  0.00  0.00    +0.000 NA
ATOM      4  C   UNL     1       1.680   8.219  19.896  0.00  0.00    +0.000 A 
ATOM      5  N   UNL     1       2.433   7.105  20.171  0.00  0.00    +0.000 N 
ATOM      6  C   UNL     1       3.062   6.424  19.151  0.00  0.00    +0.000 C 
ATOM      7  O   UNL     1       3.001   6.712  17.952  0.00  0.00    +0.000 OA
ATOM      8  S   UNL     1       0.714   8.803  21.175  0.00  0.00    +0.000 S 
ATOM      9  H   UNL     1       2.420   6.744  21.113  0.00  0.00    +0.000 HD
ENDROOT
BRANCH   1  10
ATOM     10  O   UNL     1      -0.580  11.048  20.521  0.00  0.00    +0.000 OA
BRANCH  10  19
ATOM     11  N   UNL     1      -4.595  16.827  25.289  0.00  0.00    +0.000 N 
ATOM     12  C   UNL     1      -3.987  16.204  24.264  0.00  0.00    +0.000 A 
ATOM     13  N   UNL     1      -3.594  16.789  23.158  0.00  0.00    +0.000 NA
ATOM     14  N   UNL     1      -2.931  15.918  22.314  0.00  0.00    +0.000 NA
ATOM     15  C   UNL     1      -2.882  14.681  22.771  0.00  0.00    +0.000 A 
ATOM     16  N   UNL     1      -2.240  13.647  22.154  0.00  0.00    +0.000 N 
ATOM     17  C   UNL     1      -2.628  12.255  22.319  0.00  0.00    +0.000 C 
ATOM     18  C   UNL     1      -1.412  11.467  22.789  0.00  0.00    +0.000 C 
ATOM     19  C   UNL     1      -0.244  11.625  21.797  0.00  0.00    +0.000 C 
ATOM     20  C   UNL     1       0.061  13.117  21.581  0.00  0.00    +0.000 C 
ATOM     21  C   UNL     1      -1.190  13.909  21.178  0.00  0.00    +0.000 C 
ATOM     22  S   UNL     1      -3.664  14.526  24.310  0.00  0.00    +0.000 S 
ATOM     23  H   UNL     1      -4.982  17.749  25.116  0.00  0.00    +0.000 HD
ATOM     24  H   UNL     1      -5.053  16.283  26.009  0.00  0.00    +0.000 HD
ENDBRANCH  10  19
ENDBRANCH   1  10
BRANCH   6  25
ATOM     25  C   UNL     1       3.847   5.205  19.596  0.00  0.00    +0.000 C 
BRANCH  25  26
ATOM     26  C   UNL     1       5.095   4.997  18.775  0.00  0.00    +0.000 A 
ATOM     27  C   UNL     1       6.339   5.453  19.238  0.00  0.00    +0.000 A 
ATOM     28  C   UNL     1       7.481   5.324  18.448  0.00  0.00    +0.000 A 
ATOM     29  C   UNL     1       7.395   4.722  17.195  0.00  0.00    +0.000 A 
ATOM     30  C   UNL     1       6.173   4.228  16.744  0.00  0.00    +0.000 A 
ATOM     31  C   UNL     1       5.028   4.358  17.531  0.00  0.00    +0.000 A 
ENDBRANCH  25  26
ENDBRANCH   6  25
TORSDOF 4
ENDMDL
