MODEL 1
REMARK VINA RESULT:      -6.9      0.000      0.000
REMARK  Name = 
REMARK  10 active torsions:
REMARK  status: ('A' for Active; 'I' for Inactive)
REMARK    1  A    between atoms: C_1  and  C_2
REMARK    2  A    between atoms: C_2  and  N_3
REMARK    3  A    between atoms: N_3  and  C_4
REMARK    4  A    between atoms: N_3  and  C_6
REMARK    5  A    between atoms: C_4  and  C_5
REMARK    6  A    between atoms: C_6  and  C_7
REMARK    7  A    between atoms: C_7  and  C_8
REMARK    8  A    between atoms: C_8  and  O_9
REMARK    9  A    between atoms: O_9  and  C_10
REMARK   10  A    between atoms: C_13  and  C_14
REMARK                            x       y       z     vdW  Elec       q    Type
REMARK                         _______ _______ _______ _____ _____    ______ ____
ROOT
ATOM      1  C   UNL     1       6.411   6.708  17.553  0.00  0.00    +0.000 A 
ATOM      2  C   UNL     1       6.539   5.697  18.504  0.00  0.00    +0.000 A 
ATOM      3  C   UNL     1       5.428   4.972  18.919  0.00  0.00    +0.000 A 
ATOM      4  C   UNL     1       4.144   5.234  18.426  0.00  0.00    +0.000 A 
ATOM      5  C   UNL     1       4.027   6.254  17.460  0.00  0.00    +0.000 A 
ATOM      6  C   UNL     1       5.147   6.978  17.029  0.00  0.00    +0.000 A 
ENDROOT
BRANCH   4   7
ATOM      7  C   UNL     1       2.988   4.447  18.915  0.00  0.00    +0.000 A 
ATOM      8  C   UNL     1       2.581   3.274  18.245  0.00  0.00    +0.000 A 
ATOM      9  C   UNL     1       1.448   2.557  18.637  0.00  0.00    +0.000 A 
ATOM     10  C   UNL     1       0.705   2.984  19.730  0.00  0.00    +0.000 A 
ATOM     11  C   UNL     1       1.097   4.123  20.428  0.00  0.00    +0.000 A 
ATOM     12  C   UNL     1       2.223   4.848  20.023  0.00  0.00    +0.000 A 
ENDBRANCH   4   7
BRANCH   1  13
ATOM     13  O   UNL     1       7.448   7.478  17.088  0.00  0.00    +0.000 OA
BRANCH  13  14
ATOM     14  C   UNL     1       8.261   8.061  18.115  0.00  0.00    +0.000 C 
BRANCH  14  15
ATOM     15  C   UNL     1       8.289   9.575  17.968  0.00  0.00    +0.000 C 
BRANCH  15  16
ATOM     16  C   UNL     1       9.129  10.232  19.076  0.00  0.00    +0.000 C 
BRANCH  16  17
ATOM     17  N   UNL     1      10.167  11.173  18.605  0.00  0.00    +0.000 NA
BRANCH  17  19
ATOM     18  C   UNL     1      10.348  13.519  17.676  0.00  0.00    +0.000 C 
ATOM     19  C   UNL     1       9.622  12.176  17.676  0.00  0.00    +0.000 C 
ENDBRANCH  17  19
BRANCH  17  20
ATOM     20  C   UNL     1      10.926  11.746  19.732  0.00  0.00    +0.000 C 
ATOM     21  C   UNL     1      10.172  11.878  21.052  0.00  0.00    +0.000 C 
ENDBRANCH  17  20
ENDBRANCH  16  17
ENDBRANCH  15  16
ENDBRANCH  14  15
ENDBRANCH  13  14
ENDBRANCH   1  13
TORSDOF 8
ENDMDL
MODEL 2
REMARK VINA RESULT:      -6.9      0.750      1.349
REMARK  Name = 
REMARK  10 active torsions:
REMARK  status: ('A' for Active; 'I' for Inactive)
REMARK    1  A    between atoms: C_1  and  C_2
REMARK    2  A    between atoms: C_2  and  N_3
REMARK    3  A    between atoms: N_3  and  C_4
REMARK    4  A    between atoms: N_3  and  C_6
REMARK    5  A    between atoms: C_4  and  C_5
REMARK    6  A    between atoms: C_6  and  C_7
REMARK    7  A    between atoms: C_7  and  C_8
REMARK    8  A    between atoms: C_8  and  O_9
REMARK    9  A    between atoms: O_9  and  C_10
REMARK   10  A    between atoms: C_13  and  C_14
REMARK                            x       y       z     vdW  Elec       q    Type
REMARK                         _______ _______ _______ _____ _____    ______ ____
ROOT
ATOM      1  C   UNL     1       6.904   6.614  18.128  0.00  0.00    +0.000 A 
ATOM      2  C   UNL     1       6.803   5.623  19.102  0.00  0.00    +0.000 A 
ATOM      3  C   UNL     1       5.590   4.985  19.338  0.00  0.00    +0.000 A 
ATOM      4  C   UNL     1       4.426   5.321  18.636  0.00  0.00    +0.000 A 
ATOM      5  C   UNL     1       4.542   6.320  17.649  0.00  0.00    +0.000 A 
ATOM      6  C   UNL     1       5.766   6.956  17.398  0.00  0.00    +0.000 A 
ENDROOT
BRANCH   4   7
ATOM      7  C   UNL     1       3.153   4.627  18.939  0.00  0.00    +0.000 A 
ATOM      8  C   UNL     1       2.559   4.736  20.214  0.00  0.00    +0.000 A 
ATOM      9  C   UNL     1       1.403   4.029  20.552  0.00  0.00    +0.000 A 
ATOM     10  C   UNL     1       0.794   3.211  19.609  0.00  0.00    +0.000 A 
ATOM     11  C   UNL     1       1.340   3.104  18.333  0.00  0.00    +0.000 A 
ATOM     12  C   UNL     1       2.509   3.801  18.003  0.00  0.00    +0.000 A 
ENDBRANCH   4   7
BRANCH   1  13
ATOM     13  O   UNL     1       8.056   7.300  17.830  0.00  0.00    +0.000 OA
BRANCH  13  14
ATOM     14  C   UNL     1       7.871   8.706  17.622  0.00  0.00    +0.000 C 
BRANCH  14  15
ATOM     15  C   UNL     1       8.804   9.499  18.524  0.00  0.00    +0.000 C 
BRANCH  15  16
ATOM     16  C   UNL     1       8.919  10.963  18.068  0.00  0.00    +0.000 C 
BRANCH  16  17
ATOM     17  N   UNL     1      10.263  11.561  18.203  0.00  0.00    +0.000 NA
BRANCH  17  19
ATOM     18  C   UNL     1      11.284  13.269  16.640  0.00  0.00    +0.000 C 
ATOM     19  C   UNL     1      10.291  12.965  17.758  0.00  0.00    +0.000 C 
ENDBRANCH  17  19
BRANCH  17  20
ATOM     20  C   UNL     1      10.816  11.348  19.553  0.00  0.00    +0.000 C 
ATOM     21  C   UNL     1      12.217  11.899  19.801  0.00  0.00    +0.000 C 
ENDBRANCH  17  20
ENDBRANCH  16  17
ENDBRANCH  15  16
ENDBRANCH  14  15
ENDBRANCH  13  14
ENDBRANCH   1  13
TORSDOF 8
ENDMDL
MODEL 3
REMARK VINA RESULT:      -6.9      0.711      1.397
REMARK  Name = 
REMARK  10 active torsions:
REMARK  status: ('A' for Active; 'I' for Inactive)
REMARK    1  A    between atoms: C_1  and  C_2
REMARK    2  A    between atoms: C_2  and  N_3
REMARK    3  A    between atoms: N_3  and  C_4
REMARK    4  A    between atoms: N_3  and  C_6
REMARK    5  A    between atoms: C_4  and  C_5
REMARK    6  A    between atoms: C_6  and  C_7
REMARK    7  A    between atoms: C_7  and  C_8
REMARK    8  A    between atoms: C_8  and  O_9
REMARK    9  A    between atoms: O_9  and  C_10
REMARK   10  A    between atoms: C_13  and  C_14
REMARK                            x       y       z     vdW  Elec       q    Type
REMARK                         _______ _______ _______ _____ _____    ______ ____
ROOT
ATOM      1  C   UNL     1       6.147   6.627  17.603  0.00  0.00    +0.000 A 
ATOM      2  C   UNL     1       6.273   5.791  18.710  0.00  0.00    +0.000 A 
ATOM      3  C   UNL     1       5.198   5.022  19.141  0.00  0.00    +0.000 A 
ATOM      4  C   UNL     1       3.951   5.067  18.505  0.00  0.00    +0.000 A 
ATOM      5  C   UNL     1       3.837   5.911  17.382  0.00  0.00    +0.000 A 
ATOM      6  C   UNL     1       4.923   6.679  16.936  0.00  0.00    +0.000 A 
ENDROOT
BRANCH   4   7
ATOM      7  C   UNL     1       2.830   4.243  19.014  0.00  0.00    +0.000 A 
ATOM      8  C   UNL     1       2.076   3.434  18.138  0.00  0.00    +0.000 A 
ATOM      9  C   UNL     1       0.965   2.710  18.577  0.00  0.00    +0.000 A 
ATOM     10  C   UNL     1       0.594   2.757  19.915  0.00  0.00    +0.000 A 
ATOM     11  C   UNL     1       1.335   3.525  20.809  0.00  0.00    +0.000 A 
ATOM     12  C   UNL     1       2.438   4.263  20.363  0.00  0.00    +0.000 A 
ENDBRANCH   4   7
BRANCH   1  13
ATOM     13  O   UNL     1       7.150   7.426  17.110  0.00  0.00    +0.000 OA
BRANCH  13  14
ATOM     14  C   UNL     1       8.117   7.834  18.086  0.00  0.00    +0.000 C 
BRANCH  14  15
ATOM     15  C   UNL     1       8.273   9.347  18.073  0.00  0.00    +0.000 C 
BRANCH  15  16
ATOM     16  C   UNL     1       9.075   9.841  19.288  0.00  0.00    +0.000 C 
BRANCH  16  17
ATOM     17  N   UNL     1       9.615  11.211  19.173  0.00  0.00    +0.000 NA
BRANCH  17  19
ATOM     18  C   UNL     1       9.699  12.677  21.233  0.00  0.00    +0.000 C 
ATOM     19  C   UNL     1      10.370  11.611  20.372  0.00  0.00    +0.000 C 
ENDBRANCH  17  19
BRANCH  17  20
ATOM     20  C   UNL     1      10.351  11.395  17.909  0.00  0.00    +0.000 C 
ATOM     21  C   UNL     1      11.791  11.886  18.035  0.00  0.00    +0.000 C 
ENDBRANCH  17  20
ENDBRANCH  16  17
ENDBRANCH  15  16
ENDBRANCH  14  15
ENDBRANCH  13  14
ENDBRANCH   1  13
TORSDOF 8
ENDMDL
MODEL 4
REMARK VINA RESULT:      -6.7      0.992      2.257
REMARK  Name = 
REMARK  10 active torsions:
REMARK  status: ('A' for Active; 'I' for Inactive)
REMARK    1  A    between atoms: C_1  and  C_2
REMARK    2  A    between atoms: C_2  and  N_3
REMARK    3  A    between atoms: N_3  and  C_4
REMARK    4  A    between atoms: N_3  and  C_6
REMARK    5  A    between atoms: C_4  and  C_5
REMARK    6  A    between atoms: C_6  and  C_7
REMARK    7  A    between atoms: C_7  and  C_8
REMARK    8  A    between atoms: C_8  and  O_9
REMARK    9  A    between atoms: O_9  and  C_10
REMARK   10  A    between atoms: C_13  and  C_14
REMARK                            x       y       z     vdW  Elec       q    Type
REMARK                         _______ _______ _______ _____ _____    ______ ____
ROOT
ATOM      1  C   UNL     1       7.064   6.794  17.954  0.00  0.00    +0.000 A 
ATOM      2  C   UNL     1       5.966   6.976  17.116  0.00  0.00    +0.000 A 
ATOM      3  C   UNL     1       4.840   6.170  17.241  0.00  0.00    +0.000 A 
ATOM      4  C   UNL     1       4.767   5.139  18.185  0.00  0.00    +0.000 A 
ATOM      5  C   UNL     1       5.881   4.968  19.032  0.00  0.00    +0.000 A 
ATOM      6  C   UNL     1       7.013   5.787  18.918  0.00  0.00    +0.000 A 
ENDROOT
BRANCH   4   7
ATOM      7  C   UNL     1       3.553   4.293  18.266  0.00  0.00    +0.000 A 
ATOM      8  C   UNL     1       2.433   4.712  19.016  0.00  0.00    +0.000 A 
ATOM      9  C   UNL     1       1.307   3.900  19.175  0.00  0.00    +0.000 A 
ATOM     10  C   UNL     1       1.263   2.654  18.563  0.00  0.00    +0.000 A 
ATOM     11  C   UNL     1       2.341   2.225  17.794  0.00  0.00    +0.000 A 
ATOM     12  C   UNL     1       3.475   3.033  17.651  0.00  0.00    +0.000 A 
ENDBRANCH   4   7
BRANCH   1  13
ATOM     13  O   UNL     1       8.218   7.536  17.900  0.00  0.00    +0.000 OA
BRANCH  13  14
ATOM     14  C   UNL     1       8.010   8.953  17.851  0.00  0.00    +0.000 C 
BRANCH  14  15
ATOM     15  C   UNL     1       8.870   9.648  18.896  0.00  0.00    +0.000 C 
BRANCH  15  16
ATOM     16  C   UNL     1       9.683  10.799  18.282  0.00  0.00    +0.000 C 
BRANCH  16  17
ATOM     17  N   UNL     1       9.422  12.133  18.860  0.00  0.00    +0.000 NA
BRANCH  17  19
ATOM     18  C   UNL     1      11.827  11.795  19.570  0.00  0.00    +0.000 C 
ATOM     19  C   UNL     1      10.535  12.596  19.705  0.00  0.00    +0.000 C 
ENDBRANCH  17  19
BRANCH  17  20
ATOM     20  C   UNL     1       9.013  13.099  17.824  0.00  0.00    +0.000 C 
ATOM     21  C   UNL     1       7.649  12.859  17.182  0.00  0.00    +0.000 C 
ENDBRANCH  17  20
ENDBRANCH  16  17
ENDBRANCH  15  16
ENDBRANCH  14  15
ENDBRANCH  13  14
ENDBRANCH   1  13
TORSDOF 8
ENDMDL
MODEL 5
REMARK VINA RESULT:      -6.7      3.767      6.058
REMARK  Name = 
REMARK  10 active torsions:
REMARK  status: ('A' for Active; 'I' for Inactive)
REMARK    1  A    between atoms: C_1  and  C_2
REMARK    2  A    between atoms: C_2  and  N_3
REMARK    3  A    between atoms: N_3  and  C_4
REMARK    4  A    between atoms: N_3  and  C_6
REMARK    5  A    between atoms: C_4  and  C_5
REMARK    6  A    between atoms: C_6  and  C_7
REMARK    7  A    between atoms: C_7  and  C_8
REMARK    8  A    between atoms: C_8  and  O_9
REMARK    9  A    between atoms: O_9  and  C_10
REMARK   10  A    between atoms: C_13  and  C_14
REMARK                            x       y       z     vdW  Elec       q    Type
REMARK                         _______ _______ _______ _____ _____    ______ ____
ROOT
ATOM      1  C   UNL     1       3.240   5.632  18.709  0.00  0.00    +0.000 A 
ATOM      2  C   UNL     1       3.089   6.900  18.150  0.00  0.00    +0.000 A 
ATOM      3  C   UNL     1       2.362   7.882  18.813  0.00  0.00    +0.000 A 
ATOM      4  C   UNL     1       1.737   7.641  20.043  0.00  0.00    +0.000 A 
ATOM      5  C   UNL     1       1.902   6.358  20.602  0.00  0.00    +0.000 A 
ATOM      6  C   UNL     1       2.646   5.368  19.944  0.00  0.00    +0.000 A 
ENDROOT
BRANCH   4   7
ATOM      7  C   UNL     1       0.956   8.714  20.699  0.00  0.00    +0.000 A 
ATOM      8  C   UNL     1       0.384   9.757  19.939  0.00  0.00    +0.000 A 
ATOM      9  C   UNL     1      -0.289  10.823  20.539  0.00  0.00    +0.000 A 
ATOM     10  C   UNL     1      -0.430  10.861  21.920  0.00  0.00    +0.000 A 
ATOM     11  C   UNL     1       0.100   9.834  22.696  0.00  0.00    +0.000 A 
ATOM     12  C   UNL     1       0.788   8.775  22.092  0.00  0.00    +0.000 A 
ENDBRANCH   4   7
BRANCH   1  13
ATOM     13  O   UNL     1       3.934   4.601  18.127  0.00  0.00    +0.000 OA
BRANCH  13  14
ATOM     14  C   UNL     1       4.994   4.069  18.933  0.00  0.00    +0.000 C 
BRANCH  14  15
ATOM     15  C   UNL     1       6.162   5.041  18.975  0.00  0.00    +0.000 C 
BRANCH  15  16
ATOM     16  C   UNL     1       7.190   4.734  17.874  0.00  0.00    +0.000 C 
BRANCH  16  17
ATOM     17  N   UNL     1       7.312   5.762  16.820  0.00  0.00    +0.000 NA
BRANCH  17  19
ATOM     18  C   UNL     1       6.330   3.841  15.499  0.00  0.00    +0.000 C 
ATOM     19  C   UNL     1       6.748   5.309  15.538  0.00  0.00    +0.000 C 
ENDBRANCH  17  19
BRANCH  17  20
ATOM     20  C   UNL     1       6.796   7.066  17.276  0.00  0.00    +0.000 C 
ATOM     21  C   UNL     1       7.843   8.111  17.648  0.00  0.00    +0.000 C 
ENDBRANCH  17  20
ENDBRANCH  16  17
ENDBRANCH  15  16
ENDBRANCH  14  15
ENDBRANCH  13  14
ENDBRANCH   1  13
TORSDOF 8
ENDMDL
MODEL 6
REMARK VINA RESULT:      -6.7      5.014      8.277
REMARK  Name = 
REMARK  10 active torsions:
REMARK  status: ('A' for Active; 'I' for Inactive)
REMARK    1  A    between atoms: C_1  and  C_2
REMARK    2  A    between atoms: C_2  and  N_3
REMARK    3  A    between atoms: N_3  and  C_4
REMARK    4  A    between atoms: N_3  and  C_6
REMARK    5  A    between atoms: C_4  and  C_5
REMARK    6  A    between atoms: C_6  and  C_7
REMARK    7  A    between atoms: C_7  and  C_8
REMARK    8  A    between atoms: C_8  and  O_9
REMARK    9  A    between atoms: O_9  and  C_10
REMARK   10  A    between atoms: C_13  and  C_14
REMARK                            x       y       z     vdW  Elec       q    Type
REMARK                         _______ _______ _______ _____ _____    ______ ____
ROOT
ATOM      1  C   UNL     1       4.469   5.486  18.303  0.00  0.00    +0.000 A 
ATOM      2  C   UNL     1       4.853   4.201  17.924  0.00  0.00    +0.000 A 
ATOM      3  C   UNL     1       5.376   3.964  16.658  0.00  0.00    +0.000 A 
ATOM      4  C   UNL     1       5.518   4.985  15.710  0.00  0.00    +0.000 A 
ATOM      5  C   UNL     1       5.133   6.282  16.106  0.00  0.00    +0.000 A 
ATOM      6  C   UNL     1       4.618   6.528  17.387  0.00  0.00    +0.000 A 
ENDROOT
BRANCH   4   7
ATOM      7  C   UNL     1       6.062   4.678  14.367  0.00  0.00    +0.000 A 
ATOM      8  C   UNL     1       5.412   3.754  13.521  0.00  0.00    +0.000 A 
ATOM      9  C   UNL     1       5.944   3.387  12.284  0.00  0.00    +0.000 A 
ATOM     10  C   UNL     1       7.134   3.956  11.848  0.00  0.00    +0.000 A 
ATOM     11  C   UNL     1       7.785   4.891  12.648  0.00  0.00    +0.000 A 
ATOM     12  C   UNL     1       7.257   5.245  13.895  0.00  0.00    +0.000 A 
ENDBRANCH   4   7
BRANCH   1  13
ATOM     13  O   UNL     1       3.939   5.813  19.527  0.00  0.00    +0.000 OA
BRANCH  13  14
ATOM     14  C   UNL     1       2.669   6.473  19.465  0.00  0.00    +0.000 C 
BRANCH  14  15
ATOM     15  C   UNL     1       1.698   5.840  20.451  0.00  0.00    +0.000 C 
BRANCH  15  16
ATOM     16  C   UNL     1       2.344   4.662  21.198  0.00  0.00    +0.000 C 
BRANCH  16  17
ATOM     17  N   UNL     1       2.369   3.383  20.458  0.00  0.00    +0.000 NA
BRANCH  17  19
ATOM     18  C   UNL     1       4.444   1.936  20.485  0.00  0.00    +0.000 C 
ATOM     19  C   UNL     1       3.142   2.350  21.166  0.00  0.00    +0.000 C 
ENDBRANCH  17  19
BRANCH  17  20
ATOM     20  C   UNL     1       1.012   2.959  20.069  0.00  0.00    +0.000 C 
ATOM     21  C   UNL     1       0.872   2.344  18.679  0.00  0.00    +0.000 C 
ENDBRANCH  17  20
ENDBRANCH  16  17
ENDBRANCH  15  16
ENDBRANCH  14  15
ENDBRANCH  13  14
ENDBRANCH   1  13
TORSDOF 8
ENDMDL
MODEL 7
REMARK VINA RESULT:      -6.7      0.608      1.655
REMARK  Name = 
REMARK  10 active torsions:
REMARK  status: ('A' for Active; 'I' for Inactive)
REMARK    1  A    between atoms: C_1  and  C_2
REMARK    2  A    between atoms: C_2  and  N_3
REMARK    3  A    between atoms: N_3  and  C_4
REMARK    4  A    between atoms: N_3  and  C_6
REMARK    5  A    between atoms: C_4  and  C_5
REMARK    6  A    between atoms: C_6  and  C_7
REMARK    7  A    between atoms: C_7  and  C_8
REMARK    8  A    between atoms: C_8  and  O_9
REMARK    9  A    between atoms: O_9  and  C_10
REMARK   10  A    between atoms: C_13  and  C_14
REMARK                            x       y       z     vdW  Elec       q    Type
REMARK                         _______ _______ _______ _____ _____    ______ ____
ROOT
ATOM      1  C   UNL     1       6.528   6.740  17.556  0.00  0.00    +0.000 A 
ATOM      2  C   UNL     1       5.326   6.801  16.854  0.00  0.00    +0.000 A 
ATOM      3  C   UNL     1       4.217   6.083  17.288  0.00  0.00    +0.000 A 
ATOM      4  C   UNL     1       4.262   5.261  18.421  0.00  0.00    +0.000 A 
ATOM      5  C   UNL     1       5.481   5.212  19.127  0.00  0.00    +0.000 A 
ATOM      6  C   UNL     1       6.597   5.945  18.700  0.00  0.00    +0.000 A 
ENDROOT
BRANCH   4   7
ATOM      7  C   UNL     1       3.059   4.500  18.832  0.00  0.00    +0.000 A 
ATOM      8  C   UNL     1       2.392   4.804  20.038  0.00  0.00    +0.000 A 
ATOM      9  C   UNL     1       1.305   4.052  20.488  0.00  0.00    +0.000 A 
ATOM     10  C   UNL     1       0.839   2.987  19.727  0.00  0.00    +0.000 A 
ATOM     11  C   UNL     1       1.458   2.680  18.519  0.00  0.00    +0.000 A 
ATOM     12  C   UNL     1       2.558   3.425  18.078  0.00  0.00    +0.000 A 
ENDBRANCH   4   7
BRANCH   1  13
ATOM     13  O   UNL     1       7.674   7.408  17.200  0.00  0.00    +0.000 OA
BRANCH  13  14
ATOM     14  C   UNL     1       7.731   8.768  17.648  0.00  0.00    +0.000 C 
BRANCH  14  15
ATOM     15  C   UNL     1       8.931   8.971  18.561  0.00  0.00    +0.000 C 
BRANCH  15  16
ATOM     16  C   UNL     1       8.926  10.373  19.193  0.00  0.00    +0.000 C 
BRANCH  16  17
ATOM     17  N   UNL     1       9.811  11.361  18.542  0.00  0.00    +0.000 NA
BRANCH  17  19
ATOM     18  C   UNL     1       9.235  13.796  18.170  0.00  0.00    +0.000 C 
ATOM     19  C   UNL     1       9.054  12.341  17.746  0.00  0.00    +0.000 C 
ENDBRANCH  17  19
BRANCH  17  20
ATOM     20  C   UNL     1      10.747  11.964  19.508  0.00  0.00    +0.000 C 
ATOM     21  C   UNL     1      12.218  11.591  19.343  0.00  0.00    +0.000 C 
ENDBRANCH  17  20
ENDBRANCH  16  17
ENDBRANCH  15  16
ENDBRANCH  14  15
ENDBRANCH  13  14
ENDBRANCH   1  13
TORSDOF 8
ENDMDL
MODEL 8
REMARK VINA RESULT:      -6.7      0.833      1.300
REMARK  Name = 
REMARK  10 active torsions:
REMARK  status: ('A' for Active; 'I' for Inactive)
REMARK    1  A    between atoms: C_1  and  C_2
REMARK    2  A    between atoms: C_2  and  N_3
REMARK    3  A    between atoms: N_3  and  C_4
REMARK    4  A    between atoms: N_3  and  C_6
REMARK    5  A    between atoms: C_4  and  C_5
REMARK    6  A    between atoms: C_6  and  C_7
REMARK    7  A    between atoms: C_7  and  C_8
REMARK    8  A    between atoms: C_8  and  O_9
REMARK    9  A    between atoms: O_9  and  C_10
REMARK   10  A    between atoms: C_13  and  C_14
REMARK                            x       y       z     vdW  Elec       q    Type
REMARK                         _______ _______ _______ _____ _____    ______ ____
ROOT
ATOM      1  C   UNL     1       6.502   6.672  17.674  0.00  0.00    +0.000 A 
ATOM      2  C   UNL     1       6.717   5.684  18.632  0.00  0.00    +0.000 A 
ATOM      3  C   UNL     1       5.652   4.946  19.138  0.00  0.00    +0.000 A 
ATOM      4  C   UNL     1       4.332   5.173  18.730  0.00  0.00    +0.000 A 
ATOM      5  C   UNL     1       4.127   6.170  17.755  0.00  0.00    +0.000 A 
ATOM      6  C   UNL     1       5.200   6.907  17.233  0.00  0.00    +0.000 A 
ENDROOT
BRANCH   4   7
ATOM      7  C   UNL     1       3.229   4.374  19.313  0.00  0.00    +0.000 A 
ATOM      8  C   UNL     1       2.135   5.008  19.940  0.00  0.00    +0.000 A 
ATOM      9  C   UNL     1       1.122   4.279  20.568  0.00  0.00    +0.000 A 
ATOM     10  C   UNL     1       1.166   2.890  20.562  0.00  0.00    +0.000 A 
ATOM     11  C   UNL     1       2.218   2.236  19.928  0.00  0.00    +0.000 A 
ATOM     12  C   UNL     1       3.240   2.970  19.314  0.00  0.00    +0.000 A 
ENDBRANCH   4   7
BRANCH   1  13
ATOM     13  O   UNL     1       7.489   7.452  17.123  0.00  0.00    +0.000 OA
BRANCH  13  14
ATOM     14  C   UNL     1       8.318   8.124  18.081  0.00  0.00    +0.000 C 
BRANCH  14  15
ATOM     15  C   UNL     1       8.278   9.627  17.850  0.00  0.00    +0.000 C 
BRANCH  15  16
ATOM     16  C   UNL     1       9.077  10.383  18.924  0.00  0.00    +0.000 C 
BRANCH  16  17
ATOM     17  N   UNL     1       9.961  11.452  18.415  0.00  0.00    +0.000 NA
BRANCH  17  19
ATOM     18  C   UNL     1       8.285  13.184  17.645  0.00  0.00    +0.000 C 
ATOM     19  C   UNL     1       9.386  12.791  18.626  0.00  0.00    +0.000 C 
ENDBRANCH  17  19
BRANCH  17  20
ATOM     20  C   UNL     1      11.336  11.301  18.923  0.00  0.00    +0.000 C 
ATOM     21  C   UNL     1      11.778  12.311  19.980  0.00  0.00    +0.000 C 
ENDBRANCH  17  20
ENDBRANCH  16  17
ENDBRANCH  15  16
ENDBRANCH  14  15
ENDBRANCH  13  14
ENDBRANCH   1  13
TORSDOF 8
ENDMDL
MODEL 9
REMARK VINA RESULT:      -6.7      0.642      1.405
REMARK  Name = 
REMARK  10 active torsions:
REMARK  status: ('A' for Active; 'I' for Inactive)
REMARK    1  A    between atoms: C_1  and  C_2
REMARK    2  A    between atoms: C_2  and  N_3
REMARK    3  A    between atoms: N_3  and  C_4
REMARK    4  A    between atoms: N_3  and  C_6
REMARK    5  A    between atoms: C_4  and  C_5
REMARK    6  A    between atoms: C_6  and  C_7
REMARK    7  A    between atoms: C_7  and  C_8
REMARK    8  A    between atoms: C_8  and  O_9
REMARK    9  A    between atoms: O_9  and  C_10
REMARK   10  A    between atoms: C_13  and  C_14
REMARK                            x       y       z     vdW  Elec       q    Type
REMARK                         _______ _______ _______ _____ _____    ______ ____
ROOT
ATOM      1  C   UNL     1       6.377   6.670  17.459  0.00  0.00    +0.000 A 
ATOM      2  C   UNL     1       6.472   5.837  18.572  0.00  0.00    +0.000 A 
ATOM      3  C   UNL     1       5.366   5.120  19.015  0.00  0.00    +0.000 A 
ATOM      4  C   UNL     1       4.118   5.218  18.387  0.00  0.00    +0.000 A 
ATOM      5  C   UNL     1       4.036   6.058  17.258  0.00  0.00    +0.000 A 
ATOM      6  C   UNL     1       5.152   6.772  16.800  0.00  0.00    +0.000 A 
ENDROOT
BRANCH   4   7
ATOM      7  C   UNL     1       2.965   4.450  18.909  0.00  0.00    +0.000 A 
ATOM      8  C   UNL     1       2.290   3.518  18.091  0.00  0.00    +0.000 A 
ATOM      9  C   UNL     1       1.152   2.839  18.532  0.00  0.00    +0.000 A 
ATOM     10  C   UNL     1       0.672   3.058  19.817  0.00  0.00    +0.000 A 
ATOM     11  C   UNL     1       1.331   3.951  20.657  0.00  0.00    +0.000 A 
ATOM     12  C   UNL     1       2.462   4.642  20.207  0.00  0.00    +0.000 A 
ENDBRANCH   4   7
BRANCH   1  13
ATOM     13  O   UNL     1       7.412   7.418  16.954  0.00  0.00    +0.000 OA
BRANCH  13  14
ATOM     14  C   UNL     1       8.205   8.080  17.947  0.00  0.00    +0.000 C 
BRANCH  14  15
ATOM     15  C   UNL     1       7.999   9.585  17.868  0.00  0.00    +0.000 C 
BRANCH  15  16
ATOM     16  C   UNL     1       9.306  10.347  18.146  0.00  0.00    +0.000 C 
BRANCH  16  17
ATOM     17  N   UNL     1       9.160  11.571  18.961  0.00  0.00    +0.000 NA
BRANCH  17  19
ATOM     18  C   UNL     1      11.049  12.016  20.584  0.00  0.00    +0.000 C 
ATOM     19  C   UNL     1       9.681  11.391  20.326  0.00  0.00    +0.000 C 
ENDBRANCH  17  19
BRANCH  17  20
ATOM     20  C   UNL     1       9.700  12.751  18.262  0.00  0.00    +0.000 C 
ATOM     21  C   UNL     1       8.768  13.955  18.156  0.00  0.00    +0.000 C 
ENDBRANCH  17  20
ENDBRANCH  16  17
ENDBRANCH  15  16
ENDBRANCH  14  15
ENDBRANCH  13  14
ENDBRANCH   1  13
TORSDOF 8
ENDMDL
