MODEL 1
REMARK VINA RESULT:      -8.2      0.000      0.000
REMARK  Name = 
REMARK  11 active torsions:
REMARK  status: ('A' for Active; 'I' for Inactive)
REMARK    1  A    between atoms: C_2  and  O_3
REMARK    2  A    between atoms: C_2  and  C_4
REMARK    3  A    between atoms: C_9  and  O_10
REMARK    4  A    between atoms: O_10  and  C_11
REMARK    5  A    between atoms: C_11  and  C_12
REMARK    6  A    between atoms: C_12  and  O_13
REMARK    7  A    between atoms: C_12  and  C_14
REMARK    8  A    between atoms: C_14  and  O_15
REMARK    9  A    between atoms: O_15  and  C_16
REMARK   10  A    between atoms: C_22  and  C_23
REMARK   11  A    between atoms: C_23  and  O_25
REMARK                            x       y       z     vdW  Elec       q    Type
REMARK                         _______ _______ _______ _____ _____    ______ ____
ROOT
ATOM      1  C   UNL     1       2.744   4.135  20.960  0.00  0.00    +0.000 C 
ENDROOT
BRANCH   1   2
ATOM      2  O   UNL     1       1.922   3.104  21.530  0.00  0.00    +0.000 OA
ATOM      3  H   UNL     1       1.169   3.530  21.976  0.00  0.00    +0.000 HD
ENDBRANCH   1   2
BRANCH   1   4
ATOM      4  C   UNL     1       1.895   5.194  20.247  0.00  0.00    +0.000 C 
BRANCH   4   5
ATOM      5  O   UNL     1       1.998   6.500  20.778  0.00  0.00    +0.000 OA
BRANCH   5  11
ATOM      6  C   UNL     1      -0.357  11.230  19.949  0.00  0.00    +0.000 A 
ATOM      7  C   UNL     1      -0.531  10.483  21.034  0.00  0.00    +0.000 A 
ATOM      8  C   UNL     1       0.079   9.154  21.104  0.00  0.00    +0.000 A 
ATOM      9  O   UNL     1      -0.240   8.511  22.091  0.00  0.00    +0.000 OA
ATOM     10  C   UNL     1       1.008   8.733  19.999  0.00  0.00    +0.000 A 
ATOM     11  C   UNL     1       1.808   7.564  19.922  0.00  0.00    +0.000 A 
ATOM     12  C   UNL     1       2.626   7.371  18.786  0.00  0.00    +0.000 A 
ATOM     13  C   UNL     1       2.668   8.283  17.735  0.00  0.00    +0.000 A 
ATOM     14  C   UNL     1       1.889   9.423  17.802  0.00  0.00    +0.000 A 
ATOM     15  C   UNL     1       1.075   9.649  18.919  0.00  0.00    +0.000 A 
ATOM     16  O   UNL     1       0.381  10.841  18.855  0.00  0.00    +0.000 OA
BRANCH   6  18
ATOM     17  O   UNL     1      -1.463  13.124  20.926  0.00  0.00    +0.000 OA
ATOM     18  C   UNL     1      -1.015  12.562  19.939  0.00  0.00    +0.000 C 
BRANCH  18  19
ATOM     19  O   UNL     1      -1.053  13.101  18.703  0.00  0.00    +0.000 OA
ATOM     20  H   UNL     1      -0.432  12.669  18.086  0.00  0.00    +0.000 HD
ENDBRANCH  18  19
ENDBRANCH   6  18
ENDBRANCH   5  11
ENDBRANCH   4   5
ENDBRANCH   1   4
BRANCH   1  21
ATOM     21  C   UNL     1       3.674   3.494  19.911  0.00  0.00    +0.000 C 
BRANCH  21  22
ATOM     22  O   UNL     1       3.832   4.324  18.755  0.00  0.00    +0.000 OA
BRANCH  22  23
ATOM     23  C   UNL     1       5.102   4.791  18.517  0.00  0.00    +0.000 A 
ATOM     24  C   UNL     1       5.943   5.210  19.563  0.00  0.00    +0.000 A 
ATOM     25  C   UNL     1       7.216   5.719  19.309  0.00  0.00    +0.000 A 
ATOM     26  C   UNL     1       7.686   5.778  18.007  0.00  0.00    +0.000 A 
ATOM     27  C   UNL     1       6.893   5.301  16.963  0.00  0.00    +0.000 A 
ATOM     28  O   UNL     1       7.470   5.368  15.719  0.00  0.00    +0.000 OA
ATOM     29  C   UNL     1       6.778   4.834  14.650  0.00  0.00    +0.000 A 
ATOM     30  C   UNL     1       5.548   4.318  14.729  0.00  0.00    +0.000 A 
ATOM     31  C   UNL     1       4.838   4.322  16.024  0.00  0.00    +0.000 A 
ATOM     32  O   UNL     1       3.674   3.950  16.064  0.00  0.00    +0.000 OA
ATOM     33  C   UNL     1       5.605   4.803  17.202  0.00  0.00    +0.000 A 
BRANCH  29  34
ATOM     34  C   UNL     1       7.454   4.859  13.324  0.00  0.00    +0.000 C 
ATOM     35  O   UNL     1       7.129   4.185  12.362  0.00  0.00    +0.000 OA
BRANCH  34  36
ATOM     36  O   UNL     1       8.486   5.733  13.301  0.00  0.00    +0.000 OA
ATOM     37  H   UNL     1       9.308   5.357  13.676  0.00  0.00    +0.000 HD
ENDBRANCH  34  36
ENDBRANCH  29  34
ENDBRANCH  22  23
ENDBRANCH  21  22
ENDBRANCH   1  21
TORSDOF 11
ENDMDL
MODEL 2
REMARK VINA RESULT:      -8.2      1.323      2.093
REMARK  Name = 
REMARK  11 active torsions:
REMARK  status: ('A' for Active; 'I' for Inactive)
REMARK    1  A    between atoms: C_2  and  O_3
REMARK    2  A    between atoms: C_2  and  C_4
REMARK    3  A    between atoms: C_9  and  O_10
REMARK    4  A    between atoms: O_10  and  C_11
REMARK    5  A    between atoms: C_11  and  C_12
REMARK    6  A    between atoms: C_12  and  O_13
REMARK    7  A    between atoms: C_12  and  C_14
REMARK    8  A    between atoms: C_14  and  O_15
REMARK    9  A    between atoms: O_15  and  C_16
REMARK   10  A    between atoms: C_22  and  C_23
REMARK   11  A    between atoms: C_23  and  O_25
REMARK                            x       y       z     vdW  Elec       q    Type
REMARK                         _______ _______ _______ _____ _____    ______ ____
ROOT
ATOM      1  C   UNL     1       2.176   5.693  19.387  0.00  0.00    +0.000 C 
ENDROOT
BRANCH   1   2
ATOM      2  O   UNL     1       1.900   5.098  18.109  0.00  0.00    +0.000 OA
ATOM      3  H   UNL     1       1.251   4.385  18.242  0.00  0.00    +0.000 HD
ENDBRANCH   1   2
BRANCH   1   4
ATOM      4  C   UNL     1       2.451   7.196  19.252  0.00  0.00    +0.000 C 
BRANCH   4   5
ATOM      5  O   UNL     1       1.991   7.987  20.330  0.00  0.00    +0.000 OA
BRANCH   5  11
ATOM      6  C   UNL     1      -1.493  11.539  22.293  0.00  0.00    +0.000 A 
ATOM      7  C   UNL     1      -0.803  10.676  23.030  0.00  0.00    +0.000 A 
ATOM      8  C   UNL     1       0.041   9.675  22.375  0.00  0.00    +0.000 A 
ATOM      9  O   UNL     1       0.536   8.863  23.139  0.00  0.00    +0.000 OA
ATOM     10  C   UNL     1       0.212   9.749  20.883  0.00  0.00    +0.000 A 
ATOM     11  C   UNL     1       1.076   8.982  20.058  0.00  0.00    +0.000 A 
ATOM     12  C   UNL     1       1.086   9.227  18.666  0.00  0.00    +0.000 A 
ATOM     13  C   UNL     1       0.273  10.190  18.074  0.00  0.00    +0.000 A 
ATOM     14  C   UNL     1      -0.573  10.939  18.871  0.00  0.00    +0.000 A 
ATOM     15  C   UNL     1      -0.600  10.727  20.254  0.00  0.00    +0.000 A 
ATOM     16  O   UNL     1      -1.470  11.569  20.917  0.00  0.00    +0.000 OA
BRANCH   6  18
ATOM     17  O   UNL     1      -2.153  13.724  23.037  0.00  0.00    +0.000 OA
ATOM     18  C   UNL     1      -2.339  12.518  23.023  0.00  0.00    +0.000 C 
BRANCH  18  19
ATOM     19  O   UNL     1      -3.363  11.923  23.669  0.00  0.00    +0.000 OA
ATOM     20  H   UNL     1      -3.061  11.278  24.337  0.00  0.00    +0.000 HD
ENDBRANCH  18  19
ENDBRANCH   6  18
ENDBRANCH   5  11
ENDBRANCH   4   5
ENDBRANCH   1   4
BRANCH   1  21
ATOM     21  C   UNL     1       3.441   5.035  19.971  0.00  0.00    +0.000 C 
BRANCH  21  22
ATOM     22  O   UNL     1       4.181   4.316  18.976  0.00  0.00    +0.000 OA
BRANCH  22  23
ATOM     23  C   UNL     1       5.384   4.864  18.608  0.00  0.00    +0.000 A 
ATOM     24  C   UNL     1       6.277   5.393  19.555  0.00  0.00    +0.000 A 
ATOM     25  C   UNL     1       7.480   5.983  19.168  0.00  0.00    +0.000 A 
ATOM     26  C   UNL     1       7.830   6.015  17.828  0.00  0.00    +0.000 A 
ATOM     27  C   UNL     1       6.989   5.433  16.879  0.00  0.00    +0.000 A 
ATOM     28  O   UNL     1       7.449   5.484  15.587  0.00  0.00    +0.000 OA
ATOM     29  C   UNL     1       6.711   4.851  14.607  0.00  0.00    +0.000 A 
ATOM     30  C   UNL     1       5.536   4.249  14.816  0.00  0.00    +0.000 A 
ATOM     31  C   UNL     1       4.943   4.261  16.169  0.00  0.00    +0.000 A 
ATOM     32  O   UNL     1       3.820   3.805  16.328  0.00  0.00    +0.000 OA
ATOM     33  C   UNL     1       5.769   4.852  17.253  0.00  0.00    +0.000 A 
BRANCH  29  34
ATOM     34  C   UNL     1       7.266   4.864  13.225  0.00  0.00    +0.000 C 
ATOM     35  O   UNL     1       8.129   5.626  12.826  0.00  0.00    +0.000 OA
BRANCH  34  36
ATOM     36  O   UNL     1       6.699   3.914  12.447  0.00  0.00    +0.000 OA
ATOM     37  H   UNL     1       5.816   4.174  12.117  0.00  0.00    +0.000 HD
ENDBRANCH  34  36
ENDBRANCH  29  34
ENDBRANCH  22  23
ENDBRANCH  21  22
ENDBRANCH   1  21
TORSDOF 11
ENDMDL
MODEL 3
REMARK VINA RESULT:      -8.1      2.258      4.039
REMARK  Name = 
REMARK  11 active torsions:
REMARK  status: ('A' for Active; 'I' for Inactive)
REMARK    1  A    between atoms: C_2  and  O_3
REMARK    2  A    between atoms: C_2  and  C_4
REMARK    3  A    between atoms: C_9  and  O_10
REMARK    4  A    between atoms: O_10  and  C_11
REMARK    5  A    between atoms: C_11  and  C_12
REMARK    6  A    between atoms: C_12  and  O_13
REMARK    7  A    between atoms: C_12  and  C_14
REMARK    8  A    between atoms: C_14  and  O_15
REMARK    9  A    between atoms: O_15  and  C_16
REMARK   10  A    between atoms: C_22  and  C_23
REMARK   11  A    between atoms: C_23  and  O_25
REMARK                            x       y       z     vdW  Elec       q    Type
REMARK                         _______ _______ _______ _____ _____    ______ ____
ROOT
ATOM      1  C   UNL     1       1.478   8.231  20.951  0.00  0.00    +0.000 C 
ENDROOT
BRANCH   1   2
ATOM      2  O   UNL     1       0.422   8.253  21.925  0.00  0.00    +0.000 OA
ATOM      3  H   UNL     1       0.627   7.592  22.609  0.00  0.00    +0.000 HD
ENDBRANCH   1   2
BRANCH   1   4
ATOM      4  C   UNL     1       1.211   9.229  19.818  0.00  0.00    +0.000 C 
BRANCH   4   5
ATOM      5  O   UNL     1       1.075  10.576  20.226  0.00  0.00    +0.000 OA
BRANCH   5  11
ATOM      6  C   UNL     1      -3.240  12.382  22.819  0.00  0.00    +0.000 A 
ATOM      7  C   UNL     1      -2.197  11.804  23.405  0.00  0.00    +0.000 A 
ATOM      8  C   UNL     1      -1.120  11.249  22.584  0.00  0.00    +0.000 A 
ATOM      9  O   UNL     1      -0.273  10.642  23.218  0.00  0.00    +0.000 OA
ATOM     10  C   UNL     1      -1.160  11.480  21.099  0.00  0.00    +0.000 A 
ATOM     11  C   UNL     1      -0.171  11.158  20.133  0.00  0.00    +0.000 A 
ATOM     12  C   UNL     1      -0.412  11.478  18.777  0.00  0.00    +0.000 A 
ATOM     13  C   UNL     1      -1.589  12.090  18.355  0.00  0.00    +0.000 A 
ATOM     14  C   UNL     1      -2.558  12.404  19.290  0.00  0.00    +0.000 A 
ATOM     15  C   UNL     1      -2.346  12.109  20.642  0.00  0.00    +0.000 A 
ATOM     16  O   UNL     1      -3.387  12.507  21.456  0.00  0.00    +0.000 OA
BRANCH   6  18
ATOM     17  O   UNL     1      -4.895  12.255  24.553  0.00  0.00    +0.000 OA
ATOM     18  C   UNL     1      -4.303  12.911  23.712  0.00  0.00    +0.000 C 
BRANCH  18  19
ATOM     19  O   UNL     1      -4.539  14.223  23.499  0.00  0.00    +0.000 OA
ATOM     20  H   UNL     1      -4.909  14.398  22.613  0.00  0.00    +0.000 HD
ENDBRANCH  18  19
ENDBRANCH   6  18
ENDBRANCH   5  11
ENDBRANCH   4   5
ENDBRANCH   1   4
BRANCH   1  21
ATOM     21  C   UNL     1       1.541   6.821  20.331  0.00  0.00    +0.000 C 
BRANCH  21  22
ATOM     22  O   UNL     1       2.395   6.779  19.181  0.00  0.00    +0.000 OA
BRANCH  22  23
ATOM     23  C   UNL     1       2.574   5.543  18.610  0.00  0.00    +0.000 A 
ATOM     24  C   UNL     1       1.752   4.451  18.937  0.00  0.00    +0.000 A 
ATOM     25  C   UNL     1       1.966   3.190  18.381  0.00  0.00    +0.000 A 
ATOM     26  C   UNL     1       2.980   3.011  17.454  0.00  0.00    +0.000 A 
ATOM     27  C   UNL     1       3.761   4.099  17.064  0.00  0.00    +0.000 A 
ATOM     28  O   UNL     1       4.709   3.820  16.111  0.00  0.00    +0.000 OA
ATOM     29  C   UNL     1       5.461   4.866  15.614  0.00  0.00    +0.000 A 
ATOM     30  C   UNL     1       5.379   6.128  16.047  0.00  0.00    +0.000 A 
ATOM     31  C   UNL     1       4.452   6.461  17.148  0.00  0.00    +0.000 A 
ATOM     32  O   UNL     1       4.465   7.592  17.613  0.00  0.00    +0.000 OA
ATOM     33  C   UNL     1       3.568   5.368  17.628  0.00  0.00    +0.000 A 
BRANCH  29  34
ATOM     34  C   UNL     1       6.435   4.548  14.534  0.00  0.00    +0.000 C 
ATOM     35  O   UNL     1       6.231   3.773  13.616  0.00  0.00    +0.000 OA
BRANCH  34  36
ATOM     36  O   UNL     1       7.592   5.233  14.682  0.00  0.00    +0.000 OA
ATOM     37  H   UNL     1       8.380   4.691  14.479  0.00  0.00    +0.000 HD
ENDBRANCH  34  36
ENDBRANCH  29  34
ENDBRANCH  22  23
ENDBRANCH  21  22
ENDBRANCH   1  21
TORSDOF 11
ENDMDL
MODEL 4
REMARK VINA RESULT:      -8.0      2.151      4.191
REMARK  Name = 
REMARK  11 active torsions:
REMARK  status: ('A' for Active; 'I' for Inactive)
REMARK    1  A    between atoms: C_2  and  O_3
REMARK    2  A    between atoms: C_2  and  C_4
REMARK    3  A    between atoms: C_9  and  O_10
REMARK    4  A    between atoms: O_10  and  C_11
REMARK    5  A    between atoms: C_11  and  C_12
REMARK    6  A    between atoms: C_12  and  O_13
REMARK    7  A    between atoms: C_12  and  C_14
REMARK    8  A    between atoms: C_14  and  O_15
REMARK    9  A    between atoms: O_15  and  C_16
REMARK   10  A    between atoms: C_22  and  C_23
REMARK   11  A    between atoms: C_23  and  O_25
REMARK                            x       y       z     vdW  Elec       q    Type
REMARK                         _______ _______ _______ _____ _____    ______ ____
ROOT
ATOM      1  C   UNL     1       1.885   8.166  20.827  0.00  0.00    +0.000 C 
ENDROOT
BRANCH   1   2
ATOM      2  O   UNL     1       1.777   8.658  22.172  0.00  0.00    +0.000 OA
ATOM      3  H   UNL     1       1.031   8.203  22.601  0.00  0.00    +0.000 HD
ENDBRANCH   1   2
BRANCH   1   4
ATOM      4  C   UNL     1       1.195   9.107  19.833  0.00  0.00    +0.000 C 
BRANCH   4   5
ATOM      5  O   UNL     1       1.123  10.459  20.239  0.00  0.00    +0.000 OA
BRANCH   5  11
ATOM      6  C   UNL     1      -3.068  12.382  22.948  0.00  0.00    +0.000 A 
ATOM      7  C   UNL     1      -2.036  11.756  23.504  0.00  0.00    +0.000 A 
ATOM      8  C   UNL     1      -0.997  11.174  22.652  0.00  0.00    +0.000 A 
ATOM      9  O   UNL     1      -0.161  10.526  23.259  0.00  0.00    +0.000 OA
ATOM     10  C   UNL     1      -1.058  11.432  21.172  0.00  0.00    +0.000 A 
ATOM     11  C   UNL     1      -0.101  11.090  20.181  0.00  0.00    +0.000 A 
ATOM     12  C   UNL     1      -0.357  11.440  18.836  0.00  0.00    +0.000 A 
ATOM     13  C   UNL     1      -1.518  12.103  18.447  0.00  0.00    +0.000 A 
ATOM     14  C   UNL     1      -2.455  12.437  19.407  0.00  0.00    +0.000 A 
ATOM     15  C   UNL     1      -2.228  12.112  20.749  0.00  0.00    +0.000 A 
ATOM     16  O   UNL     1      -3.237  12.536  21.591  0.00  0.00    +0.000 OA
BRANCH   6  18
ATOM     17  O   UNL     1      -4.265  14.125  24.085  0.00  0.00    +0.000 OA
ATOM     18  C   UNL     1      -4.092  12.936  23.871  0.00  0.00    +0.000 C 
BRANCH  18  19
ATOM     19  O   UNL     1      -4.835  11.968  24.446  0.00  0.00    +0.000 OA
ATOM     20  H   UNL     1      -5.722  12.281  24.707  0.00  0.00    +0.000 HD
ENDBRANCH  18  19
ENDBRANCH   6  18
ENDBRANCH   5  11
ENDBRANCH   4   5
ENDBRANCH   1   4
BRANCH   1  21
ATOM     21  C   UNL     1       1.178   6.798  20.748  0.00  0.00    +0.000 C 
BRANCH  21  22
ATOM     22  O   UNL     1       1.519   6.085  19.553  0.00  0.00    +0.000 OA
BRANCH  22  23
ATOM     23  C   UNL     1       2.423   5.062  19.700  0.00  0.00    +0.000 A 
ATOM     24  C   UNL     1       2.141   3.935  20.491  0.00  0.00    +0.000 A 
ATOM     25  C   UNL     1       3.080   2.919  20.667  0.00  0.00    +0.000 A 
ATOM     26  C   UNL     1       4.302   2.992  20.016  0.00  0.00    +0.000 A 
ATOM     27  C   UNL     1       4.572   4.068  19.171  0.00  0.00    +0.000 A 
ATOM     28  O   UNL     1       5.793   4.021  18.545  0.00  0.00    +0.000 OA
ATOM     29  C   UNL     1       6.093   5.008  17.627  0.00  0.00    +0.000 A 
ATOM     30  C   UNL     1       5.303   6.051  17.353  0.00  0.00    +0.000 A 
ATOM     31  C   UNL     1       4.026   6.207  18.080  0.00  0.00    +0.000 A 
ATOM     32  O   UNL     1       3.364   7.220  17.904  0.00  0.00    +0.000 OA
ATOM     33  C   UNL     1       3.644   5.105  19.000  0.00  0.00    +0.000 A 
BRANCH  29  34
ATOM     34  C   UNL     1       7.395   4.898  16.913  0.00  0.00    +0.000 C 
ATOM     35  O   UNL     1       8.292   4.130  17.213  0.00  0.00    +0.000 OA
BRANCH  34  36
ATOM     36  O   UNL     1       7.471   5.756  15.870  0.00  0.00    +0.000 OA
ATOM     37  H   UNL     1       8.176   5.516  15.236  0.00  0.00    +0.000 HD
ENDBRANCH  34  36
ENDBRANCH  29  34
ENDBRANCH  22  23
ENDBRANCH  21  22
ENDBRANCH   1  21
TORSDOF 11
ENDMDL
MODEL 5
REMARK VINA RESULT:      -8.0      1.236      2.062
REMARK  Name = 
REMARK  11 active torsions:
REMARK  status: ('A' for Active; 'I' for Inactive)
REMARK    1  A    between atoms: C_2  and  O_3
REMARK    2  A    between atoms: C_2  and  C_4
REMARK    3  A    between atoms: C_9  and  O_10
REMARK    4  A    between atoms: O_10  and  C_11
REMARK    5  A    between atoms: C_11  and  C_12
REMARK    6  A    between atoms: C_12  and  O_13
REMARK    7  A    between atoms: C_12  and  C_14
REMARK    8  A    between atoms: C_14  and  O_15
REMARK    9  A    between atoms: O_15  and  C_16
REMARK   10  A    between atoms: C_22  and  C_23
REMARK   11  A    between atoms: C_23  and  O_25
REMARK                            x       y       z     vdW  Elec       q    Type
REMARK                         _______ _______ _______ _____ _____    ______ ____
ROOT
ATOM      1  C   UNL     1       2.316   4.592  20.146  0.00  0.00    +0.000 C 
ENDROOT
BRANCH   1   2
ATOM      2  O   UNL     1       1.288   3.622  19.894  0.00  0.00    +0.000 OA
ATOM      3  H   UNL     1       0.434   4.087  19.861  0.00  0.00    +0.000 HD
ENDBRANCH   1   2
BRANCH   1   4
ATOM      4  C   UNL     1       1.740   5.860  20.786  0.00  0.00    +0.000 C 
BRANCH   4   5
ATOM      5  O   UNL     1       2.062   7.066  20.122  0.00  0.00    +0.000 OA
BRANCH   5  11
ATOM      6  C   UNL     1       0.087  11.856  18.795  0.00  0.00    +0.000 A 
ATOM      7  C   UNL     1       0.676  11.023  17.944  0.00  0.00    +0.000 A 
ATOM      8  C   UNL     1       1.278   9.784  18.441  0.00  0.00    +0.000 A 
ATOM      9  O   UNL     1       1.889   9.153  17.595  0.00  0.00    +0.000 OA
ATOM     10  C   UNL     1       1.082   9.424  19.887  0.00  0.00    +0.000 A 
ATOM     11  C   UNL     1       1.452   8.225  20.552  0.00  0.00    +0.000 A 
ATOM     12  C   UNL     1       1.160   8.091  21.928  0.00  0.00    +0.000 A 
ATOM     13  C   UNL     1       0.530   9.095  22.657  0.00  0.00    +0.000 A 
ATOM     14  C   UNL     1       0.169  10.266  22.017  0.00  0.00    +0.000 A 
ATOM     15  C   UNL     1       0.436  10.428  20.652  0.00  0.00    +0.000 A 
ATOM     16  O   UNL     1      -0.008  11.634  20.150  0.00  0.00    +0.000 OA
BRANCH   6  18
ATOM     17  O   UNL     1      -0.272  14.225  18.645  0.00  0.00    +0.000 OA
ATOM     18  C   UNL     1      -0.490  13.101  18.224  0.00  0.00    +0.000 C 
BRANCH  18  19
ATOM     19  O   UNL     1      -1.284  12.852  17.162  0.00  0.00    +0.000 OA
ATOM     20  H   UNL     1      -1.167  11.950  16.809  0.00  0.00    +0.000 HD
ENDBRANCH  18  19
ENDBRANCH   6  18
ENDBRANCH   5  11
ENDBRANCH   4   5
ENDBRANCH   1   4
BRANCH   1  21
ATOM     21  C   UNL     1       2.951   4.993  18.800  0.00  0.00    +0.000 C 
BRANCH  21  22
ATOM     22  O   UNL     1       4.041   4.135  18.443  0.00  0.00    +0.000 OA
BRANCH  22  23
ATOM     23  C   UNL     1       5.252   4.751  18.244  0.00  0.00    +0.000 A 
ATOM     24  C   UNL     1       6.005   5.265  19.314  0.00  0.00    +0.000 A 
ATOM     25  C   UNL     1       7.214   5.924  19.098  0.00  0.00    +0.000 A 
ATOM     26  C   UNL     1       7.714   6.041  17.811  0.00  0.00    +0.000 A 
ATOM     27  C   UNL     1       7.016   5.474  16.744  0.00  0.00    +0.000 A 
ATOM     28  O   UNL     1       7.620   5.611  15.519  0.00  0.00    +0.000 OA
ATOM     29  C   UNL     1       7.030   5.000  14.430  0.00  0.00    +0.000 A 
ATOM     30  C   UNL     1       5.868   4.340  14.472  0.00  0.00    +0.000 A 
ATOM     31  C   UNL     1       5.124   4.257  15.745  0.00  0.00    +0.000 A 
ATOM     32  O   UNL     1       4.012   3.748  15.750  0.00  0.00    +0.000 OA
ATOM     33  C   UNL     1       5.790   4.825  16.945  0.00  0.00    +0.000 A 
BRANCH  29  34
ATOM     34  C   UNL     1       7.738   5.108  13.125  0.00  0.00    +0.000 C 
ATOM     35  O   UNL     1       7.428   4.509  12.111  0.00  0.00    +0.000 OA
BRANCH  34  36
ATOM     36  O   UNL     1       8.783   5.965  13.189  0.00  0.00    +0.000 OA
ATOM     37  H   UNL     1       9.570   5.636  12.711  0.00  0.00    +0.000 HD
ENDBRANCH  34  36
ENDBRANCH  29  34
ENDBRANCH  22  23
ENDBRANCH  21  22
ENDBRANCH   1  21
TORSDOF 11
ENDMDL
MODEL 6
REMARK VINA RESULT:      -7.9      2.616      4.643
REMARK  Name = 
REMARK  11 active torsions:
REMARK  status: ('A' for Active; 'I' for Inactive)
REMARK    1  A    between atoms: C_2  and  O_3
REMARK    2  A    between atoms: C_2  and  C_4
REMARK    3  A    between atoms: C_9  and  O_10
REMARK    4  A    between atoms: O_10  and  C_11
REMARK    5  A    between atoms: C_11  and  C_12
REMARK    6  A    between atoms: C_12  and  O_13
REMARK    7  A    between atoms: C_12  and  C_14
REMARK    8  A    between atoms: C_14  and  O_15
REMARK    9  A    between atoms: O_15  and  C_16
REMARK   10  A    between atoms: C_22  and  C_23
REMARK   11  A    between atoms: C_23  and  O_25
REMARK                            x       y       z     vdW  Elec       q    Type
REMARK                         _______ _______ _______ _____ _____    ______ ____
ROOT
ATOM      1  C   UNL     1       0.877   9.441  20.599  0.00  0.00    +0.000 C 
ENDROOT
BRANCH   1   2
ATOM      2  O   UNL     1      -0.343   9.599  21.341  0.00  0.00    +0.000 OA
ATOM      3  H   UNL     1      -0.653   8.715  21.605  0.00  0.00    +0.000 HD
ENDBRANCH   1   2
BRANCH   1   4
ATOM      4  C   UNL     1       0.640   9.620  19.095  0.00  0.00    +0.000 C 
BRANCH   4   5
ATOM      5  O   UNL     1       0.066  10.857  18.721  0.00  0.00    +0.000 OA
BRANCH   5  11
ATOM      6  C   UNL     1      -4.823  12.732  19.807  0.00  0.00    +0.000 A 
ATOM      7  C   UNL     1      -3.739  12.996  20.528  0.00  0.00    +0.000 A 
ATOM      8  C   UNL     1      -2.473  12.339  20.200  0.00  0.00    +0.000 A 
ATOM      9  O   UNL     1      -1.575  12.564  20.994  0.00  0.00    +0.000 OA
ATOM     10  C   UNL     1      -2.406  11.490  18.961  0.00  0.00    +0.000 A 
ATOM     11  C   UNL     1      -1.268  10.875  18.378  0.00  0.00    +0.000 A 
ATOM     12  C   UNL     1      -1.432  10.123  17.192  0.00  0.00    +0.000 A 
ATOM     13  C   UNL     1      -2.672   9.958  16.581  0.00  0.00    +0.000 A 
ATOM     14  C   UNL     1      -3.785  10.552  17.144  0.00  0.00    +0.000 A 
ATOM     15  C   UNL     1      -3.655  11.311  18.314  0.00  0.00    +0.000 A 
ATOM     16  O   UNL     1      -4.846  11.864  18.738  0.00  0.00    +0.000 OA
BRANCH   6  18
ATOM     17  O   UNL     1      -6.423  14.522  19.801  0.00  0.00    +0.000 OA
ATOM     18  C   UNL     1      -6.078  13.423  20.204  0.00  0.00    +0.000 C 
BRANCH  18  19
ATOM     19  O   UNL     1      -6.815  12.686  21.060  0.00  0.00    +0.000 OA
ATOM     20  H   UNL     1      -7.719  13.036  21.174  0.00  0.00    +0.000 HD
ENDBRANCH  18  19
ENDBRANCH   6  18
ENDBRANCH   5  11
ENDBRANCH   4   5
ENDBRANCH   1   4
BRANCH   1  21
ATOM     21  C   UNL     1       1.404   8.010  20.824  0.00  0.00    +0.000 C 
BRANCH  21  22
ATOM     22  O   UNL     1       1.817   7.391  19.601  0.00  0.00    +0.000 OA
BRANCH  22  23
ATOM     23  C   UNL     1       2.361   6.135  19.715  0.00  0.00    +0.000 A 
ATOM     24  C   UNL     1       1.865   5.195  20.634  0.00  0.00    +0.000 A 
ATOM     25  C   UNL     1       2.449   3.936  20.771  0.00  0.00    +0.000 A 
ATOM     26  C   UNL     1       3.513   3.580  19.958  0.00  0.00    +0.000 A 
ATOM     27  C   UNL     1       3.975   4.474  18.992  0.00  0.00    +0.000 A 
ATOM     28  O   UNL     1       5.005   4.007  18.214  0.00  0.00    +0.000 OA
ATOM     29  C   UNL     1       5.455   4.803  17.180  0.00  0.00    +0.000 A 
ATOM     30  C   UNL     1       5.003   6.035  16.924  0.00  0.00    +0.000 A 
ATOM     31  C   UNL     1       3.971   6.628  17.799  0.00  0.00    +0.000 A 
ATOM     32  O   UNL     1       3.645   7.794  17.625  0.00  0.00    +0.000 OA
ATOM     33  C   UNL     1       3.408   5.749  18.856  0.00  0.00    +0.000 A 
BRANCH  29  34
ATOM     34  C   UNL     1       6.527   4.246  16.311  0.00  0.00    +0.000 C 
ATOM     35  O   UNL     1       7.661   4.686  16.232  0.00  0.00    +0.000 OA
BRANCH  34  36
ATOM     36  O   UNL     1       6.099   3.172  15.609  0.00  0.00    +0.000 OA
ATOM     37  H   UNL     1       5.328   2.734  16.023  0.00  0.00    +0.000 HD
ENDBRANCH  34  36
ENDBRANCH  29  34
ENDBRANCH  22  23
ENDBRANCH  21  22
ENDBRANCH   1  21
TORSDOF 11
ENDMDL
MODEL 7
REMARK VINA RESULT:      -7.8      2.327     10.474
REMARK  Name = 
REMARK  11 active torsions:
REMARK  status: ('A' for Active; 'I' for Inactive)
REMARK    1  A    between atoms: C_2  and  O_3
REMARK    2  A    between atoms: C_2  and  C_4
REMARK    3  A    between atoms: C_9  and  O_10
REMARK    4  A    between atoms: O_10  and  C_11
REMARK    5  A    between atoms: C_11  and  C_12
REMARK    6  A    between atoms: C_12  and  O_13
REMARK    7  A    between atoms: C_12  and  C_14
REMARK    8  A    between atoms: C_14  and  O_15
REMARK    9  A    between atoms: O_15  and  C_16
REMARK   10  A    between atoms: C_22  and  C_23
REMARK   11  A    between atoms: C_23  and  O_25
REMARK                            x       y       z     vdW  Elec       q    Type
REMARK                         _______ _______ _______ _____ _____    ______ ____
ROOT
ATOM      1  C   UNL     1       0.807   8.503  21.183  0.00  0.00    +0.000 C 
ENDROOT
BRANCH   1   2
ATOM      2  O   UNL     1       1.145   8.998  22.488  0.00  0.00    +0.000 OA
ATOM      3  H   UNL     1       1.144   9.971  22.453  0.00  0.00    +0.000 HD
ENDBRANCH   1   2
BRANCH   1   4
ATOM      4  C   UNL     1       1.595   7.231  20.849  0.00  0.00    +0.000 C 
BRANCH   4   5
ATOM      5  O   UNL     1       2.348   7.290  19.654  0.00  0.00    +0.000 OA
BRANCH   5  11
ATOM      6  C   UNL     1       5.624   5.028  16.082  0.00  0.00    +0.000 A 
ATOM      7  C   UNL     1       5.237   6.298  16.049  0.00  0.00    +0.000 A 
ATOM      8  C   UNL     1       4.250   6.781  17.017  0.00  0.00    +0.000 A 
ATOM      9  O   UNL     1       3.883   7.928  16.823  0.00  0.00    +0.000 OA
ATOM     10  C   UNL     1       3.811   5.853  18.115  0.00  0.00    +0.000 A 
ATOM     11  C   UNL     1       2.980   6.141  19.229  0.00  0.00    +0.000 A 
ATOM     12  C   UNL     1       2.700   5.112  20.156  0.00  0.00    +0.000 A 
ATOM     13  C   UNL     1       3.206   3.823  20.011  0.00  0.00    +0.000 A 
ATOM     14  C   UNL     1       4.014   3.534  18.928  0.00  0.00    +0.000 A 
ATOM     15  C   UNL     1       4.317   4.534  17.996  0.00  0.00    +0.000 A 
ATOM     16  O   UNL     1       5.156   4.103  16.989  0.00  0.00    +0.000 OA
BRANCH   6  18
ATOM     17  O   UNL     1       7.632   5.218  14.781  0.00  0.00    +0.000 OA
ATOM     18  C   UNL     1       6.617   4.602  15.062  0.00  0.00    +0.000 C 
BRANCH  18  19
ATOM     19  O   UNL     1       6.279   3.433  14.480  0.00  0.00    +0.000 OA
ATOM     20  H   UNL     1       6.833   2.688  14.784  0.00  0.00    +0.000 HD
ENDBRANCH  18  19
ENDBRANCH   6  18
ENDBRANCH   5  11
ENDBRANCH   4   5
ENDBRANCH   1   4
BRANCH   1  21
ATOM     21  C   UNL     1       1.182   9.576  20.141  0.00  0.00    +0.000 C 
BRANCH  21  22
ATOM     22  O   UNL     1       0.769  10.886  20.546  0.00  0.00    +0.000 OA
BRANCH  22  23
ATOM     23  C   UNL     1      -0.424  11.328  20.028  0.00  0.00    +0.000 A 
ATOM     24  C   UNL     1      -0.681  11.314  18.647  0.00  0.00    +0.000 A 
ATOM     25  C   UNL     1      -1.879  11.802  18.127  0.00  0.00    +0.000 A 
ATOM     26  C   UNL     1      -2.860  12.272  18.985  0.00  0.00    +0.000 A 
ATOM     27  C   UNL     1      -2.652  12.228  20.364  0.00  0.00    +0.000 A 
ATOM     28  O   UNL     1      -3.702  12.679  21.124  0.00  0.00    +0.000 OA
ATOM     29  C   UNL     1      -3.601  12.584  22.497  0.00  0.00    +0.000 A 
ATOM     30  C   UNL     1      -2.517  12.147  23.147  0.00  0.00    +0.000 A 
ATOM     31  C   UNL     1      -1.319  11.753  22.379  0.00  0.00    +0.000 A 
ATOM     32  O   UNL     1      -0.297  11.460  22.984  0.00  0.00    +0.000 OA
ATOM     33  C   UNL     1      -1.445  11.757  20.899  0.00  0.00    +0.000 A 
BRANCH  29  34
ATOM     34  C   UNL     1      -4.780  13.018  23.296  0.00  0.00    +0.000 C 
ATOM     35  O   UNL     1      -4.763  13.885  24.152  0.00  0.00    +0.000 OA
BRANCH  34  36
ATOM     36  O   UNL     1      -5.897  12.335  22.956  0.00  0.00    +0.000 OA
ATOM     37  H   UNL     1      -6.440  12.089  23.732  0.00  0.00    +0.000 HD
ENDBRANCH  34  36
ENDBRANCH  29  34
ENDBRANCH  22  23
ENDBRANCH  21  22
ENDBRANCH   1  21
TORSDOF 11
ENDMDL
MODEL 8
REMARK VINA RESULT:      -7.8      2.677     10.563
REMARK  Name = 
REMARK  11 active torsions:
REMARK  status: ('A' for Active; 'I' for Inactive)
REMARK    1  A    between atoms: C_2  and  O_3
REMARK    2  A    between atoms: C_2  and  C_4
REMARK    3  A    between atoms: C_9  and  O_10
REMARK    4  A    between atoms: O_10  and  C_11
REMARK    5  A    between atoms: C_11  and  C_12
REMARK    6  A    between atoms: C_12  and  O_13
REMARK    7  A    between atoms: C_12  and  C_14
REMARK    8  A    between atoms: C_14  and  O_15
REMARK    9  A    between atoms: O_15  and  C_16
REMARK   10  A    between atoms: C_22  and  C_23
REMARK   11  A    between atoms: C_23  and  O_25
REMARK                            x       y       z     vdW  Elec       q    Type
REMARK                         _______ _______ _______ _____ _____    ______ ____
ROOT
ATOM      1  C   UNL     1       1.887  10.782  18.343  0.00  0.00    +0.000 C 
ENDROOT
BRANCH   1   2
ATOM      2  O   UNL     1       2.401  11.741  17.406  0.00  0.00    +0.000 OA
ATOM      3  H   UNL     1       1.683  12.358  17.179  0.00  0.00    +0.000 HD
ENDBRANCH   1   2
BRANCH   1   4
ATOM      4  C   UNL     1       1.828   9.379  17.729  0.00  0.00    +0.000 C 
BRANCH   4   5
ATOM      5  O   UNL     1       2.897   8.524  18.085  0.00  0.00    +0.000 OA
BRANCH   5  11
ATOM      6  C   UNL     1       3.768   3.311  18.902  0.00  0.00    +0.000 A 
ATOM      7  C   UNL     1       4.304   4.017  17.912  0.00  0.00    +0.000 A 
ATOM      8  C   UNL     1       3.908   5.414  17.721  0.00  0.00    +0.000 A 
ATOM      9  O   UNL     1       4.371   5.930  16.717  0.00  0.00    +0.000 OA
ATOM     10  C   UNL     1       3.009   6.050  18.745  0.00  0.00    +0.000 A 
ATOM     11  C   UNL     1       2.609   7.408  18.840  0.00  0.00    +0.000 A 
ATOM     12  C   UNL     1       1.760   7.796  19.901  0.00  0.00    +0.000 A 
ATOM     13  C   UNL     1       1.296   6.891  20.852  0.00  0.00    +0.000 A 
ATOM     14  C   UNL     1       1.680   5.566  20.765  0.00  0.00    +0.000 A 
ATOM     15  C   UNL     1       2.528   5.151  19.731  0.00  0.00    +0.000 A 
ATOM     16  O   UNL     1       2.845   3.809  19.793  0.00  0.00    +0.000 OA
BRANCH   6  18
ATOM     17  O   UNL     1       3.737   0.964  18.397  0.00  0.00    +0.000 OA
ATOM     18  C   UNL     1       4.205   1.897  19.029  0.00  0.00    +0.000 C 
BRANCH  18  19
ATOM     19  O   UNL     1       5.204   1.752  19.925  0.00  0.00    +0.000 OA
ATOM     20  H   UNL     1       5.552   0.840  19.955  0.00  0.00    +0.000 HD
ENDBRANCH  18  19
ENDBRANCH   6  18
ENDBRANCH   5  11
ENDBRANCH   4   5
ENDBRANCH   1   4
BRANCH   1  21
ATOM     21  C   UNL     1       0.448  11.190  18.721  0.00  0.00    +0.000 C 
BRANCH  21  22
ATOM     22  O   UNL     1       0.414  12.022  19.886  0.00  0.00    +0.000 OA
BRANCH  22  23
ATOM     23  C   UNL     1      -0.013  11.419  21.044  0.00  0.00    +0.000 A 
ATOM     24  C   UNL     1       0.731  10.400  21.665  0.00  0.00    +0.000 A 
ATOM     25  C   UNL     1       0.270   9.767  22.818  0.00  0.00    +0.000 A 
ATOM     26  C   UNL     1      -0.923  10.172  23.396  0.00  0.00    +0.000 A 
ATOM     27  C   UNL     1      -1.639  11.229  22.834  0.00  0.00    +0.000 A 
ATOM     28  O   UNL     1      -2.783  11.577  23.508  0.00  0.00    +0.000 OA
ATOM     29  C   UNL     1      -3.497  12.670  23.059  0.00  0.00    +0.000 A 
ATOM     30  C   UNL     1      -3.190  13.377  21.966  0.00  0.00    +0.000 A 
ATOM     31  C   UNL     1      -2.030  12.976  21.143  0.00  0.00    +0.000 A 
ATOM     32  O   UNL     1      -1.823  13.558  20.088  0.00  0.00    +0.000 OA
ATOM     33  C   UNL     1      -1.196  11.863  21.664  0.00  0.00    +0.000 A 
BRANCH  29  34
ATOM     34  C   UNL     1      -4.697  13.067  23.846  0.00  0.00    +0.000 C 
ATOM     35  O   UNL     1      -5.700  12.388  23.980  0.00  0.00    +0.000 OA
BRANCH  34  36
ATOM     36  O   UNL     1      -4.546  14.286  24.413  0.00  0.00    +0.000 OA
ATOM     37  H   UNL     1      -4.736  15.017  23.792  0.00  0.00    +0.000 HD
ENDBRANCH  34  36
ENDBRANCH  29  34
ENDBRANCH  22  23
ENDBRANCH  21  22
ENDBRANCH   1  21
TORSDOF 11
ENDMDL
MODEL 9
REMARK VINA RESULT:      -7.8      1.437      2.454
REMARK  Name = 
REMARK  11 active torsions:
REMARK  status: ('A' for Active; 'I' for Inactive)
REMARK    1  A    between atoms: C_2  and  O_3
REMARK    2  A    between atoms: C_2  and  C_4
REMARK    3  A    between atoms: C_9  and  O_10
REMARK    4  A    between atoms: O_10  and  C_11
REMARK    5  A    between atoms: C_11  and  C_12
REMARK    6  A    between atoms: C_12  and  O_13
REMARK    7  A    between atoms: C_12  and  C_14
REMARK    8  A    between atoms: C_14  and  O_15
REMARK    9  A    between atoms: O_15  and  C_16
REMARK   10  A    between atoms: C_22  and  C_23
REMARK   11  A    between atoms: C_23  and  O_25
REMARK                            x       y       z     vdW  Elec       q    Type
REMARK                         _______ _______ _______ _____ _____    ______ ____
ROOT
ATOM      1  C   UNL     1       2.240   5.637  19.425  0.00  0.00    +0.000 C 
ENDROOT
BRANCH   1   2
ATOM      2  O   UNL     1       2.531   6.147  18.114  0.00  0.00    +0.000 OA
ATOM      3  H   UNL     1       1.972   5.672  17.474  0.00  0.00    +0.000 HD
ENDBRANCH   1   2
BRANCH   1   4
ATOM      4  C   UNL     1       1.852   6.766  20.387  0.00  0.00    +0.000 C 
BRANCH   4   5
ATOM      5  O   UNL     1       1.773   8.051  19.802  0.00  0.00    +0.000 OA
BRANCH   5  11
ATOM      6  C   UNL     1      -0.033  13.085  19.807  0.00  0.00    +0.000 A 
ATOM      7  C   UNL     1       0.720  12.557  18.849  0.00  0.00    +0.000 A 
ATOM      8  C   UNL     1       1.248  11.201  19.006  0.00  0.00    +0.000 A 
ATOM      9  O   UNL     1       2.019  10.861  18.124  0.00  0.00    +0.000 OA
ATOM     10  C   UNL     1       0.800  10.391  20.191  0.00  0.00    +0.000 A 
ATOM     11  C   UNL     1       1.068   9.027  20.474  0.00  0.00    +0.000 A 
ATOM     12  C   UNL     1       0.532   8.456  21.651  0.00  0.00    +0.000 A 
ATOM     13  C   UNL     1      -0.244   9.188  22.546  0.00  0.00    +0.000 A 
ATOM     14  C   UNL     1      -0.507  10.518  22.278  0.00  0.00    +0.000 A 
ATOM     15  C   UNL     1       0.001  11.110  21.115  0.00  0.00    +0.000 A 
ATOM     16  O   UNL     1      -0.370  12.432  20.971  0.00  0.00    +0.000 OA
BRANCH   6  18
ATOM     17  O   UNL     1      -1.442  14.989  20.204  0.00  0.00    +0.000 OA
ATOM     18  C   UNL     1      -0.524  14.470  19.588  0.00  0.00    +0.000 C 
BRANCH  18  19
ATOM     19  O   UNL     1       0.175  15.112  18.629  0.00  0.00    +0.000 OA
ATOM     20  H   UNL     1       0.666  14.498  18.050  0.00  0.00    +0.000 HD
ENDBRANCH  18  19
ENDBRANCH   6  18
ENDBRANCH   5  11
ENDBRANCH   4   5
ENDBRANCH   1   4
BRANCH   1  21
ATOM     21  C   UNL     1       3.509   4.961  19.980  0.00  0.00    +0.000 C 
BRANCH  21  22
ATOM     22  O   UNL     1       4.236   4.264  18.962  0.00  0.00    +0.000 OA
BRANCH  22  23
ATOM     23  C   UNL     1       5.435   4.821  18.590  0.00  0.00    +0.000 A 
ATOM     24  C   UNL     1       6.333   5.344  19.536  0.00  0.00    +0.000 A 
ATOM     25  C   UNL     1       7.529   5.943  19.146  0.00  0.00    +0.000 A 
ATOM     26  C   UNL     1       7.869   5.991  17.803  0.00  0.00    +0.000 A 
ATOM     27  C   UNL     1       7.023   5.414  16.855  0.00  0.00    +0.000 A 
ATOM     28  O   UNL     1       7.474   5.480  15.560  0.00  0.00    +0.000 OA
ATOM     29  C   UNL     1       6.731   4.854  14.579  0.00  0.00    +0.000 A 
ATOM     30  C   UNL     1       5.560   4.244  14.791  0.00  0.00    +0.000 A 
ATOM     31  C   UNL     1       4.978   4.240  16.148  0.00  0.00    +0.000 A 
ATOM     32  O   UNL     1       3.857   3.778  16.311  0.00  0.00    +0.000 OA
ATOM     33  C   UNL     1       5.809   4.824  17.232  0.00  0.00    +0.000 A 
BRANCH  29  34
ATOM     34  C   UNL     1       7.275   4.883  13.193  0.00  0.00    +0.000 C 
ATOM     35  O   UNL     1       8.118   5.665  12.791  0.00  0.00    +0.000 OA
BRANCH  34  36
ATOM     36  O   UNL     1       6.725   3.922  12.417  0.00  0.00    +0.000 OA
ATOM     37  H   UNL     1       5.960   3.486  12.842  0.00  0.00    +0.000 HD
ENDBRANCH  34  36
ENDBRANCH  29  34
ENDBRANCH  22  23
ENDBRANCH  21  22
ENDBRANCH   1  21
TORSDOF 11
ENDMDL
