MODEL 1
REMARK VINA RESULT:      -8.1      0.000      0.000
REMARK  Name = 
REMARK  7 active torsions:
REMARK  status: ('A' for Active; 'I' for Inactive)
REMARK    1  A    between atoms: C_1  and  O_2
REMARK    2  A    between atoms: O_2  and  C_3
REMARK    3  A    between atoms: C_6  and  N_7
REMARK    4  A    between atoms: C_13  and  C_14
REMARK    5  A    between atoms: C_14  and  O_15
REMARK    6  A    between atoms: O_15  and  C_16
REMARK    7  A    between atoms: C_21  and  C_22
REMARK                            x       y       z     vdW  Elec       q    Type
REMARK                         _______ _______ _______ _____ _____    ______ ____
ROOT
ATOM      1  C   UNL     1       2.243   6.028  18.609  0.00  0.00    +0.000 C 
ENDROOT
BRANCH   1   7
ATOM      2  C   UNL     1       2.363   8.489  17.838  0.00  0.00    +0.000 A 
ATOM      3  C   UNL     1       1.924   9.809  17.992  0.00  0.00    +0.000 A 
ATOM      4  C   UNL     1       1.338  10.229  19.181  0.00  0.00    +0.000 A 
ATOM      5  C   UNL     1       1.162   9.317  20.225  0.00  0.00    +0.000 A 
ATOM      6  C   UNL     1       1.466   7.966  20.019  0.00  0.00    +0.000 A 
ATOM      7  C   UNL     1       2.023   7.520  18.800  0.00  0.00    +0.000 A 
BRANCH   5   8
ATOM      8  N   UNL     1       0.705   9.789  21.476  0.00  0.00    +0.000 N 
ATOM      9  C   UNL     1      -0.157  10.819  21.757  0.00  0.00    +0.000 A 
ATOM     10  N   UNL     1      -0.363  10.872  23.054  0.00  0.00    +0.000 NA
ATOM     11  N   UNL     1       0.381   9.856  23.591  0.00  0.00    +0.000 NA
ATOM     12  N   UNL     1       1.030   9.190  22.647  0.00  0.00    +0.000 NA
ENDBRANCH   5   8
BRANCH   2  14
ATOM     13  C   UNL     1       4.442   7.635  17.113  0.00  0.00    +0.000 C 
ATOM     14  O   UNL     1       3.131   8.110  16.766  0.00  0.00    +0.000 OA
ENDBRANCH   2  14
ENDBRANCH   1   7
BRANCH   1  15
ATOM     15  O   UNL     1       3.146   5.587  19.638  0.00  0.00    +0.000 OA
BRANCH  15  16
ATOM     16  C   UNL     1       3.276   4.165  19.792  0.00  0.00    +0.000 C 
ATOM     17  C   UNL     1       2.217   3.384  18.999  0.00  0.00    +0.000 C 
ATOM     18  C   UNL     1       2.460   1.874  19.040  0.00  0.00    +0.000 C 
ATOM     19  C   UNL     1       3.919   1.472  18.829  0.00  0.00    +0.000 C 
ATOM     20  N   UNL     1       4.837   2.245  19.663  0.00  0.00    +0.000 NA
ATOM     21  C   UNL     1       4.730   3.705  19.410  0.00  0.00    +0.000 C 
ATOM     22  H   UNL     1       5.791   1.941  19.480  0.00  0.00    +0.000 HD
BRANCH  21  23
ATOM     23  C   UNL     1       5.312   4.085  18.039  0.00  0.00    +0.000 A 
ATOM     24  C   UNL     1       4.625   3.918  16.827  0.00  0.00    +0.000 A 
ATOM     25  C   UNL     1       5.217   4.237  15.601  0.00  0.00    +0.000 A 
ATOM     26  C   UNL     1       6.503   4.763  15.560  0.00  0.00    +0.000 A 
ATOM     27  C   UNL     1       7.194   4.978  16.748  0.00  0.00    +0.000 A 
ATOM     28  C   UNL     1       6.604   4.645  17.972  0.00  0.00    +0.000 A 
ENDBRANCH  21  23
ENDBRANCH  15  16
ENDBRANCH   1  15
TORSDOF 6
ENDMDL
MODEL 2
REMARK VINA RESULT:      -8.1      0.903      1.060
REMARK  Name = 
REMARK  7 active torsions:
REMARK  status: ('A' for Active; 'I' for Inactive)
REMARK    1  A    between atoms: C_1  and  O_2
REMARK    2  A    between atoms: O_2  and  C_3
REMARK    3  A    between atoms: C_6  and  N_7
REMARK    4  A    between atoms: C_13  and  C_14
REMARK    5  A    between atoms: C_14  and  O_15
REMARK    6  A    between atoms: O_15  and  C_16
REMARK    7  A    between atoms: C_21  and  C_22
REMARK                            x       y       z     vdW  Elec       q    Type
REMARK                         _______ _______ _______ _____ _____    ______ ____
ROOT
ATOM      1  C   UNL     1       2.017   6.030  20.532  0.00  0.00    +0.000 C 
ENDROOT
BRANCH   1   7
ATOM      2  C   UNL     1       2.207   7.755  18.621  0.00  0.00    +0.000 A 
ATOM      3  C   UNL     1       1.813   8.985  18.082  0.00  0.00    +0.000 A 
ATOM      4  C   UNL     1       1.256   9.970  18.891  0.00  0.00    +0.000 A 
ATOM      5  C   UNL     1       1.064   9.719  20.253  0.00  0.00    +0.000 A 
ATOM      6  C   UNL     1       1.321   8.440  20.761  0.00  0.00    +0.000 A 
ATOM      7  C   UNL     1       1.848   7.419  19.940  0.00  0.00    +0.000 A 
BRANCH   5   8
ATOM      8  N   UNL     1       0.638  10.775  21.090  0.00  0.00    +0.000 N 
ATOM      9  C   UNL     1       0.720  12.131  20.893  0.00  0.00    +0.000 A 
ATOM     10  N   UNL     1       0.140  12.751  21.896  0.00  0.00    +0.000 NA
ATOM     11  N   UNL     1      -0.313  11.765  22.732  0.00  0.00    +0.000 NA
ATOM     12  N   UNL     1      -0.021  10.565  22.254  0.00  0.00    +0.000 NA
ENDBRANCH   5   8
BRANCH   2  14
ATOM     13  C   UNL     1       4.068   7.438  17.202  0.00  0.00    +0.000 C 
ATOM     14  O   UNL     1       2.949   6.859  17.893  0.00  0.00    +0.000 OA
ENDBRANCH   2  14
ENDBRANCH   1   7
BRANCH   1  15
ATOM     15  O   UNL     1       3.162   5.427  19.905  0.00  0.00    +0.000 OA
BRANCH  15  16
ATOM     16  C   UNL     1       3.144   3.994  19.808  0.00  0.00    +0.000 C 
ATOM     17  C   UNL     1       2.049   3.478  18.862  0.00  0.00    +0.000 C 
ATOM     18  C   UNL     1       2.139   1.967  18.641  0.00  0.00    +0.000 C 
ATOM     19  C   UNL     1       3.558   1.456  18.402  0.00  0.00    +0.000 C 
ATOM     20  N   UNL     1       4.510   1.972  19.385  0.00  0.00    +0.000 NA
ATOM     21  C   UNL     1       4.560   3.456  19.391  0.00  0.00    +0.000 C 
ATOM     22  H   UNL     1       5.437   1.604  19.177  0.00  0.00    +0.000 HD
BRANCH  21  23
ATOM     23  C   UNL     1       5.239   4.004  18.125  0.00  0.00    +0.000 A 
ATOM     24  C   UNL     1       4.717   3.850  16.832  0.00  0.00    +0.000 A 
ATOM     25  C   UNL     1       5.397   4.327  15.707  0.00  0.00    +0.000 A 
ATOM     26  C   UNL     1       6.604   5.002  15.853  0.00  0.00    +0.000 A 
ATOM     27  C   UNL     1       7.126   5.206  17.126  0.00  0.00    +0.000 A 
ATOM     28  C   UNL     1       6.450   4.715  18.248  0.00  0.00    +0.000 A 
ENDBRANCH  21  23
ENDBRANCH  15  16
ENDBRANCH   1  15
TORSDOF 6
ENDMDL
MODEL 3
REMARK VINA RESULT:      -7.9      2.632      4.522
REMARK  Name = 
REMARK  7 active torsions:
REMARK  status: ('A' for Active; 'I' for Inactive)
REMARK    1  A    between atoms: C_1  and  O_2
REMARK    2  A    between atoms: O_2  and  C_3
REMARK    3  A    between atoms: C_6  and  N_7
REMARK    4  A    between atoms: C_13  and  C_14
REMARK    5  A    between atoms: C_14  and  O_15
REMARK    6  A    between atoms: O_15  and  C_16
REMARK    7  A    between atoms: C_21  and  C_22
REMARK                            x       y       z     vdW  Elec       q    Type
REMARK                         _______ _______ _______ _____ _____    ______ ____
ROOT
ATOM      1  C   UNL     1       3.082   3.678  17.192  0.00  0.00    +0.000 C 
ENDROOT
BRANCH   1   7
ATOM      2  C   UNL     1       2.403   4.192  19.629  0.00  0.00    +0.000 A 
ATOM      3  C   UNL     1       2.242   5.139  20.647  0.00  0.00    +0.000 A 
ATOM      4  C   UNL     1       2.120   6.491  20.348  0.00  0.00    +0.000 A 
ATOM      5  C   UNL     1       2.183   6.913  19.017  0.00  0.00    +0.000 A 
ATOM      6  C   UNL     1       2.491   5.985  18.014  0.00  0.00    +0.000 A 
ATOM      7  C   UNL     1       2.659   4.615  18.311  0.00  0.00    +0.000 A 
BRANCH   5   8
ATOM      8  N   UNL     1       1.910   8.266  18.713  0.00  0.00    +0.000 N 
ATOM      9  C   UNL     1       1.255   9.212  19.461  0.00  0.00    +0.000 A 
ATOM     10  N   UNL     1       1.282  10.362  18.827  0.00  0.00    +0.000 NA
ATOM     11  N   UNL     1       1.967  10.130  17.664  0.00  0.00    +0.000 NA
ATOM     12  N   UNL     1       2.355   8.866  17.584  0.00  0.00    +0.000 NA
ENDBRANCH   5   8
BRANCH   2  14
ATOM     13  C   UNL     1       2.199   2.509  21.273  0.00  0.00    +0.000 C 
ATOM     14  O   UNL     1       2.311   2.846  19.881  0.00  0.00    +0.000 OA
ENDBRANCH   2  14
ENDBRANCH   1   7
BRANCH   1  15
ATOM     15  O   UNL     1       4.516   3.576  17.229  0.00  0.00    +0.000 OA
BRANCH  15  16
ATOM     16  C   UNL     1       5.226   4.795  17.501  0.00  0.00    +0.000 C 
ATOM     17  C   UNL     1       6.612   4.548  18.117  0.00  0.00    +0.000 C 
ATOM     18  C   UNL     1       7.422   5.838  18.256  0.00  0.00    +0.000 C 
ATOM     19  C   UNL     1       7.362   6.746  17.028  0.00  0.00    +0.000 C 
ATOM     20  N   UNL     1       5.995   6.950  16.552  0.00  0.00    +0.000 NA
ATOM     21  C   UNL     1       5.328   5.670  16.200  0.00  0.00    +0.000 C 
ATOM     22  H   UNL     1       6.013   7.556  15.734  0.00  0.00    +0.000 HD
BRANCH  21  23
ATOM     23  C   UNL     1       5.915   5.060  14.917  0.00  0.00    +0.000 A 
ATOM     24  C   UNL     1       7.182   5.384  14.409  0.00  0.00    +0.000 A 
ATOM     25  C   UNL     1       7.651   4.835  13.212  0.00  0.00    +0.000 A 
ATOM     26  C   UNL     1       6.875   3.922  12.508  0.00  0.00    +0.000 A 
ATOM     27  C   UNL     1       5.631   3.551  13.007  0.00  0.00    +0.000 A 
ATOM     28  C   UNL     1       5.158   4.112  14.198  0.00  0.00    +0.000 A 
ENDBRANCH  21  23
ENDBRANCH  15  16
ENDBRANCH   1  15
TORSDOF 6
ENDMDL
MODEL 4
REMARK VINA RESULT:      -7.9      2.086      3.959
REMARK  Name = 
REMARK  7 active torsions:
REMARK  status: ('A' for Active; 'I' for Inactive)
REMARK    1  A    between atoms: C_1  and  O_2
REMARK    2  A    between atoms: O_2  and  C_3
REMARK    3  A    between atoms: C_6  and  N_7
REMARK    4  A    between atoms: C_13  and  C_14
REMARK    5  A    between atoms: C_14  and  O_15
REMARK    6  A    between atoms: O_15  and  C_16
REMARK    7  A    between atoms: C_21  and  C_22
REMARK                            x       y       z     vdW  Elec       q    Type
REMARK                         _______ _______ _______ _____ _____    ______ ____
ROOT
ATOM      1  C   UNL     1       3.022   7.548  17.446  0.00  0.00    +0.000 C 
ENDROOT
BRANCH   1   7
ATOM      2  C   UNL     1       2.037   7.473  19.831  0.00  0.00    +0.000 A 
ATOM      3  C   UNL     1       1.419   8.152  20.888  0.00  0.00    +0.000 A 
ATOM      4  C   UNL     1       0.746   9.348  20.668  0.00  0.00    +0.000 A 
ATOM      5  C   UNL     1       0.706   9.892  19.381  0.00  0.00    +0.000 A 
ATOM      6  C   UNL     1       1.445   9.291  18.355  0.00  0.00    +0.000 A 
ATOM      7  C   UNL     1       2.168   8.098  18.577  0.00  0.00    +0.000 A 
BRANCH   5   8
ATOM      8  N   UNL     1      -0.104  11.025  19.141  0.00  0.00    +0.000 N 
ATOM      9  C   UNL     1       0.264  12.301  18.795  0.00  0.00    +0.000 A 
ATOM     10  N   UNL     1      -0.814  13.027  18.603  0.00  0.00    +0.000 NA
ATOM     11  N   UNL     1      -1.873  12.189  18.832  0.00  0.00    +0.000 NA
ATOM     12  N   UNL     1      -1.457  10.974  19.156  0.00  0.00    +0.000 NA
ENDBRANCH   5   8
BRANCH   2  14
ATOM     13  C   UNL     1       1.576   5.273  20.555  0.00  0.00    +0.000 C 
ATOM     14  O   UNL     1       2.517   6.196  19.983  0.00  0.00    +0.000 OA
ENDBRANCH   2  14
ENDBRANCH   1   7
BRANCH   1  15
ATOM     15  O   UNL     1       4.270   7.116  18.015  0.00  0.00    +0.000 OA
BRANCH  15  16
ATOM     16  C   UNL     1       5.185   6.476  17.111  0.00  0.00    +0.000 C 
ATOM     17  C   UNL     1       6.552   6.195  17.753  0.00  0.00    +0.000 C 
ATOM     18  C   UNL     1       7.463   5.374  16.838  0.00  0.00    +0.000 C 
ATOM     19  C   UNL     1       6.764   4.200  16.155  0.00  0.00    +0.000 C 
ATOM     20  N   UNL     1       5.496   4.587  15.540  0.00  0.00    +0.000 NA
ATOM     21  C   UNL     1       4.548   5.164  16.526  0.00  0.00    +0.000 C 
ATOM     22  H   UNL     1       5.073   3.770  15.103  0.00  0.00    +0.000 HD
BRANCH  21  23
ATOM     23  C   UNL     1       4.004   4.091  17.483  0.00  0.00    +0.000 A 
ATOM     24  C   UNL     1       4.639   3.717  18.676  0.00  0.00    +0.000 A 
ATOM     25  C   UNL     1       4.128   2.701  19.490  0.00  0.00    +0.000 A 
ATOM     26  C   UNL     1       2.946   2.055  19.144  0.00  0.00    +0.000 A 
ATOM     27  C   UNL     1       2.272   2.432  17.988  0.00  0.00    +0.000 A 
ATOM     28  C   UNL     1       2.793   3.439  17.169  0.00  0.00    +0.000 A 
ENDBRANCH  21  23
ENDBRANCH  15  16
ENDBRANCH   1  15
TORSDOF 6
ENDMDL
MODEL 5
REMARK VINA RESULT:      -7.8      0.941      1.492
REMARK  Name = 
REMARK  7 active torsions:
REMARK  status: ('A' for Active; 'I' for Inactive)
REMARK    1  A    between atoms: C_1  and  O_2
REMARK    2  A    between atoms: O_2  and  C_3
REMARK    3  A    between atoms: C_6  and  N_7
REMARK    4  A    between atoms: C_13  and  C_14
REMARK    5  A    between atoms: C_14  and  O_15
REMARK    6  A    between atoms: O_15  and  C_16
REMARK    7  A    between atoms: C_21  and  C_22
REMARK                            x       y       z     vdW  Elec       q    Type
REMARK                         _______ _______ _______ _____ _____    ______ ____
ROOT
ATOM      1  C   UNL     1       1.984   6.002  20.611  0.00  0.00    +0.000 C 
ENDROOT
BRANCH   1   7
ATOM      2  C   UNL     1       2.189   7.756  18.729  0.00  0.00    +0.000 A 
ATOM      3  C   UNL     1       1.782   8.984  18.193  0.00  0.00    +0.000 A 
ATOM      4  C   UNL     1       1.176   9.944  18.997  0.00  0.00    +0.000 A 
ATOM      5  C   UNL     1       0.949   9.671  20.348  0.00  0.00    +0.000 A 
ATOM      6  C   UNL     1       1.222   8.392  20.849  0.00  0.00    +0.000 A 
ATOM      7  C   UNL     1       1.799   7.394  20.031  0.00  0.00    +0.000 A 
BRANCH   5   8
ATOM      8  N   UNL     1       0.472  10.705  21.186  0.00  0.00    +0.000 N 
ATOM      9  C   UNL     1      -0.384  10.633  22.256  0.00  0.00    +0.000 A 
ATOM     10  N   UNL     1      -0.509  11.826  22.793  0.00  0.00    +0.000 NA
ATOM     11  N   UNL     1       0.285  12.656  22.045  0.00  0.00    +0.000 NA
ATOM     12  N   UNL     1       0.885  11.988  21.071  0.00  0.00    +0.000 NA
ENDBRANCH   5   8
BRANCH   2  14
ATOM     13  C   UNL     1       4.032   7.519  17.272  0.00  0.00    +0.000 C 
ATOM     14  O   UNL     1       2.975   6.888  18.012  0.00  0.00    +0.000 OA
ENDBRANCH   2  14
ENDBRANCH   1   7
BRANCH   1  15
ATOM     15  O   UNL     1       3.133   5.416  19.974  0.00  0.00    +0.000 OA
BRANCH  15  16
ATOM     16  C   UNL     1       3.111   3.987  19.830  0.00  0.00    +0.000 C 
ATOM     17  C   UNL     1       2.036   3.508  18.843  0.00  0.00    +0.000 C 
ATOM     18  C   UNL     1       2.123   2.005  18.575  0.00  0.00    +0.000 C 
ATOM     19  C   UNL     1       3.546   1.495  18.350  0.00  0.00    +0.000 C 
ATOM     20  N   UNL     1       4.478   1.973  19.370  0.00  0.00    +0.000 NA
ATOM     21  C   UNL     1       4.534   3.456  19.426  0.00  0.00    +0.000 C 
ATOM     22  H   UNL     1       5.407   1.608  19.171  0.00  0.00    +0.000 HD
BRANCH  21  23
ATOM     23  C   UNL     1       5.243   4.043  18.195  0.00  0.00    +0.000 A 
ATOM     24  C   UNL     1       6.451   4.752  18.256  0.00  0.00    +0.000 A 
ATOM     25  C   UNL     1       7.032   5.307  17.111  0.00  0.00    +0.000 A 
ATOM     26  C   UNL     1       6.433   5.135  15.868  0.00  0.00    +0.000 A 
ATOM     27  C   UNL     1       5.256   4.401  15.770  0.00  0.00    +0.000 A 
ATOM     28  C   UNL     1       4.669   3.860  16.919  0.00  0.00    +0.000 A 
ENDBRANCH  21  23
ENDBRANCH  15  16
ENDBRANCH   1  15
TORSDOF 6
ENDMDL
MODEL 6
REMARK VINA RESULT:      -7.8      2.896      8.451
REMARK  Name = 
REMARK  7 active torsions:
REMARK  status: ('A' for Active; 'I' for Inactive)
REMARK    1  A    between atoms: C_1  and  O_2
REMARK    2  A    between atoms: O_2  and  C_3
REMARK    3  A    between atoms: C_6  and  N_7
REMARK    4  A    between atoms: C_13  and  C_14
REMARK    5  A    between atoms: C_14  and  O_15
REMARK    6  A    between atoms: O_15  and  C_16
REMARK    7  A    between atoms: C_21  and  C_22
REMARK                            x       y       z     vdW  Elec       q    Type
REMARK                         _______ _______ _______ _____ _____    ______ ____
ROOT
ATOM      1  C   UNL     1       2.605   8.724  18.172  0.00  0.00    +0.000 C 
ENDROOT
BRANCH   1   7
ATOM      2  C   UNL     1       2.691   6.240  18.867  0.00  0.00    +0.000 A 
ATOM      3  C   UNL     1       3.037   4.923  18.543  0.00  0.00    +0.000 A 
ATOM      4  C   UNL     1       3.970   4.658  17.547  0.00  0.00    +0.000 A 
ATOM      5  C   UNL     1       4.551   5.717  16.844  0.00  0.00    +0.000 A 
ATOM      6  C   UNL     1       4.097   7.023  17.066  0.00  0.00    +0.000 A 
ATOM      7  C   UNL     1       3.119   7.300  18.046  0.00  0.00    +0.000 A 
BRANCH   5   8
ATOM      8  N   UNL     1       5.604   5.445  15.941  0.00  0.00    +0.000 N 
ATOM      9  C   UNL     1       5.608   4.650  14.822  0.00  0.00    +0.000 A 
ATOM     10  N   UNL     1       6.781   4.732  14.235  0.00  0.00    +0.000 NA
ATOM     11  N   UNL     1       7.520   5.596  15.000  0.00  0.00    +0.000 NA
ATOM     12  N   UNL     1       6.818   6.036  16.034  0.00  0.00    +0.000 NA
ENDBRANCH   5   8
BRANCH   2  14
ATOM     13  C   UNL     1       1.666   5.399  20.821  0.00  0.00    +0.000 C 
ATOM     14  O   UNL     1       1.942   6.531  19.980  0.00  0.00    +0.000 OA
ENDBRANCH   2  14
ENDBRANCH   1   7
BRANCH   1  15
ATOM     15  O   UNL     1       1.172   8.662  18.277  0.00  0.00    +0.000 OA
BRANCH  15  16
ATOM     16  C   UNL     1       0.458   9.834  17.854  0.00  0.00    +0.000 C 
ATOM     17  C   UNL     1      -0.996   9.534  17.463  0.00  0.00    +0.000 C 
ATOM     18  C   UNL     1      -1.791  10.807  17.168  0.00  0.00    +0.000 C 
ATOM     19  C   UNL     1      -1.564  11.931  18.177  0.00  0.00    +0.000 C 
ATOM     20  N   UNL     1      -0.145  12.164  18.442  0.00  0.00    +0.000 NA
ATOM     21  C   UNL     1       0.534  10.949  18.960  0.00  0.00    +0.000 C 
ATOM     22  H   UNL     1      -0.051  12.917  19.121  0.00  0.00    +0.000 HD
BRANCH  21  23
ATOM     23  C   UNL     1       0.096  10.625  20.397  0.00  0.00    +0.000 A 
ATOM     24  C   UNL     1      -0.311  11.595  21.325  0.00  0.00    +0.000 A 
ATOM     25  C   UNL     1      -0.656  11.254  22.637  0.00  0.00    +0.000 A 
ATOM     26  C   UNL     1      -0.633   9.924  23.043  0.00  0.00    +0.000 A 
ATOM     27  C   UNL     1      -0.273   8.936  22.134  0.00  0.00    +0.000 A 
ATOM     28  C   UNL     1       0.085   9.282  20.826  0.00  0.00    +0.000 A 
ENDBRANCH  21  23
ENDBRANCH  15  16
ENDBRANCH   1  15
TORSDOF 6
ENDMDL
MODEL 7
REMARK VINA RESULT:      -7.7      3.104      8.243
REMARK  Name = 
REMARK  7 active torsions:
REMARK  status: ('A' for Active; 'I' for Inactive)
REMARK    1  A    between atoms: C_1  and  O_2
REMARK    2  A    between atoms: O_2  and  C_3
REMARK    3  A    between atoms: C_6  and  N_7
REMARK    4  A    between atoms: C_13  and  C_14
REMARK    5  A    between atoms: C_14  and  O_15
REMARK    6  A    between atoms: O_15  and  C_16
REMARK    7  A    between atoms: C_21  and  C_22
REMARK                            x       y       z     vdW  Elec       q    Type
REMARK                         _______ _______ _______ _____ _____    ______ ____
ROOT
ATOM      1  C   UNL     1       1.892   7.536  19.816  0.00  0.00    +0.000 C 
ENDROOT
BRANCH   1   7
ATOM      2  C   UNL     1       2.072   5.089  19.014  0.00  0.00    +0.000 A 
ATOM      3  C   UNL     1       2.610   4.168  18.107  0.00  0.00    +0.000 A 
ATOM      4  C   UNL     1       3.758   4.471  17.384  0.00  0.00    +0.000 A 
ATOM      5  C   UNL     1       4.369   5.717  17.546  0.00  0.00    +0.000 A 
ATOM      6  C   UNL     1       3.750   6.690  18.340  0.00  0.00    +0.000 A 
ATOM      7  C   UNL     1       2.560   6.409  19.047  0.00  0.00    +0.000 A 
BRANCH   5   8
ATOM      8  N   UNL     1       5.615   5.956  16.922  0.00  0.00    +0.000 N 
ATOM      9  C   UNL     1       6.596   6.857  17.251  0.00  0.00    +0.000 A 
ATOM     10  N   UNL     1       7.620   6.698  16.444  0.00  0.00    +0.000 NA
ATOM     11  N   UNL     1       7.273   5.679  15.597  0.00  0.00    +0.000 NA
ATOM     12  N   UNL     1       6.062   5.219  15.878  0.00  0.00    +0.000 NA
ENDBRANCH   5   8
BRANCH   2  14
ATOM     13  C   UNL     1       1.120   3.364  20.315  0.00  0.00    +0.000 C 
ATOM     14  O   UNL     1       1.075   4.735  19.888  0.00  0.00    +0.000 OA
ENDBRANCH   2  14
ENDBRANCH   1   7
BRANCH   1  15
ATOM     15  O   UNL     1       1.365   8.467  18.854  0.00  0.00    +0.000 OA
BRANCH  15  16
ATOM     16  C   UNL     1       1.684   9.849  19.077  0.00  0.00    +0.000 C 
ATOM     17  C   UNL     1       2.317  10.517  17.847  0.00  0.00    +0.000 C 
ATOM     18  C   UNL     1       2.506  12.023  18.038  0.00  0.00    +0.000 C 
ATOM     19  C   UNL     1       1.304  12.726  18.666  0.00  0.00    +0.000 C 
ATOM     20  N   UNL     1       0.810  12.033  19.855  0.00  0.00    +0.000 NA
ATOM     21  C   UNL     1       0.411  10.633  19.561  0.00  0.00    +0.000 C 
ATOM     22  H   UNL     1       0.010  12.540  20.229  0.00  0.00    +0.000 HD
BRANCH  21  23
ATOM     23  C   UNL     1      -0.879  10.576  18.726  0.00  0.00    +0.000 A 
ATOM     24  C   UNL     1      -1.033   9.778  17.583  0.00  0.00    +0.000 A 
ATOM     25  C   UNL     1      -2.212   9.797  16.831  0.00  0.00    +0.000 A 
ATOM     26  C   UNL     1      -3.281  10.593  17.225  0.00  0.00    +0.000 A 
ATOM     27  C   UNL     1      -3.173  11.364  18.378  0.00  0.00    +0.000 A 
ATOM     28  C   UNL     1      -1.988  11.353  19.120  0.00  0.00    +0.000 A 
ENDBRANCH  21  23
ENDBRANCH  15  16
ENDBRANCH   1  15
TORSDOF 6
ENDMDL
MODEL 8
REMARK VINA RESULT:      -7.7      3.035      3.942
REMARK  Name = 
REMARK  7 active torsions:
REMARK  status: ('A' for Active; 'I' for Inactive)
REMARK    1  A    between atoms: C_1  and  O_2
REMARK    2  A    between atoms: O_2  and  C_3
REMARK    3  A    between atoms: C_6  and  N_7
REMARK    4  A    between atoms: C_13  and  C_14
REMARK    5  A    between atoms: C_14  and  O_15
REMARK    6  A    between atoms: O_15  and  C_16
REMARK    7  A    between atoms: C_21  and  C_22
REMARK                            x       y       z     vdW  Elec       q    Type
REMARK                         _______ _______ _______ _____ _____    ______ ____
ROOT
ATOM      1  C   UNL     1       2.461   8.648  18.097  0.00  0.00    +0.000 C 
ENDROOT
BRANCH   1   7
ATOM      2  C   UNL     1       0.861   9.373  19.988  0.00  0.00    +0.000 A 
ATOM      3  C   UNL     1      -0.259  10.114  20.384  0.00  0.00    +0.000 A 
ATOM      4  C   UNL     1      -1.204  10.527  19.451  0.00  0.00    +0.000 A 
ATOM      5  C   UNL     1      -1.021  10.220  18.099  0.00  0.00    +0.000 A 
ATOM      6  C   UNL     1       0.169   9.609  17.686  0.00  0.00    +0.000 A 
ATOM      7  C   UNL     1       1.156   9.222  18.620  0.00  0.00    +0.000 A 
BRANCH   5   8
ATOM      8  N   UNL     1      -2.057  10.513  17.184  0.00  0.00    +0.000 N 
ATOM      9  C   UNL     1      -2.369   9.901  15.996  0.00  0.00    +0.000 A 
ATOM     10  N   UNL     1      -3.453  10.450  15.496  0.00  0.00    +0.000 NA
ATOM     11  N   UNL     1      -3.825  11.419  16.389  0.00  0.00    +0.000 NA
ATOM     12  N   UNL     1      -2.990  11.466  17.416  0.00  0.00    +0.000 NA
ENDBRANCH   5   8
BRANCH   2  14
ATOM     13  C   UNL     1       1.336   9.038  22.277  0.00  0.00    +0.000 C 
ATOM     14  O   UNL     1       1.687   8.776  20.908  0.00  0.00    +0.000 OA
ENDBRANCH   2  14
ENDBRANCH   1   7
BRANCH   1  15
ATOM     15  O   UNL     1       2.187   7.326  17.601  0.00  0.00    +0.000 OA
BRANCH  15  16
ATOM     16  C   UNL     1       2.320   6.258  18.552  0.00  0.00    +0.000 C 
ATOM     17  C   UNL     1       1.663   4.954  18.074  0.00  0.00    +0.000 C 
ATOM     18  C   UNL     1       1.946   3.783  19.016  0.00  0.00    +0.000 C 
ATOM     19  C   UNL     1       3.398   3.696  19.483  0.00  0.00    +0.000 C 
ATOM     20  N   UNL     1       3.908   4.981  19.959  0.00  0.00    +0.000 NA
ATOM     21  C   UNL     1       3.832   6.035  18.917  0.00  0.00    +0.000 C 
ATOM     22  H   UNL     1       4.877   4.867  20.254  0.00  0.00    +0.000 HD
BRANCH  21  23
ATOM     23  C   UNL     1       4.857   5.798  17.796  0.00  0.00    +0.000 A 
ATOM     24  C   UNL     1       4.566   5.118  16.604  0.00  0.00    +0.000 A 
ATOM     25  C   UNL     1       5.547   4.888  15.635  0.00  0.00    +0.000 A 
ATOM     26  C   UNL     1       6.840   5.362  15.821  0.00  0.00    +0.000 A 
ATOM     27  C   UNL     1       7.150   6.074  16.974  0.00  0.00    +0.000 A 
ATOM     28  C   UNL     1       6.170   6.292  17.949  0.00  0.00    +0.000 A 
ENDBRANCH  21  23
ENDBRANCH  15  16
ENDBRANCH   1  15
TORSDOF 6
ENDMDL
MODEL 9
REMARK VINA RESULT:      -7.6      3.091      4.976
REMARK  Name = 
REMARK  7 active torsions:
REMARK  status: ('A' for Active; 'I' for Inactive)
REMARK    1  A    between atoms: C_1  and  O_2
REMARK    2  A    between atoms: O_2  and  C_3
REMARK    3  A    between atoms: C_6  and  N_7
REMARK    4  A    between atoms: C_13  and  C_14
REMARK    5  A    between atoms: C_14  and  O_15
REMARK    6  A    between atoms: O_15  and  C_16
REMARK    7  A    between atoms: C_21  and  C_22
REMARK                            x       y       z     vdW  Elec       q    Type
REMARK                         _______ _______ _______ _____ _____    ______ ____
ROOT
ATOM      1  C   UNL     1       2.391   8.457  18.362  0.00  0.00    +0.000 C 
ENDROOT
BRANCH   1   7
ATOM      2  C   UNL     1       0.847   9.432  20.186  0.00  0.00    +0.000 A 
ATOM      3  C   UNL     1      -0.221  10.274  20.520  0.00  0.00    +0.000 A 
ATOM      4  C   UNL     1      -1.139  10.674  19.555  0.00  0.00    +0.000 A 
ATOM      5  C   UNL     1      -0.980  10.250  18.232  0.00  0.00    +0.000 A 
ATOM      6  C   UNL     1       0.166   9.531  17.871  0.00  0.00    +0.000 A 
ATOM      7  C   UNL     1       1.127   9.155  18.835  0.00  0.00    +0.000 A 
BRANCH   5   8
ATOM      8  N   UNL     1      -1.998  10.538  17.294  0.00  0.00    +0.000 N 
ATOM      9  C   UNL     1      -2.312   9.893  16.124  0.00  0.00    +0.000 A 
ATOM     10  N   UNL     1      -3.375  10.453  15.592  0.00  0.00    +0.000 NA
ATOM     11  N   UNL     1      -3.732  11.462  16.446  0.00  0.00    +0.000 NA
ATOM     12  N   UNL     1      -2.908  11.522  17.481  0.00  0.00    +0.000 NA
ENDBRANCH   5   8
BRANCH   2  14
ATOM     13  C   UNL     1       1.237   9.160  22.499  0.00  0.00    +0.000 C 
ATOM     14  O   UNL     1       1.634   8.856  21.152  0.00  0.00    +0.000 OA
ENDBRANCH   2  14
ENDBRANCH   1   7
BRANCH   1  15
ATOM     15  O   UNL     1       2.035   7.110  18.004  0.00  0.00    +0.000 OA
BRANCH  15  16
ATOM     16  C   UNL     1       3.106   6.285  17.519  0.00  0.00    +0.000 C 
ATOM     17  C   UNL     1       4.438   6.564  18.231  0.00  0.00    +0.000 C 
ATOM     18  C   UNL     1       5.531   5.576  17.822  0.00  0.00    +0.000 C 
ATOM     19  C   UNL     1       5.067   4.121  17.767  0.00  0.00    +0.000 C 
ATOM     20  N   UNL     1       3.815   3.963  17.029  0.00  0.00    +0.000 NA
ATOM     21  C   UNL     1       2.713   4.766  17.616  0.00  0.00    +0.000 C 
ATOM     22  H   UNL     1       3.551   2.979  17.026  0.00  0.00    +0.000 HD
BRANCH  21  23
ATOM     23  C   UNL     1       2.245   4.187  18.961  0.00  0.00    +0.000 A 
ATOM     24  C   UNL     1       2.632   4.701  20.207  0.00  0.00    +0.000 A 
ATOM     25  C   UNL     1       2.215   4.109  21.404  0.00  0.00    +0.000 A 
ATOM     26  C   UNL     1       1.372   3.003  21.381  0.00  0.00    +0.000 A 
ATOM     27  C   UNL     1       0.939   2.496  20.161  0.00  0.00    +0.000 A 
ATOM     28  C   UNL     1       1.368   3.082  18.966  0.00  0.00    +0.000 A 
ENDBRANCH  21  23
ENDBRANCH  15  16
ENDBRANCH   1  15
TORSDOF 6
ENDMDL
