MODEL 1
REMARK VINA RESULT:      -8.3      0.000      0.000
REMARK  Name = 
REMARK  3 active torsions:
REMARK  status: ('A' for Active; 'I' for Inactive)
REMARK    1  A    between atoms: C_5  and  C_6
REMARK    2  A    between atoms: C_18  and  C_19
REMARK    3  A    between atoms: C_19  and  C_20
REMARK                            x       y       z     vdW  Elec       q    Type
REMARK                         _______ _______ _______ _____ _____    ______ ____
ROOT
ATOM      1  C   UNL     1       2.473   6.025  19.121  0.00  0.00    +0.000 A 
ATOM      2  N   UNL     1       1.715   6.556  20.150  0.00  0.00    +0.000 NA
ATOM      3  C   UNL     1       1.588   7.842  19.877  0.00  0.00    +0.000 A 
ATOM      4  C   UNL     1       0.934   8.924  20.635  0.00  0.00    +0.000 A 
ATOM      5  C   UNL     1       0.305   8.708  21.865  0.00  0.00    +0.000 A 
ATOM      6  C   UNL     1      -0.270   9.781  22.549  0.00  0.00    +0.000 A 
ATOM      7  C   UNL     1      -0.220  11.074  22.021  0.00  0.00    +0.000 A 
ATOM      8  C   UNL     1       0.393  11.300  20.790  0.00  0.00    +0.000 A 
ATOM      9  C   UNL     1       0.960  10.233  20.087  0.00  0.00    +0.000 A 
ATOM     10  C   UNL     1       1.587  10.469  18.773  0.00  0.00    +0.000 A 
ATOM     11  C   UNL     1       2.175   9.448  18.128  0.00  0.00    +0.000 A 
ATOM     12  N   UNL     1       2.197   8.160  18.669  0.00  0.00    +0.000 N 
ATOM     13  C   UNL     1       2.784   7.006  18.188  0.00  0.00    +0.000 A 
ENDROOT
BRANCH   1  18
ATOM     14  F   UNL     1       4.020   0.682  18.427  0.00  0.00    +0.000 F 
ATOM     15  C   UNL     1       3.613   1.939  18.645  0.00  0.00    +0.000 A 
ATOM     16  C   UNL     1       2.499   2.433  17.976  0.00  0.00    +0.000 A 
ATOM     17  C   UNL     1       2.104   3.765  18.168  0.00  0.00    +0.000 A 
ATOM     18  C   UNL     1       2.821   4.605  19.030  0.00  0.00    +0.000 A 
ATOM     19  C   UNL     1       3.894   4.051  19.750  0.00  0.00    +0.000 A 
ATOM     20  C   UNL     1       4.310   2.733  19.539  0.00  0.00    +0.000 A 
ENDBRANCH   1  18
BRANCH  13  21
ATOM     21  C   UNL     1       3.562   6.976  16.914  0.00  0.00    +0.000 C 
BRANCH  21  22
ATOM     22  C   UNL     1       4.805   6.113  16.975  0.00  0.00    +0.000 A 
ATOM     23  C   UNL     1       5.054   4.902  16.235  0.00  0.00    +0.000 A 
ATOM     24  C   UNL     1       6.282   4.344  16.513  0.00  0.00    +0.000 A 
ATOM     25  S   UNL     1       7.164   5.274  17.637  0.00  0.00    +0.000 S 
ATOM     26  C   UNL     1       5.905   6.424  17.758  0.00  0.00    +0.000 A 
ENDBRANCH  21  22
ENDBRANCH  13  21
TORSDOF 3
ENDMDL
MODEL 2
REMARK VINA RESULT:      -8.2      0.519      1.283
REMARK  Name = 
REMARK  3 active torsions:
REMARK  status: ('A' for Active; 'I' for Inactive)
REMARK    1  A    between atoms: C_5  and  C_6
REMARK    2  A    between atoms: C_18  and  C_19
REMARK    3  A    between atoms: C_19  and  C_20
REMARK                            x       y       z     vdW  Elec       q    Type
REMARK                         _______ _______ _______ _____ _____    ______ ____
ROOT
ATOM      1  C   UNL     1       2.626   6.142  18.899  0.00  0.00    +0.000 A 
ATOM      2  N   UNL     1       1.867   6.583  19.969  0.00  0.00    +0.000 NA
ATOM      3  C   UNL     1       1.676   7.873  19.768  0.00  0.00    +0.000 A 
ATOM      4  C   UNL     1       0.989   8.882  20.596  0.00  0.00    +0.000 A 
ATOM      5  C   UNL     1       0.398   8.572  21.824  0.00  0.00    +0.000 A 
ATOM      6  C   UNL     1      -0.211   9.580  22.576  0.00  0.00    +0.000 A 
ATOM      7  C   UNL     1      -0.231  10.900  22.117  0.00  0.00    +0.000 A 
ATOM      8  C   UNL     1       0.345  11.220  20.889  0.00  0.00    +0.000 A 
ATOM      9  C   UNL     1       0.945  10.218  20.119  0.00  0.00    +0.000 A 
ATOM     10  C   UNL     1       1.533  10.553  18.808  0.00  0.00    +0.000 A 
ATOM     11  C   UNL     1       2.153   9.595  18.099  0.00  0.00    +0.000 A 
ATOM     12  N   UNL     1       2.245   8.283  18.569  0.00  0.00    +0.000 N 
ATOM     13  C   UNL     1       2.873   7.185  18.015  0.00  0.00    +0.000 A 
ENDROOT
BRANCH   1  18
ATOM     14  F   UNL     1       3.954   0.707  18.558  0.00  0.00    +0.000 F 
ATOM     15  C   UNL     1       3.680   2.018  18.589  0.00  0.00    +0.000 A 
ATOM     16  C   UNL     1       4.380   2.852  19.455  0.00  0.00    +0.000 A 
ATOM     17  C   UNL     1       4.057   4.214  19.523  0.00  0.00    +0.000 A 
ATOM     18  C   UNL     1       3.036   4.747  18.725  0.00  0.00    +0.000 A 
ATOM     19  C   UNL     1       2.404   3.892  17.804  0.00  0.00    +0.000 A 
ATOM     20  C   UNL     1       2.701   2.527  17.755  0.00  0.00    +0.000 A 
ENDBRANCH   1  18
BRANCH  13  21
ATOM     21  C   UNL     1       3.625   7.259  16.727  0.00  0.00    +0.000 C 
BRANCH  21  22
ATOM     22  C   UNL     1       4.968   6.561  16.761  0.00  0.00    +0.000 A 
ATOM     23  C   UNL     1       6.094   6.893  17.596  0.00  0.00    +0.000 A 
ATOM     24  C   UNL     1       7.179   6.069  17.390  0.00  0.00    +0.000 A 
ATOM     25  S   UNL     1       6.855   4.872  16.219  0.00  0.00    +0.000 S 
ATOM     26  C   UNL     1       5.266   5.454  15.983  0.00  0.00    +0.000 A 
ENDBRANCH  21  22
ENDBRANCH  13  21
TORSDOF 3
ENDMDL
MODEL 3
REMARK VINA RESULT:      -8.1      2.103      3.921
REMARK  Name = 
REMARK  3 active torsions:
REMARK  status: ('A' for Active; 'I' for Inactive)
REMARK    1  A    between atoms: C_5  and  C_6
REMARK    2  A    between atoms: C_18  and  C_19
REMARK    3  A    between atoms: C_19  and  C_20
REMARK                            x       y       z     vdW  Elec       q    Type
REMARK                         _______ _______ _______ _____ _____    ______ ____
ROOT
ATOM      1  C   UNL     1       3.471   6.938  18.236  0.00  0.00    +0.000 A 
ATOM      2  N   UNL     1       2.886   8.161  17.957  0.00  0.00    +0.000 NA
ATOM      3  C   UNL     1       2.055   8.399  18.956  0.00  0.00    +0.000 A 
ATOM      4  C   UNL     1       1.121   9.517  19.181  0.00  0.00    +0.000 A 
ATOM      5  C   UNL     1       0.976  10.572  18.275  0.00  0.00    +0.000 A 
ATOM      6  C   UNL     1       0.050  11.586  18.532  0.00  0.00    +0.000 A 
ATOM      7  C   UNL     1      -0.740  11.557  19.684  0.00  0.00    +0.000 A 
ATOM      8  C   UNL     1      -0.596  10.517  20.601  0.00  0.00    +0.000 A 
ATOM      9  C   UNL     1       0.337   9.503  20.364  0.00  0.00    +0.000 A 
ATOM     10  C   UNL     1       0.505   8.415  21.347  0.00  0.00    +0.000 A 
ATOM     11  C   UNL     1       1.366   7.418  21.087  0.00  0.00    +0.000 A 
ATOM     12  N   UNL     1       2.117   7.390  19.909  0.00  0.00    +0.000 N 
ATOM     13  C   UNL     1       3.006   6.440  19.447  0.00  0.00    +0.000 A 
ENDROOT
BRANCH   1  18
ATOM     14  F   UNL     1       7.502   4.379  15.300  0.00  0.00    +0.000 F 
ATOM     15  C   UNL     1       6.521   5.023  15.946  0.00  0.00    +0.000 A 
ATOM     16  C   UNL     1       6.792   6.217  16.605  0.00  0.00    +0.000 A 
ATOM     17  C   UNL     1       5.776   6.863  17.322  0.00  0.00    +0.000 A 
ATOM     18  C   UNL     1       4.486   6.319  17.380  0.00  0.00    +0.000 A 
ATOM     19  C   UNL     1       4.227   5.154  16.637  0.00  0.00    +0.000 A 
ATOM     20  C   UNL     1       5.244   4.489  15.947  0.00  0.00    +0.000 A 
ENDBRANCH   1  18
BRANCH  13  21
ATOM     21  C   UNL     1       3.303   5.188  20.203  0.00  0.00    +0.000 C 
BRANCH  21  22
ATOM     22  C   UNL     1       2.647   3.953  19.624  0.00  0.00    +0.000 A 
ATOM     23  C   UNL     1       3.307   2.760  19.157  0.00  0.00    +0.000 A 
ATOM     24  C   UNL     1       2.431   1.809  18.683  0.00  0.00    +0.000 A 
ATOM     25  S   UNL     1       0.809   2.316  18.817  0.00  0.00    +0.000 S 
ATOM     26  C   UNL     1       1.274   3.809  19.506  0.00  0.00    +0.000 A 
ENDBRANCH  21  22
ENDBRANCH  13  21
TORSDOF 3
ENDMDL
MODEL 4
REMARK VINA RESULT:      -7.9      1.915      3.711
REMARK  Name = 
REMARK  3 active torsions:
REMARK  status: ('A' for Active; 'I' for Inactive)
REMARK    1  A    between atoms: C_5  and  C_6
REMARK    2  A    between atoms: C_18  and  C_19
REMARK    3  A    between atoms: C_19  and  C_20
REMARK                            x       y       z     vdW  Elec       q    Type
REMARK                         _______ _______ _______ _____ _____    ______ ____
ROOT
ATOM      1  C   UNL     1       3.598   6.814  18.268  0.00  0.00    +0.000 A 
ATOM      2  N   UNL     1       3.038   8.042  17.961  0.00  0.00    +0.000 NA
ATOM      3  C   UNL     1       2.168   8.291  18.922  0.00  0.00    +0.000 A 
ATOM      4  C   UNL     1       1.237   9.420  19.104  0.00  0.00    +0.000 A 
ATOM      5  C   UNL     1       1.141  10.473  18.188  0.00  0.00    +0.000 A 
ATOM      6  C   UNL     1       0.217  11.497  18.402  0.00  0.00    +0.000 A 
ATOM      7  C   UNL     1      -0.622  11.481  19.520  0.00  0.00    +0.000 A 
ATOM      8  C   UNL     1      -0.528  10.443  20.446  0.00  0.00    +0.000 A 
ATOM      9  C   UNL     1       0.403   9.419  20.252  0.00  0.00    +0.000 A 
ATOM     10  C   UNL     1       0.518   8.333  21.245  0.00  0.00    +0.000 A 
ATOM     11  C   UNL     1       1.379   7.326  21.025  0.00  0.00    +0.000 A 
ATOM     12  N   UNL     1       2.179   7.286  19.881  0.00  0.00    +0.000 N 
ATOM     13  C   UNL     1       3.077   6.325  19.460  0.00  0.00    +0.000 A 
ENDROOT
BRANCH   1  18
ATOM     14  F   UNL     1       7.491   4.654  14.862  0.00  0.00    +0.000 F 
ATOM     15  C   UNL     1       6.577   5.124  15.721  0.00  0.00    +0.000 A 
ATOM     16  C   UNL     1       5.266   4.666  15.657  0.00  0.00    +0.000 A 
ATOM     17  C   UNL     1       4.300   5.196  16.524  0.00  0.00    +0.000 A 
ATOM     18  C   UNL     1       4.642   6.181  17.458  0.00  0.00    +0.000 A 
ATOM     19  C   UNL     1       5.993   6.563  17.550  0.00  0.00    +0.000 A 
ATOM     20  C   UNL     1       6.953   6.061  16.667  0.00  0.00    +0.000 A 
ENDBRANCH   1  18
BRANCH  13  21
ATOM     21  C   UNL     1       3.329   5.073  20.232  0.00  0.00    +0.000 C 
BRANCH  21  22
ATOM     22  C   UNL     1       3.083   3.806  19.441  0.00  0.00    +0.000 A 
ATOM     23  C   UNL     1       1.895   3.464  18.701  0.00  0.00    +0.000 A 
ATOM     24  C   UNL     1       1.977   2.234  18.087  0.00  0.00    +0.000 A 
ATOM     25  S   UNL     1       3.484   1.485  18.363  0.00  0.00    +0.000 S 
ATOM     26  C   UNL     1       4.029   2.802  19.306  0.00  0.00    +0.000 A 
ENDBRANCH  21  22
ENDBRANCH  13  21
TORSDOF 3
ENDMDL
MODEL 5
REMARK VINA RESULT:      -7.8      3.498      5.560
REMARK  Name = 
REMARK  3 active torsions:
REMARK  status: ('A' for Active; 'I' for Inactive)
REMARK    1  A    between atoms: C_5  and  C_6
REMARK    2  A    between atoms: C_18  and  C_19
REMARK    3  A    between atoms: C_19  and  C_20
REMARK                            x       y       z     vdW  Elec       q    Type
REMARK                         _______ _______ _______ _____ _____    ______ ____
ROOT
ATOM      1  C   UNL     1       4.872   4.641  15.949  0.00  0.00    +0.000 A 
ATOM      2  N   UNL     1       4.047   3.698  16.536  0.00  0.00    +0.000 NA
ATOM      3  C   UNL     1       3.485   4.303  17.567  0.00  0.00    +0.000 A 
ATOM      4  C   UNL     1       2.559   3.790  18.592  0.00  0.00    +0.000 A 
ATOM      5  C   UNL     1       2.116   2.464  18.612  0.00  0.00    +0.000 A 
ATOM      6  C   UNL     1       1.263   2.031  19.629  0.00  0.00    +0.000 A 
ATOM      7  C   UNL     1       0.849   2.908  20.635  0.00  0.00    +0.000 A 
ATOM      8  C   UNL     1       1.274   4.235  20.621  0.00  0.00    +0.000 A 
ATOM      9  C   UNL     1       2.117   4.686  19.601  0.00  0.00    +0.000 A 
ATOM     10  C   UNL     1       2.547   6.097  19.573  0.00  0.00    +0.000 A 
ATOM     11  C   UNL     1       3.398   6.509  18.619  0.00  0.00    +0.000 A 
ATOM     12  N   UNL     1       3.878   5.633  17.642  0.00  0.00    +0.000 N 
ATOM     13  C   UNL     1       4.782   5.854  16.621  0.00  0.00    +0.000 A 
ENDROOT
BRANCH   1  18
ATOM     14  F   UNL     1       7.690   3.942  11.154  0.00  0.00    +0.000 F 
ATOM     15  C   UNL     1       7.049   4.056  12.324  0.00  0.00    +0.000 A 
ATOM     16  C   UNL     1       5.817   3.437  12.504  0.00  0.00    +0.000 A 
ATOM     17  C   UNL     1       5.125   3.599  13.712  0.00  0.00    +0.000 A 
ATOM     18  C   UNL     1       5.663   4.378  14.744  0.00  0.00    +0.000 A 
ATOM     19  C   UNL     1       6.946   4.924  14.559  0.00  0.00    +0.000 A 
ATOM     20  C   UNL     1       7.626   4.791  13.345  0.00  0.00    +0.000 A 
ENDBRANCH   1  18
BRANCH  13  21
ATOM     21  C   UNL     1       5.445   7.175  16.411  0.00  0.00    +0.000 C 
BRANCH  21  22
ATOM     22  C   UNL     1       6.632   7.416  17.319  0.00  0.00    +0.000 A 
ATOM     23  C   UNL     1       7.313   6.440  18.131  0.00  0.00    +0.000 A 
ATOM     24  C   UNL     1       8.360   6.972  18.850  0.00  0.00    +0.000 A 
ATOM     25  S   UNL     1       8.561   8.638  18.543  0.00  0.00    +0.000 S 
ATOM     26  C   UNL     1       7.247   8.651  17.450  0.00  0.00    +0.000 A 
ENDBRANCH  21  22
ENDBRANCH  13  21
TORSDOF 3
ENDMDL
MODEL 6
REMARK VINA RESULT:      -7.6      2.026      3.802
REMARK  Name = 
REMARK  3 active torsions:
REMARK  status: ('A' for Active; 'I' for Inactive)
REMARK    1  A    between atoms: C_5  and  C_6
REMARK    2  A    between atoms: C_18  and  C_19
REMARK    3  A    between atoms: C_19  and  C_20
REMARK                            x       y       z     vdW  Elec       q    Type
REMARK                         _______ _______ _______ _____ _____    ______ ____
ROOT
ATOM      1  C   UNL     1       2.881   6.980  18.527  0.00  0.00    +0.000 A 
ATOM      2  N   UNL     1       2.337   8.193  18.143  0.00  0.00    +0.000 NA
ATOM      3  C   UNL     1       1.607   8.600  19.165  0.00  0.00    +0.000 A 
ATOM      4  C   UNL     1       0.753   9.792  19.320  0.00  0.00    +0.000 A 
ATOM      5  C   UNL     1       0.584  10.736  18.303  0.00  0.00    +0.000 A 
ATOM      6  C   UNL     1      -0.263  11.828  18.501  0.00  0.00    +0.000 A 
ATOM      7  C   UNL     1      -0.953  11.987  19.706  0.00  0.00    +0.000 A 
ATOM      8  C   UNL     1      -0.784  11.059  20.733  0.00  0.00    +0.000 A 
ATOM      9  C   UNL     1       0.072   9.969  20.553  0.00  0.00    +0.000 A 
ATOM     10  C   UNL     1       0.268   9.001  21.649  0.00  0.00    +0.000 A 
ATOM     11  C   UNL     1       1.053   7.929  21.450  0.00  0.00    +0.000 A 
ATOM     12  N   UNL     1       1.699   7.713  20.230  0.00  0.00    +0.000 N 
ATOM     13  C   UNL     1       2.497   6.662  19.824  0.00  0.00    +0.000 A 
ENDROOT
BRANCH   1  18
ATOM     14  F   UNL     1       6.543   3.879  15.630  0.00  0.00    +0.000 F 
ATOM     15  C   UNL     1       5.642   4.641  16.264  0.00  0.00    +0.000 A 
ATOM     16  C   UNL     1       5.972   5.940  16.636  0.00  0.00    +0.000 A 
ATOM     17  C   UNL     1       5.045   6.718  17.344  0.00  0.00    +0.000 A 
ATOM     18  C   UNL     1       3.787   6.202  17.679  0.00  0.00    +0.000 A 
ATOM     19  C   UNL     1       3.458   4.914  17.218  0.00  0.00    +0.000 A 
ATOM     20  C   UNL     1       4.389   4.123  16.540  0.00  0.00    +0.000 A 
ENDBRANCH   1  18
BRANCH  13  21
ATOM     21  C   UNL     1       2.793   5.495  20.705  0.00  0.00    +0.000 C 
BRANCH  21  22
ATOM     22  C   UNL     1       2.262   4.179  20.180  0.00  0.00    +0.000 A 
ATOM     23  C   UNL     1       0.896   3.871  19.840  0.00  0.00    +0.000 A 
ATOM     24  C   UNL     1       0.730   2.580  19.389  0.00  0.00    +0.000 A 
ATOM     25  S   UNL     1       2.207   1.729  19.339  0.00  0.00    +0.000 S 
ATOM     26  C   UNL     1       3.071   3.084  19.922  0.00  0.00    +0.000 A 
ENDBRANCH  21  22
ENDBRANCH  13  21
TORSDOF 3
ENDMDL
MODEL 7
REMARK VINA RESULT:      -7.5      2.340      4.165
REMARK  Name = 
REMARK  3 active torsions:
REMARK  status: ('A' for Active; 'I' for Inactive)
REMARK    1  A    between atoms: C_5  and  C_6
REMARK    2  A    between atoms: C_18  and  C_19
REMARK    3  A    between atoms: C_19  and  C_20
REMARK                            x       y       z     vdW  Elec       q    Type
REMARK                         _______ _______ _______ _____ _____    ______ ____
ROOT
ATOM      1  C   UNL     1       3.704   6.768  18.036  0.00  0.00    +0.000 A 
ATOM      2  N   UNL     1       3.053   7.951  17.732  0.00  0.00    +0.000 NA
ATOM      3  C   UNL     1       2.250   8.193  18.751  0.00  0.00    +0.000 A 
ATOM      4  C   UNL     1       1.274   9.277  18.968  0.00  0.00    +0.000 A 
ATOM      5  C   UNL     1       1.047  10.285  18.026  0.00  0.00    +0.000 A 
ATOM      6  C   UNL     1       0.085  11.267  18.277  0.00  0.00    +0.000 A 
ATOM      7  C   UNL     1      -0.659  11.251  19.459  0.00  0.00    +0.000 A 
ATOM      8  C   UNL     1      -0.434  10.258  20.412  0.00  0.00    +0.000 A 
ATOM      9  C   UNL     1       0.535   9.278  20.180  0.00  0.00    +0.000 A 
ATOM     10  C   UNL     1       0.789   8.241  21.198  0.00  0.00    +0.000 A 
ATOM     11  C   UNL     1       1.685   7.273  20.945  0.00  0.00    +0.000 A 
ATOM     12  N   UNL     1       2.393   7.229  19.741  0.00  0.00    +0.000 N 
ATOM     13  C   UNL     1       3.308   6.301  19.284  0.00  0.00    +0.000 A 
ENDROOT
BRANCH   1  18
ATOM     14  F   UNL     1       7.395   4.641  14.393  0.00  0.00    +0.000 F 
ATOM     15  C   UNL     1       6.541   5.112  15.311  0.00  0.00    +0.000 A 
ATOM     16  C   UNL     1       5.309   4.493  15.495  0.00  0.00    +0.000 A 
ATOM     17  C   UNL     1       4.397   5.018  16.421  0.00  0.00    +0.000 A 
ATOM     18  C   UNL     1       4.714   6.160  17.168  0.00  0.00    +0.000 A 
ATOM     19  C   UNL     1       5.999   6.713  17.015  0.00  0.00    +0.000 A 
ATOM     20  C   UNL     1       6.899   6.212  16.070  0.00  0.00    +0.000 A 
ENDBRANCH   1  18
BRANCH  13  21
ATOM     21  C   UNL     1       3.690   5.096  20.077  0.00  0.00    +0.000 C 
BRANCH  21  22
ATOM     22  C   UNL     1       2.622   4.023  20.115  0.00  0.00    +0.000 A 
ATOM     23  C   UNL     1       2.004   3.459  21.287  0.00  0.00    +0.000 A 
ATOM     24  C   UNL     1       1.065   2.496  20.991  0.00  0.00    +0.000 A 
ATOM     25  S   UNL     1       0.890   2.275  19.309  0.00  0.00    +0.000 S 
ATOM     26  C   UNL     1       2.071   3.464  18.974  0.00  0.00    +0.000 A 
ENDBRANCH  21  22
ENDBRANCH  13  21
TORSDOF 3
ENDMDL
MODEL 8
REMARK VINA RESULT:      -7.3      4.540      6.963
REMARK  Name = 
REMARK  3 active torsions:
REMARK  status: ('A' for Active; 'I' for Inactive)
REMARK    1  A    between atoms: C_5  and  C_6
REMARK    2  A    between atoms: C_18  and  C_19
REMARK    3  A    between atoms: C_19  and  C_20
REMARK                            x       y       z     vdW  Elec       q    Type
REMARK                         _______ _______ _______ _____ _____    ______ ____
ROOT
ATOM      1  C   UNL     1       1.289  10.903  18.851  0.00  0.00    +0.000 A 
ATOM      2  N   UNL     1       2.256  11.865  18.617  0.00  0.00    +0.000 NA
ATOM      3  C   UNL     1       1.627  13.025  18.657  0.00  0.00    +0.000 A 
ATOM      4  C   UNL     1       2.124  14.394  18.428  0.00  0.00    +0.000 A 
ATOM      5  C   UNL     1       3.456  14.667  18.103  0.00  0.00    +0.000 A 
ATOM      6  C   UNL     1       3.858  15.984  17.868  0.00  0.00    +0.000 A 
ATOM      7  C   UNL     1       2.941  17.035  17.948  0.00  0.00    +0.000 A 
ATOM      8  C   UNL     1       1.613  16.777  18.284  0.00  0.00    +0.000 A 
ATOM      9  C   UNL     1       1.200  15.466  18.536  0.00  0.00    +0.000 A 
ATOM     10  C   UNL     1      -0.200  15.197  18.914  0.00  0.00    +0.000 A 
ATOM     11  C   UNL     1      -0.601  13.929  19.105  0.00  0.00    +0.000 A 
ATOM     12  N   UNL     1       0.283  12.855  18.962  0.00  0.00    +0.000 N 
ATOM     13  C   UNL     1       0.052  11.498  19.068  0.00  0.00    +0.000 A 
ENDROOT
BRANCH   1  18
ATOM     14  F   UNL     1       2.805   5.516  19.168  0.00  0.00    +0.000 F 
ATOM     15  C   UNL     1       2.380   6.783  19.078  0.00  0.00    +0.000 A 
ATOM     16  C   UNL     1       2.472   7.461  17.868  0.00  0.00    +0.000 A 
ATOM     17  C   UNL     1       2.074   8.803  17.789  0.00  0.00    +0.000 A 
ATOM     18  C   UNL     1       1.581   9.469  18.918  0.00  0.00    +0.000 A 
ATOM     19  C   UNL     1       1.426   8.730  20.105  0.00  0.00    +0.000 A 
ATOM     20  C   UNL     1       1.851   7.402  20.197  0.00  0.00    +0.000 A 
ENDBRANCH   1  18
BRANCH  13  21
ATOM     21  C   UNL     1      -1.300  10.937  19.359  0.00  0.00    +0.000 C 
BRANCH  21  22
ATOM     22  C   UNL     1      -2.171  10.769  18.132  0.00  0.00    +0.000 A 
ATOM     23  C   UNL     1      -1.937   9.885  17.019  0.00  0.00    +0.000 A 
ATOM     24  C   UNL     1      -2.914   9.964  16.052  0.00  0.00    +0.000 A 
ATOM     25  S   UNL     1      -4.139  11.073  16.476  0.00  0.00    +0.000 S 
ATOM     26  C   UNL     1      -3.363  11.451  17.951  0.00  0.00    +0.000 A 
ENDBRANCH  21  22
ENDBRANCH  13  21
TORSDOF 3
ENDMDL
MODEL 9
REMARK VINA RESULT:      -6.9      3.975      7.736
REMARK  Name = 
REMARK  3 active torsions:
REMARK  status: ('A' for Active; 'I' for Inactive)
REMARK    1  A    between atoms: C_5  and  C_6
REMARK    2  A    between atoms: C_18  and  C_19
REMARK    3  A    between atoms: C_19  and  C_20
REMARK                            x       y       z     vdW  Elec       q    Type
REMARK                         _______ _______ _______ _____ _____    ______ ____
ROOT
ATOM      1  C   UNL     1       0.810   9.138  20.752  0.00  0.00    +0.000 A 
ATOM      2  N   UNL     1       1.183   7.895  21.232  0.00  0.00    +0.000 NA
ATOM      3  C   UNL     1       1.734   7.264  20.212  0.00  0.00    +0.000 A 
ATOM      4  C   UNL     1       2.267   5.894  20.105  0.00  0.00    +0.000 A 
ATOM      5  C   UNL     1       2.253   4.994  21.176  0.00  0.00    +0.000 A 
ATOM      6  C   UNL     1       2.746   3.699  21.002  0.00  0.00    +0.000 A 
ATOM      7  C   UNL     1       3.249   3.287  19.765  0.00  0.00    +0.000 A 
ATOM      8  C   UNL     1       3.280   4.177  18.693  0.00  0.00    +0.000 A 
ATOM      9  C   UNL     1       2.803   5.481  18.857  0.00  0.00    +0.000 A 
ATOM     10  C   UNL     1       2.858   6.431  17.729  0.00  0.00    +0.000 A 
ATOM     11  C   UNL     1       2.351   7.665  17.880  0.00  0.00    +0.000 A 
ATOM     12  N   UNL     1       1.781   8.078  19.087  0.00  0.00    +0.000 N 
ATOM     13  C   UNL     1       1.173   9.273  19.417  0.00  0.00    +0.000 A 
ENDROOT
BRANCH   1  18
ATOM     14  F   UNL     1      -1.878  13.118  23.642  0.00  0.00    +0.000 F 
ATOM     15  C   UNL     1      -1.189  12.166  22.999  0.00  0.00    +0.000 A 
ATOM     16  C   UNL     1      -0.256  12.520  22.030  0.00  0.00    +0.000 A 
ATOM     17  C   UNL     1       0.428  11.521  21.324  0.00  0.00    +0.000 A 
ATOM     18  C   UNL     1       0.183  10.167  21.585  0.00  0.00    +0.000 A 
ATOM     19  C   UNL     1      -0.707   9.846  22.625  0.00  0.00    +0.000 A 
ATOM     20  C   UNL     1      -1.414  10.837  23.311  0.00  0.00    +0.000 A 
ENDBRANCH   1  18
BRANCH  13  21
ATOM     21  C   UNL     1       1.012  10.386  18.436  0.00  0.00    +0.000 C 
BRANCH  21  22
ATOM     22  C   UNL     1      -0.421  10.624  18.009  0.00  0.00    +0.000 A 
ATOM     23  C   UNL     1      -1.184  11.835  18.173  0.00  0.00    +0.000 A 
ATOM     24  C   UNL     1      -2.466  11.735  17.681  0.00  0.00    +0.000 A 
ATOM     25  S   UNL     1      -2.765  10.205  16.989  0.00  0.00    +0.000 S 
ATOM     26  C   UNL     1      -1.182   9.672  17.350  0.00  0.00    +0.000 A 
ENDBRANCH  21  22
ENDBRANCH  13  21
TORSDOF 3
ENDMDL
