MODEL 1
REMARK VINA RESULT:      -8.2      0.000      0.000
REMARK  Name = 
REMARK  8 active torsions:
REMARK  status: ('A' for Active; 'I' for Inactive)
REMARK    1  A    between atoms: C_1  and  O_2
REMARK    2  A    between atoms: O_2  and  C_3
REMARK    3  A    between atoms: C_6  and  N_7
REMARK    4  A    between atoms: C_8  and  C_10
REMARK    5  A    between atoms: C_10  and  C_11
REMARK    6  A    between atoms: C_11  and  C_12
REMARK    7  A    between atoms: C_19  and  S_20
REMARK    8  A    between atoms: S_20  and  N_23
REMARK                            x       y       z     vdW  Elec       q    Type
REMARK                         _______ _______ _______ _____ _____    ______ ____
ROOT
ATOM      1  C   UNL     1       4.372   4.446  16.841  0.00  0.00    +0.000 A 
ATOM      2  C   UNL     1       5.624   4.462  16.212  0.00  0.00    +0.000 A 
ATOM      3  C   UNL     1       6.454   5.577  16.261  0.00  0.00    +0.000 A 
ATOM      4  C   UNL     1       6.075   6.713  16.958  0.00  0.00    +0.000 A 
ATOM      5  C   UNL     1       4.866   6.698  17.644  0.00  0.00    +0.000 A 
ATOM      6  C   UNL     1       4.004   5.574  17.581  0.00  0.00    +0.000 A 
ENDROOT
BRANCH   4   7
ATOM      7  N   UNL     1       6.878   7.872  16.992  0.00  0.00    +0.000 N 
ATOM      8  C   UNL     1       7.906   8.078  17.898  0.00  0.00    +0.000 C 
ATOM      9  O   UNL     1       8.299   7.269  18.732  0.00  0.00    +0.000 OA
ATOM     10  H   UNL     1       6.790   8.522  16.219  0.00  0.00    +0.000 HD
BRANCH   8  11
ATOM     11  C   UNL     1       8.551   9.438  17.791  0.00  0.00    +0.000 C 
BRANCH  11  12
ATOM     12  C   UNL     1       9.089   9.822  19.168  0.00  0.00    +0.000 C 
BRANCH  12  13
ATOM     13  C   UNL     1       9.995  11.017  19.090  0.00  0.00    +0.000 A 
ATOM     14  C   UNL     1      10.416  11.492  17.844  0.00  0.00    +0.000 A 
ATOM     15  C   UNL     1      11.265  12.593  17.766  0.00  0.00    +0.000 A 
ATOM     16  C   UNL     1      11.699  13.218  18.933  0.00  0.00    +0.000 A 
ATOM     17  C   UNL     1      11.290  12.745  20.178  0.00  0.00    +0.000 A 
ATOM     18  C   UNL     1      10.443  11.650  20.259  0.00  0.00    +0.000 A 
ENDBRANCH  12  13
ENDBRANCH  11  12
ENDBRANCH   8  11
ENDBRANCH   4   7
BRANCH   6  19
ATOM     19  S   UNL     1       2.473   5.806  18.458  0.00  0.00    +0.000 S 
ATOM     20  O   UNL     1       2.691   6.969  19.300  0.00  0.00    +0.000 OA
ATOM     21  O   UNL     1       1.448   5.832  17.432  0.00  0.00    +0.000 OA
BRANCH  19  22
ATOM     22  N   UNL     1       2.152   4.498  19.473  0.00  0.00    +0.000 NA
ATOM     23  C   UNL     1       3.099   4.221  20.556  0.00  0.00    +0.000 C 
ATOM     24  C   UNL     1       2.682   3.170  21.576  0.00  0.00    +0.000 C 
ATOM     25  C   UNL     1       1.249   2.687  21.486  0.00  0.00    +0.000 C 
ATOM     26  C   UNL     1       0.854   2.422  20.050  0.00  0.00    +0.000 C 
ATOM     27  C   UNL     1       1.010   3.638  19.153  0.00  0.00    +0.000 C 
ENDBRANCH  19  22
ENDBRANCH   6  19
BRANCH   1  29
ATOM     28  C   UNL     1       3.902   2.236  17.551  0.00  0.00    +0.000 C 
ATOM     29  O   UNL     1       3.545   3.362  16.745  0.00  0.00    +0.000 OA
ENDBRANCH   1  29
TORSDOF 7
ENDMDL
MODEL 2
REMARK VINA RESULT:      -8.0      1.915      2.908
REMARK  Name = 
REMARK  8 active torsions:
REMARK  status: ('A' for Active; 'I' for Inactive)
REMARK    1  A    between atoms: C_1  and  O_2
REMARK    2  A    between atoms: O_2  and  C_3
REMARK    3  A    between atoms: C_6  and  N_7
REMARK    4  A    between atoms: C_8  and  C_10
REMARK    5  A    between atoms: C_10  and  C_11
REMARK    6  A    between atoms: C_11  and  C_12
REMARK    7  A    between atoms: C_19  and  S_20
REMARK    8  A    between atoms: S_20  and  N_23
REMARK                            x       y       z     vdW  Elec       q    Type
REMARK                         _______ _______ _______ _____ _____    ______ ____
ROOT
ATOM      1  C   UNL     1       4.595   4.061  17.207  0.00  0.00    +0.000 A 
ATOM      2  C   UNL     1       5.872   4.129  16.637  0.00  0.00    +0.000 A 
ATOM      3  C   UNL     1       6.609   5.310  16.630  0.00  0.00    +0.000 A 
ATOM      4  C   UNL     1       6.107   6.463  17.212  0.00  0.00    +0.000 A 
ATOM      5  C   UNL     1       4.869   6.402  17.842  0.00  0.00    +0.000 A 
ATOM      6  C   UNL     1       4.102   5.209  17.833  0.00  0.00    +0.000 A 
ENDROOT
BRANCH   4   7
ATOM      7  N   UNL     1       6.814   7.683  17.186  0.00  0.00    +0.000 N 
ATOM      8  C   UNL     1       7.896   7.970  18.002  0.00  0.00    +0.000 C 
ATOM      9  O   UNL     1       8.424   7.195  18.793  0.00  0.00    +0.000 OA
ATOM     10  H   UNL     1       6.608   8.323  16.428  0.00  0.00    +0.000 HD
BRANCH   8  11
ATOM     11  C   UNL     1       8.418   9.378  17.850  0.00  0.00    +0.000 C 
BRANCH  11  12
ATOM     12  C   UNL     1       8.948   9.841  19.207  0.00  0.00    +0.000 C 
BRANCH  12  13
ATOM     13  C   UNL     1       9.976  10.924  19.053  0.00  0.00    +0.000 A 
ATOM     14  C   UNL     1      10.458  11.593  20.183  0.00  0.00    +0.000 A 
ATOM     15  C   UNL     1      11.403  12.606  20.045  0.00  0.00    +0.000 A 
ATOM     16  C   UNL     1      11.865  12.955  18.778  0.00  0.00    +0.000 A 
ATOM     17  C   UNL     1      11.383  12.299  17.648  0.00  0.00    +0.000 A 
ATOM     18  C   UNL     1      10.443  11.288  17.781  0.00  0.00    +0.000 A 
ENDBRANCH  12  13
ENDBRANCH  11  12
ENDBRANCH   8  11
ENDBRANCH   4   7
BRANCH   6  19
ATOM     19  S   UNL     1       2.513   5.384  18.618  0.00  0.00    +0.000 S 
ATOM     20  O   UNL     1       1.556   4.868  17.655  0.00  0.00    +0.000 OA
ATOM     21  O   UNL     1       2.659   4.750  19.913  0.00  0.00    +0.000 OA
BRANCH  19  22
ATOM     22  N   UNL     1       2.143   7.010  18.878  0.00  0.00    +0.000 NA
ATOM     23  C   UNL     1       2.289   7.936  17.752  0.00  0.00    +0.000 C 
ATOM     24  C   UNL     1       1.755   9.347  17.957  0.00  0.00    +0.000 C 
ATOM     25  C   UNL     1       0.939   9.576  19.212  0.00  0.00    +0.000 C 
ATOM     26  C   UNL     1       1.594   8.926  20.411  0.00  0.00    +0.000 C 
ATOM     27  C   UNL     1       1.808   7.432  20.240  0.00  0.00    +0.000 C 
ENDBRANCH  19  22
ENDBRANCH   6  19
BRANCH   1  29
ATOM     28  C   UNL     1       3.961   2.067  18.316  0.00  0.00    +0.000 C 
ATOM     29  O   UNL     1       3.861   2.909  17.165  0.00  0.00    +0.000 OA
ENDBRANCH   1  29
TORSDOF 7
ENDMDL
MODEL 3
REMARK VINA RESULT:      -8.0      1.967      2.710
REMARK  Name = 
REMARK  8 active torsions:
REMARK  status: ('A' for Active; 'I' for Inactive)
REMARK    1  A    between atoms: C_1  and  O_2
REMARK    2  A    between atoms: O_2  and  C_3
REMARK    3  A    between atoms: C_6  and  N_7
REMARK    4  A    between atoms: C_8  and  C_10
REMARK    5  A    between atoms: C_10  and  C_11
REMARK    6  A    between atoms: C_11  and  C_12
REMARK    7  A    between atoms: C_19  and  S_20
REMARK    8  A    between atoms: S_20  and  N_23
REMARK                            x       y       z     vdW  Elec       q    Type
REMARK                         _______ _______ _______ _____ _____    ______ ____
ROOT
ATOM      1  C   UNL     1       4.144   4.067  17.070  0.00  0.00    +0.000 A 
ATOM      2  C   UNL     1       5.283   4.149  16.259  0.00  0.00    +0.000 A 
ATOM      3  C   UNL     1       6.105   5.272  16.262  0.00  0.00    +0.000 A 
ATOM      4  C   UNL     1       5.832   6.348  17.092  0.00  0.00    +0.000 A 
ATOM      5  C   UNL     1       4.744   6.261  17.953  0.00  0.00    +0.000 A 
ATOM      6  C   UNL     1       3.889   5.130  17.940  0.00  0.00    +0.000 A 
ENDROOT
BRANCH   4   7
ATOM      7  N   UNL     1       6.624   7.515  17.088  0.00  0.00    +0.000 N 
ATOM      8  C   UNL     1       7.732   7.704  17.899  0.00  0.00    +0.000 C 
ATOM      9  O   UNL     1       8.210   6.873  18.665  0.00  0.00    +0.000 OA
ATOM     10  H   UNL     1       6.457   8.188  16.349  0.00  0.00    +0.000 HD
BRANCH   8  11
ATOM     11  C   UNL     1       8.351   9.074  17.777  0.00  0.00    +0.000 C 
BRANCH  11  12
ATOM     12  C   UNL     1       9.024   9.416  19.106  0.00  0.00    +0.000 C 
BRANCH  12  13
ATOM     13  C   UNL     1       9.729  10.739  19.039  0.00  0.00    +0.000 A 
ATOM     14  C   UNL     1      10.009  11.319  17.798  0.00  0.00    +0.000 A 
ATOM     15  C   UNL     1      10.672  12.542  17.731  0.00  0.00    +0.000 A 
ATOM     16  C   UNL     1      11.062  13.184  18.904  0.00  0.00    +0.000 A 
ATOM     17  C   UNL     1      10.794  12.608  20.143  0.00  0.00    +0.000 A 
ATOM     18  C   UNL     1      10.131  11.392  20.214  0.00  0.00    +0.000 A 
ENDBRANCH  12  13
ENDBRANCH  11  12
ENDBRANCH   8  11
ENDBRANCH   4   7
BRANCH   6  19
ATOM     19  S   UNL     1       2.511   5.272  19.057  0.00  0.00    +0.000 S 
ATOM     20  O   UNL     1       1.409   4.605  18.387  0.00  0.00    +0.000 OA
ATOM     21  O   UNL     1       3.000   4.774  20.328  0.00  0.00    +0.000 OA
BRANCH  19  22
ATOM     22  N   UNL     1       2.070   6.886  19.273  0.00  0.00    +0.000 NA
ATOM     23  C   UNL     1       2.206   7.793  18.129  0.00  0.00    +0.000 C 
ATOM     24  C   UNL     1       1.611   9.186  18.289  0.00  0.00    +0.000 C 
ATOM     25  C   UNL     1       0.757   9.409  19.520  0.00  0.00    +0.000 C 
ATOM     26  C   UNL     1       1.409   8.812  20.749  0.00  0.00    +0.000 C 
ATOM     27  C   UNL     1       1.686   7.324  20.616  0.00  0.00    +0.000 C 
ENDBRANCH  19  22
ENDBRANCH   6  19
BRANCH   1  29
ATOM     28  C   UNL     1       3.663   1.899  17.894  0.00  0.00    +0.000 C 
ATOM     29  O   UNL     1       3.318   2.978  17.022  0.00  0.00    +0.000 OA
ENDBRANCH   1  29
TORSDOF 7
ENDMDL
MODEL 4
REMARK VINA RESULT:      -7.7      1.926      2.740
REMARK  Name = 
REMARK  8 active torsions:
REMARK  status: ('A' for Active; 'I' for Inactive)
REMARK    1  A    between atoms: C_1  and  O_2
REMARK    2  A    between atoms: O_2  and  C_3
REMARK    3  A    between atoms: C_6  and  N_7
REMARK    4  A    between atoms: C_8  and  C_10
REMARK    5  A    between atoms: C_10  and  C_11
REMARK    6  A    between atoms: C_11  and  C_12
REMARK    7  A    between atoms: C_19  and  S_20
REMARK    8  A    between atoms: S_20  and  N_23
REMARK                            x       y       z     vdW  Elec       q    Type
REMARK                         _______ _______ _______ _____ _____    ______ ____
ROOT
ATOM      1  C   UNL     1       4.412   4.266  17.076  0.00  0.00    +0.000 A 
ATOM      2  C   UNL     1       5.587   4.345  16.318  0.00  0.00    +0.000 A 
ATOM      3  C   UNL     1       6.383   5.487  16.317  0.00  0.00    +0.000 A 
ATOM      4  C   UNL     1       6.046   6.587  17.091  0.00  0.00    +0.000 A 
ATOM      5  C   UNL     1       4.919   6.506  17.902  0.00  0.00    +0.000 A 
ATOM      6  C   UNL     1       4.091   5.355  17.890  0.00  0.00    +0.000 A 
ENDROOT
BRANCH   4   7
ATOM      7  N   UNL     1       6.811   7.771  17.080  0.00  0.00    +0.000 N 
ATOM      8  C   UNL     1       7.875   8.016  17.934  0.00  0.00    +0.000 C 
ATOM      9  O   UNL     1       8.335   7.225  18.752  0.00  0.00    +0.000 OA
ATOM     10  H   UNL     1       6.664   8.413  16.310  0.00  0.00    +0.000 HD
BRANCH   8  11
ATOM     11  C   UNL     1       8.469   9.395  17.790  0.00  0.00    +0.000 C 
BRANCH  11  12
ATOM     12  C   UNL     1       8.967   9.848  19.161  0.00  0.00    +0.000 C 
BRANCH  12  13
ATOM     13  C   UNL     1      10.003  10.928  19.040  0.00  0.00    +0.000 A 
ATOM     14  C   UNL     1      10.461  11.316  17.777  0.00  0.00    +0.000 A 
ATOM     15  C   UNL     1      11.429  12.310  17.660  0.00  0.00    +0.000 A 
ATOM     16  C   UNL     1      11.945  12.913  18.805  0.00  0.00    +0.000 A 
ATOM     17  C   UNL     1      11.499  12.526  20.066  0.00  0.00    +0.000 A 
ATOM     18  C   UNL     1      10.533  11.538  20.187  0.00  0.00    +0.000 A 
ENDBRANCH  12  13
ENDBRANCH  11  12
ENDBRANCH   8  11
ENDBRANCH   4   7
BRANCH   6  19
ATOM     19  S   UNL     1       2.657   5.506  18.934  0.00  0.00    +0.000 S 
ATOM     20  O   UNL     1       1.626   4.720  18.278  0.00  0.00    +0.000 OA
ATOM     21  O   UNL     1       3.114   5.146  20.262  0.00  0.00    +0.000 OA
BRANCH  19  22
ATOM     22  N   UNL     1       2.116   7.103  18.992  0.00  0.00    +0.000 NA
ATOM     23  C   UNL     1       1.658   7.626  20.282  0.00  0.00    +0.000 C 
ATOM     24  C   UNL     1       1.373   9.120  20.350  0.00  0.00    +0.000 C 
ATOM     25  C   UNL     1       1.799   9.936  19.146  0.00  0.00    +0.000 C 
ATOM     26  C   UNL     1       1.424   9.238  17.857  0.00  0.00    +0.000 C 
ATOM     27  C   UNL     1       2.021   7.847  17.734  0.00  0.00    +0.000 C 
ENDBRANCH  19  22
ENDBRANCH   6  19
BRANCH   1  29
ATOM     28  C   UNL     1       3.887   2.155  18.012  0.00  0.00    +0.000 C 
ATOM     29  O   UNL     1       3.614   3.158  17.030  0.00  0.00    +0.000 OA
ENDBRANCH   1  29
TORSDOF 7
ENDMDL
MODEL 5
REMARK VINA RESULT:      -7.5      4.658      7.138
REMARK  Name = 
REMARK  8 active torsions:
REMARK  status: ('A' for Active; 'I' for Inactive)
REMARK    1  A    between atoms: C_1  and  O_2
REMARK    2  A    between atoms: O_2  and  C_3
REMARK    3  A    between atoms: C_6  and  N_7
REMARK    4  A    between atoms: C_8  and  C_10
REMARK    5  A    between atoms: C_10  and  C_11
REMARK    6  A    between atoms: C_11  and  C_12
REMARK    7  A    between atoms: C_19  and  S_20
REMARK    8  A    between atoms: S_20  and  N_23
REMARK                            x       y       z     vdW  Elec       q    Type
REMARK                         _______ _______ _______ _____ _____    ______ ____
ROOT
ATOM      1  C   UNL     1       0.633   8.424  20.834  0.00  0.00    +0.000 A 
ATOM      2  C   UNL     1       0.985   7.161  21.327  0.00  0.00    +0.000 A 
ATOM      3  C   UNL     1       1.871   6.330  20.648  0.00  0.00    +0.000 A 
ATOM      4  C   UNL     1       2.456   6.738  19.460  0.00  0.00    +0.000 A 
ATOM      5  C   UNL     1       2.172   8.013  18.985  0.00  0.00    +0.000 A 
ATOM      6  C   UNL     1       1.252   8.857  19.659  0.00  0.00    +0.000 A 
ENDROOT
BRANCH   4   7
ATOM      7  N   UNL     1       3.327   5.903  18.730  0.00  0.00    +0.000 N 
ATOM      8  C   UNL     1       2.904   4.890  17.884  0.00  0.00    +0.000 C 
ATOM      9  O   UNL     1       1.738   4.631  17.603  0.00  0.00    +0.000 OA
ATOM     10  H   UNL     1       4.308   6.155  18.714  0.00  0.00    +0.000 HD
BRANCH   8  11
ATOM     11  C   UNL     1       4.029   4.076  17.294  0.00  0.00    +0.000 C 
BRANCH  11  12
ATOM     12  C   UNL     1       4.856   4.988  16.389  0.00  0.00    +0.000 C 
BRANCH  12  13
ATOM     13  C   UNL     1       5.986   5.628  17.141  0.00  0.00    +0.000 A 
ATOM     14  C   UNL     1       6.672   4.903  18.121  0.00  0.00    +0.000 A 
ATOM     15  C   UNL     1       7.714   5.496  18.828  0.00  0.00    +0.000 A 
ATOM     16  C   UNL     1       8.070   6.816  18.562  0.00  0.00    +0.000 A 
ATOM     17  C   UNL     1       7.386   7.547  17.593  0.00  0.00    +0.000 A 
ATOM     18  C   UNL     1       6.349   6.959  16.885  0.00  0.00    +0.000 A 
ENDBRANCH  12  13
ENDBRANCH  11  12
ENDBRANCH   8  11
ENDBRANCH   4   7
BRANCH   6  19
ATOM     19  S   UNL     1       0.972  10.405  18.826  0.00  0.00    +0.000 S 
ATOM     20  O   UNL     1       1.331  11.426  19.794  0.00  0.00    +0.000 OA
ATOM     21  O   UNL     1       1.696  10.299  17.575  0.00  0.00    +0.000 OA
BRANCH  19  22
ATOM     22  N   UNL     1      -0.663  10.607  18.460  0.00  0.00    +0.000 NA
ATOM     23  C   UNL     1      -1.434  11.560  19.263  0.00  0.00    +0.000 C 
ATOM     24  C   UNL     1      -2.844  11.873  18.782  0.00  0.00    +0.000 C 
ATOM     25  C   UNL     1      -3.216  11.340  17.414  0.00  0.00    +0.000 C 
ATOM     26  C   UNL     1      -2.751   9.910  17.244  0.00  0.00    +0.000 C 
ATOM     27  C   UNL     1      -1.254   9.740  17.438  0.00  0.00    +0.000 C 
ENDBRANCH  19  22
ENDBRANCH   6  19
BRANCH   1  29
ATOM     28  C   UNL     1       0.136   9.708  22.761  0.00  0.00    +0.000 C 
ATOM     29  O   UNL     1      -0.276   9.210  21.485  0.00  0.00    +0.000 OA
ENDBRANCH   1  29
TORSDOF 7
ENDMDL
MODEL 6
REMARK VINA RESULT:      -7.4      7.723     10.149
REMARK  Name = 
REMARK  8 active torsions:
REMARK  status: ('A' for Active; 'I' for Inactive)
REMARK    1  A    between atoms: C_1  and  O_2
REMARK    2  A    between atoms: O_2  and  C_3
REMARK    3  A    between atoms: C_6  and  N_7
REMARK    4  A    between atoms: C_8  and  C_10
REMARK    5  A    between atoms: C_10  and  C_11
REMARK    6  A    between atoms: C_11  and  C_12
REMARK    7  A    between atoms: C_19  and  S_20
REMARK    8  A    between atoms: S_20  and  N_23
REMARK                            x       y       z     vdW  Elec       q    Type
REMARK                         _______ _______ _______ _____ _____    ______ ____
ROOT
ATOM      1  C   UNL     1      -2.234  12.293  19.913  0.00  0.00    +0.000 A 
ATOM      2  C   UNL     1      -2.350  11.694  18.652  0.00  0.00    +0.000 A 
ATOM      3  C   UNL     1      -1.455  10.720  18.220  0.00  0.00    +0.000 A 
ATOM      4  C   UNL     1      -0.422  10.292  19.039  0.00  0.00    +0.000 A 
ATOM      5  C   UNL     1      -0.327  10.825  20.319  0.00  0.00    +0.000 A 
ATOM      6  C   UNL     1      -1.221  11.835  20.759  0.00  0.00    +0.000 A 
ENDROOT
BRANCH   4   7
ATOM      7  N   UNL     1       0.523   9.335  18.613  0.00  0.00    +0.000 N 
ATOM      8  C   UNL     1       1.756   9.652  18.066  0.00  0.00    +0.000 C 
ATOM      9  O   UNL     1       2.217  10.783  17.945  0.00  0.00    +0.000 OA
ATOM     10  H   UNL     1       0.346   8.368  18.855  0.00  0.00    +0.000 HD
BRANCH   8  11
ATOM     11  C   UNL     1       2.544   8.453  17.601  0.00  0.00    +0.000 C 
BRANCH  11  12
ATOM     12  C   UNL     1       2.524   7.405  18.713  0.00  0.00    +0.000 C 
BRANCH  12  13
ATOM     13  C   UNL     1       2.759   6.026  18.171  0.00  0.00    +0.000 A 
ATOM     14  C   UNL     1       4.018   5.677  17.672  0.00  0.00    +0.000 A 
ATOM     15  C   UNL     1       4.238   4.402  17.159  0.00  0.00    +0.000 A 
ATOM     16  C   UNL     1       3.199   3.474  17.138  0.00  0.00    +0.000 A 
ATOM     17  C   UNL     1       1.940   3.817  17.625  0.00  0.00    +0.000 A 
ATOM     18  C   UNL     1       1.718   5.085  18.139  0.00  0.00    +0.000 A 
ENDBRANCH  12  13
ENDBRANCH  11  12
ENDBRANCH   8  11
ENDBRANCH   4   7
BRANCH   6  19
ATOM     19  S   UNL     1      -0.859  12.436  22.395  0.00  0.00    +0.000 S 
ATOM     20  O   UNL     1      -0.413  11.270  23.137  0.00  0.00    +0.000 OA
ATOM     21  O   UNL     1       0.035  13.560  22.197  0.00  0.00    +0.000 OA
BRANCH  19  22
ATOM     22  N   UNL     1      -2.253  13.013  23.149  0.00  0.00    +0.000 NA
ATOM     23  C   UNL     1      -2.385  14.462  23.332  0.00  0.00    +0.000 C 
ATOM     24  C   UNL     1      -3.734  14.967  23.824  0.00  0.00    +0.000 C 
ATOM     25  C   UNL     1      -4.855  13.948  23.862  0.00  0.00    +0.000 C 
ATOM     26  C   UNL     1      -4.377  12.636  24.443  0.00  0.00    +0.000 C 
ATOM     27  C   UNL     1      -3.205  12.037  23.685  0.00  0.00    +0.000 C 
ENDBRANCH  19  22
ENDBRANCH   6  19
BRANCH   1  29
ATOM     28  C   UNL     1      -4.481  12.954  20.265  0.00  0.00    +0.000 C 
ATOM     29  O   UNL     1      -3.090  13.283  20.307  0.00  0.00    +0.000 OA
ENDBRANCH   1  29
TORSDOF 7
ENDMDL
MODEL 7
REMARK VINA RESULT:      -7.3      4.323      7.717
REMARK  Name = 
REMARK  8 active torsions:
REMARK  status: ('A' for Active; 'I' for Inactive)
REMARK    1  A    between atoms: C_1  and  O_2
REMARK    2  A    between atoms: O_2  and  C_3
REMARK    3  A    between atoms: C_6  and  N_7
REMARK    4  A    between atoms: C_8  and  C_10
REMARK    5  A    between atoms: C_10  and  C_11
REMARK    6  A    between atoms: C_11  and  C_12
REMARK    7  A    between atoms: C_19  and  S_20
REMARK    8  A    between atoms: S_20  and  N_23
REMARK                            x       y       z     vdW  Elec       q    Type
REMARK                         _______ _______ _______ _____ _____    ______ ____
ROOT
ATOM      1  C   UNL     1       2.684   4.167  20.467  0.00  0.00    +0.000 A 
ATOM      2  C   UNL     1       1.661   4.932  21.041  0.00  0.00    +0.000 A 
ATOM      3  C   UNL     1       1.448   6.260  20.681  0.00  0.00    +0.000 A 
ATOM      4  C   UNL     1       2.237   6.867  19.717  0.00  0.00    +0.000 A 
ATOM      5  C   UNL     1       3.216   6.108  19.086  0.00  0.00    +0.000 A 
ATOM      6  C   UNL     1       3.454   4.762  19.464  0.00  0.00    +0.000 A 
ENDROOT
BRANCH   4   7
ATOM      7  N   UNL     1       2.070   8.221  19.360  0.00  0.00    +0.000 N 
ATOM      8  C   UNL     1       2.188   8.703  18.066  0.00  0.00    +0.000 C 
ATOM      9  O   UNL     1       2.379   8.024  17.062  0.00  0.00    +0.000 OA
ATOM     10  H   UNL     1       1.702   8.847  20.067  0.00  0.00    +0.000 HD
BRANCH   8  11
ATOM     11  C   UNL     1       2.061  10.203  17.958  0.00  0.00    +0.000 C 
BRANCH  11  12
ATOM     12  C   UNL     1       1.180  10.692  19.107  0.00  0.00    +0.000 C 
BRANCH  12  13
ATOM     13  C   UNL     1      -0.257  10.804  18.686  0.00  0.00    +0.000 A 
ATOM     14  C   UNL     1      -0.765   9.949  17.703  0.00  0.00    +0.000 A 
ATOM     15  C   UNL     1      -2.094  10.056  17.302  0.00  0.00    +0.000 A 
ATOM     16  C   UNL     1      -2.916  11.021  17.879  0.00  0.00    +0.000 A 
ATOM     17  C   UNL     1      -2.415  11.880  18.854  0.00  0.00    +0.000 A 
ATOM     18  C   UNL     1      -1.093  11.776  19.257  0.00  0.00    +0.000 A 
ENDBRANCH  12  13
ENDBRANCH  11  12
ENDBRANCH   8  11
ENDBRANCH   4   7
BRANCH   6  19
ATOM     19  S   UNL     1       4.811   4.012  18.591  0.00  0.00    +0.000 S 
ATOM     20  O   UNL     1       5.391   3.068  19.530  0.00  0.00    +0.000 OA
ATOM     21  O   UNL     1       4.246   3.542  17.341  0.00  0.00    +0.000 OA
BRANCH  19  22
ATOM     22  N   UNL     1       5.998   5.153  18.222  0.00  0.00    +0.000 NA
ATOM     23  C   UNL     1       6.123   5.586  16.827  0.00  0.00    +0.000 C 
ATOM     24  C   UNL     1       7.056   6.760  16.559  0.00  0.00    +0.000 C 
ATOM     25  C   UNL     1       7.579   7.488  17.780  0.00  0.00    +0.000 C 
ATOM     26  C   UNL     1       8.020   6.511  18.848  0.00  0.00    +0.000 C 
ATOM     27  C   UNL     1       6.915   5.565  19.286  0.00  0.00    +0.000 C 
ENDBRANCH  19  22
ENDBRANCH   6  19
BRANCH   1  29
ATOM     28  C   UNL     1       1.899   2.293  21.685  0.00  0.00    +0.000 C 
ATOM     29  O   UNL     1       2.913   2.880  20.865  0.00  0.00    +0.000 OA
ENDBRANCH   1  29
TORSDOF 7
ENDMDL
MODEL 8
REMARK VINA RESULT:      -7.3      4.522      8.045
REMARK  Name = 
REMARK  8 active torsions:
REMARK  status: ('A' for Active; 'I' for Inactive)
REMARK    1  A    between atoms: C_1  and  O_2
REMARK    2  A    between atoms: O_2  and  C_3
REMARK    3  A    between atoms: C_6  and  N_7
REMARK    4  A    between atoms: C_8  and  C_10
REMARK    5  A    between atoms: C_10  and  C_11
REMARK    6  A    between atoms: C_11  and  C_12
REMARK    7  A    between atoms: C_19  and  S_20
REMARK    8  A    between atoms: S_20  and  N_23
REMARK                            x       y       z     vdW  Elec       q    Type
REMARK                         _______ _______ _______ _____ _____    ______ ____
ROOT
ATOM      1  C   UNL     1       2.402   3.858  20.081  0.00  0.00    +0.000 A 
ATOM      2  C   UNL     1       1.278   4.473  20.649  0.00  0.00    +0.000 A 
ATOM      3  C   UNL     1       1.089   5.850  20.589  0.00  0.00    +0.000 A 
ATOM      4  C   UNL     1       2.005   6.665  19.943  0.00  0.00    +0.000 A 
ATOM      5  C   UNL     1       3.094   6.070  19.316  0.00  0.00    +0.000 A 
ATOM      6  C   UNL     1       3.306   4.670  19.391  0.00  0.00    +0.000 A 
ENDROOT
BRANCH   4   7
ATOM      7  N   UNL     1       1.860   8.067  19.901  0.00  0.00    +0.000 N 
ATOM      8  C   UNL     1       0.919   8.772  20.634  0.00  0.00    +0.000 C 
ATOM      9  O   UNL     1       0.146   8.294  21.457  0.00  0.00    +0.000 OA
ATOM     10  H   UNL     1       2.579   8.594  19.420  0.00  0.00    +0.000 HD
BRANCH   8  11
ATOM     11  C   UNL     1       0.901  10.252  20.341  0.00  0.00    +0.000 C 
BRANCH  11  12
ATOM     12  C   UNL     1       0.748  10.440  18.833  0.00  0.00    +0.000 C 
BRANCH  12  13
ATOM     13  C   UNL     1      -0.691  10.622  18.446  0.00  0.00    +0.000 A 
ATOM     14  C   UNL     1      -1.479  11.564  19.114  0.00  0.00    +0.000 A 
ATOM     15  C   UNL     1      -2.818  11.729  18.766  0.00  0.00    +0.000 A 
ATOM     16  C   UNL     1      -3.371  10.948  17.754  0.00  0.00    +0.000 A 
ATOM     17  C   UNL     1      -2.594  10.003  17.089  0.00  0.00    +0.000 A 
ATOM     18  C   UNL     1      -1.260   9.838  17.431  0.00  0.00    +0.000 A 
ENDBRANCH  12  13
ENDBRANCH  11  12
ENDBRANCH   8  11
ENDBRANCH   4   7
BRANCH   6  19
ATOM     19  S   UNL     1       4.808   4.138  18.596  0.00  0.00    +0.000 S 
ATOM     20  O   UNL     1       5.463   3.275  19.563  0.00  0.00    +0.000 OA
ATOM     21  O   UNL     1       4.390   3.609  17.313  0.00  0.00    +0.000 OA
BRANCH  19  22
ATOM     22  N   UNL     1       5.834   5.445  18.305  0.00  0.00    +0.000 NA
ATOM     23  C   UNL     1       6.984   5.627  19.196  0.00  0.00    +0.000 C 
ATOM     24  C   UNL     1       8.001   6.684  18.790  0.00  0.00    +0.000 C 
ATOM     25  C   UNL     1       7.831   7.276  17.406  0.00  0.00    +0.000 C 
ATOM     26  C   UNL     1       6.379   7.600  17.128  0.00  0.00    +0.000 C 
ATOM     27  C   UNL     1       5.462   6.395  17.254  0.00  0.00    +0.000 C 
ENDBRANCH  19  22
ENDBRANCH   6  19
BRANCH   1  29
ATOM     28  C   UNL     1       2.005   1.712  19.162  0.00  0.00    +0.000 C 
ATOM     29  O   UNL     1       2.601   2.510  20.188  0.00  0.00    +0.000 OA
ENDBRANCH   1  29
TORSDOF 7
ENDMDL
MODEL 9
REMARK VINA RESULT:      -7.3      0.615      1.127
REMARK  Name = 
REMARK  8 active torsions:
REMARK  status: ('A' for Active; 'I' for Inactive)
REMARK    1  A    between atoms: C_1  and  O_2
REMARK    2  A    between atoms: O_2  and  C_3
REMARK    3  A    between atoms: C_6  and  N_7
REMARK    4  A    between atoms: C_8  and  C_10
REMARK    5  A    between atoms: C_10  and  C_11
REMARK    6  A    between atoms: C_11  and  C_12
REMARK    7  A    between atoms: C_19  and  S_20
REMARK    8  A    between atoms: S_20  and  N_23
REMARK                            x       y       z     vdW  Elec       q    Type
REMARK                         _______ _______ _______ _____ _____    ______ ____
ROOT
ATOM      1  C   UNL     1       4.745   4.421  17.445  0.00  0.00    +0.000 A 
ATOM      2  C   UNL     1       6.053   4.403  16.946  0.00  0.00    +0.000 A 
ATOM      3  C   UNL     1       6.826   5.559  16.875  0.00  0.00    +0.000 A 
ATOM      4  C   UNL     1       6.328   6.773  17.321  0.00  0.00    +0.000 A 
ATOM      5  C   UNL     1       5.056   6.802  17.881  0.00  0.00    +0.000 A 
ATOM      6  C   UNL     1       4.254   5.634  17.936  0.00  0.00    +0.000 A 
ENDROOT
BRANCH   4   7
ATOM      7  N   UNL     1       7.074   7.966  17.225  0.00  0.00    +0.000 N 
ATOM      8  C   UNL     1       8.110   8.305  18.080  0.00  0.00    +0.000 C 
ATOM      9  O   UNL     1       8.561   7.598  18.976  0.00  0.00    +0.000 OA
ATOM     10  H   UNL     1       6.936   8.535  16.398  0.00  0.00    +0.000 HD
BRANCH   8  11
ATOM     11  C   UNL     1       8.684   9.677  17.830  0.00  0.00    +0.000 C 
BRANCH  11  12
ATOM     12  C   UNL     1       9.241  10.211  19.150  0.00  0.00    +0.000 C 
BRANCH  12  13
ATOM     13  C   UNL     1      10.299  11.250  18.918  0.00  0.00    +0.000 A 
ATOM     14  C   UNL     1      10.550  11.714  17.623  0.00  0.00    +0.000 A 
ATOM     15  C   UNL     1      11.537  12.671  17.401  0.00  0.00    +0.000 A 
ATOM     16  C   UNL     1      12.279  13.161  18.473  0.00  0.00    +0.000 A 
ATOM     17  C   UNL     1      12.040  12.698  19.765  0.00  0.00    +0.000 A 
ATOM     18  C   UNL     1      11.056  11.747  19.990  0.00  0.00    +0.000 A 
ENDBRANCH  12  13
ENDBRANCH  11  12
ENDBRANCH   8  11
ENDBRANCH   4   7
BRANCH   6  19
ATOM     19  S   UNL     1       2.631   5.922  18.608  0.00  0.00    +0.000 S 
ATOM     20  O   UNL     1       2.764   7.119  19.419  0.00  0.00    +0.000 OA
ATOM     21  O   UNL     1       1.739   5.910  17.465  0.00  0.00    +0.000 OA
BRANCH  19  22
ATOM     22  N   UNL     1       2.170   4.664  19.634  0.00  0.00    +0.000 NA
ATOM     23  C   UNL     1       1.117   3.754  19.173  0.00  0.00    +0.000 C 
ATOM     24  C   UNL     1       0.867   2.516  20.023  0.00  0.00    +0.000 C 
ATOM     25  C   UNL     1       1.873   2.247  21.123  0.00  0.00    +0.000 C 
ATOM     26  C   UNL     1       2.211   3.518  21.872  0.00  0.00    +0.000 C 
ATOM     27  C   UNL     1       2.758   4.614  20.974  0.00  0.00    +0.000 C 
ENDBRANCH  19  22
ENDBRANCH   6  19
BRANCH   1  29
ATOM     28  C   UNL     1       3.149   3.082  16.318  0.00  0.00    +0.000 C 
ATOM     29  O   UNL     1       3.978   3.289  17.465  0.00  0.00    +0.000 OA
ENDBRANCH   1  29
TORSDOF 7
ENDMDL
