MODEL 1
REMARK VINA RESULT:      -7.7      0.000      0.000
REMARK  Name = 
REMARK  1 active torsions:
REMARK  status: ('A' for Active; 'I' for Inactive)
REMARK    1  A    between atoms: N_13  and  C_14
REMARK                            x       y       z     vdW  Elec       q    Type
REMARK                         _______ _______ _______ _____ _____    ______ ____
ROOT
ATOM      1  O   UNL     1       1.748   3.597  16.808  0.00  0.00    +0.000 OA
ATOM      2  C   UNL     1       2.585   3.689  17.702  0.00  0.00    +0.000 A 
ATOM      3  C   UNL     1       2.182   3.429  19.121  0.00  0.00    +0.000 A 
ATOM      4  C   UNL     1       0.887   3.018  19.459  0.00  0.00    +0.000 A 
ATOM      5  C   UNL     1       0.572   2.732  20.793  0.00  0.00    +0.000 A 
ATOM      6  C   UNL     1       1.543   2.868  21.788  0.00  0.00    +0.000 A 
ATOM      7  C   UNL     1       2.824   3.293  21.451  0.00  0.00    +0.000 A 
ATOM      8  C   UNL     1       3.153   3.574  20.122  0.00  0.00    +0.000 A 
ATOM      9  N   UNL     1       4.470   3.959  19.850  0.00  0.00    +0.000 NA
ATOM     10  C   UNL     1       4.764   4.137  18.611  0.00  0.00    +0.000 A 
ATOM     11  S   UNL     1       6.347   4.564  18.102  0.00  0.00    +0.000 S 
ATOM     12  C   UNL     1       5.776   4.462  16.432  0.00  0.00    +0.000 A 
ATOM     13  N   UNL     1       6.830   4.680  15.600  0.00  0.00    +0.000 N 
ATOM     14  N   UNL     1       4.519   4.198  16.284  0.00  0.00    +0.000 NA
ATOM     15  N   UNL     1       3.929   4.015  17.537  0.00  0.00    +0.000 N 
ATOM     16  H   UNL     1       7.696   4.810  16.109  0.00  0.00    +0.000 HD
ENDROOT
BRANCH  13  17
ATOM     17  C   UNL     1       7.014   4.675  14.214  0.00  0.00    +0.000 A 
ATOM     18  C   UNL     1       7.834   5.551  13.507  0.00  0.00    +0.000 A 
ATOM     19  C   UNL     1       7.951   5.440  12.112  0.00  0.00    +0.000 A 
ATOM     20  C   UNL     1       7.244   4.460  11.410  0.00  0.00    +0.000 A 
ATOM     21  C   UNL     1       6.420   3.583  12.096  0.00  0.00    +0.000 A 
ATOM     22  C   UNL     1       6.311   3.691  13.481  0.00  0.00    +0.000 A 
ENDBRANCH  13  17
TORSDOF 1
ENDMDL
MODEL 2
REMARK VINA RESULT:      -7.5      5.363      8.364
REMARK  Name = 
REMARK  1 active torsions:
REMARK  status: ('A' for Active; 'I' for Inactive)
REMARK    1  A    between atoms: N_13  and  C_14
REMARK                            x       y       z     vdW  Elec       q    Type
REMARK                         _______ _______ _______ _____ _____    ______ ____
ROOT
ATOM      1  O   UNL     1       2.090   4.542  21.528  0.00  0.00    +0.000 OA
ATOM      2  C   UNL     1       2.373   4.932  20.398  0.00  0.00    +0.000 A 
ATOM      3  C   UNL     1       2.957   3.971  19.409  0.00  0.00    +0.000 A 
ATOM      4  C   UNL     1       3.133   2.615  19.710  0.00  0.00    +0.000 A 
ATOM      5  C   UNL     1       3.630   1.743  18.735  0.00  0.00    +0.000 A 
ATOM      6  C   UNL     1       3.961   2.223  17.465  0.00  0.00    +0.000 A 
ATOM      7  C   UNL     1       3.801   3.575  17.175  0.00  0.00    +0.000 A 
ATOM      8  C   UNL     1       3.299   4.454  18.138  0.00  0.00    +0.000 A 
ATOM      9  N   UNL     1       3.127   5.791  17.765  0.00  0.00    +0.000 NA
ATOM     10  C   UNL     1       2.592   6.561  18.645  0.00  0.00    +0.000 A 
ATOM     11  S   UNL     1       2.267   8.217  18.331  0.00  0.00    +0.000 S 
ATOM     12  C   UNL     1       1.527   8.317  19.934  0.00  0.00    +0.000 A 
ATOM     13  N   UNL     1       1.016   9.568  20.097  0.00  0.00    +0.000 N 
ATOM     14  N   UNL     1       1.578   7.239  20.644  0.00  0.00    +0.000 NA
ATOM     15  N   UNL     1       2.196   6.223  19.909  0.00  0.00    +0.000 N 
ATOM     16  H   UNL     1       1.135  10.138  19.269  0.00  0.00    +0.000 HD
ENDROOT
BRANCH  13  17
ATOM     17  C   UNL     1       0.288  10.216  21.099  0.00  0.00    +0.000 A 
ATOM     18  C   UNL     1      -0.182   9.620  22.267  0.00  0.00    +0.000 A 
ATOM     19  C   UNL     1      -0.893  10.378  23.211  0.00  0.00    +0.000 A 
ATOM     20  C   UNL     1      -1.149  11.734  22.995  0.00  0.00    +0.000 A 
ATOM     21  C   UNL     1      -0.693  12.343  21.836  0.00  0.00    +0.000 A 
ATOM     22  C   UNL     1       0.018  11.589  20.904  0.00  0.00    +0.000 A 
ENDBRANCH  13  17
TORSDOF 1
ENDMDL
MODEL 3
REMARK VINA RESULT:      -7.4      5.344      8.277
REMARK  Name = 
REMARK  1 active torsions:
REMARK  status: ('A' for Active; 'I' for Inactive)
REMARK    1  A    between atoms: N_13  and  C_14
REMARK                            x       y       z     vdW  Elec       q    Type
REMARK                         _______ _______ _______ _____ _____    ______ ____
ROOT
ATOM      1  O   UNL     1       2.102   4.675  21.521  0.00  0.00    +0.000 OA
ATOM      2  C   UNL     1       2.377   5.028  20.377  0.00  0.00    +0.000 A 
ATOM      3  C   UNL     1       2.939   4.032  19.411  0.00  0.00    +0.000 A 
ATOM      4  C   UNL     1       3.104   2.683  19.751  0.00  0.00    +0.000 A 
ATOM      5  C   UNL     1       3.581   1.777  18.797  0.00  0.00    +0.000 A 
ATOM      6  C   UNL     1       3.903   2.216  17.510  0.00  0.00    +0.000 A 
ATOM      7  C   UNL     1       3.753   3.559  17.181  0.00  0.00    +0.000 A 
ATOM      8  C   UNL     1       3.272   4.473  18.123  0.00  0.00    +0.000 A 
ATOM      9  N   UNL     1       3.111   5.800  17.712  0.00  0.00    +0.000 NA
ATOM     10  C   UNL     1       2.594   6.602  18.574  0.00  0.00    +0.000 A 
ATOM     11  S   UNL     1       2.283   8.251  18.214  0.00  0.00    +0.000 S 
ATOM     12  C   UNL     1       1.562   8.407  19.821  0.00  0.00    +0.000 A 
ATOM     13  N   UNL     1       1.066   9.667  19.952  0.00  0.00    +0.000 N 
ATOM     14  N   UNL     1       1.610   7.350  20.562  0.00  0.00    +0.000 NA
ATOM     15  N   UNL     1       2.208   6.306  19.851  0.00  0.00    +0.000 N 
ATOM     16  H   UNL     1       1.182  10.212  19.106  0.00  0.00    +0.000 HD
ENDROOT
BRANCH  13  17
ATOM     17  C   UNL     1       0.356  10.353  20.943  0.00  0.00    +0.000 A 
ATOM     18  C   UNL     1       0.057  11.713  20.924  0.00  0.00    +0.000 A 
ATOM     19  C   UNL     1      -0.677  12.290  21.973  0.00  0.00    +0.000 A 
ATOM     20  C   UNL     1      -1.112  11.517  23.052  0.00  0.00    +0.000 A 
ATOM     21  C   UNL     1      -0.819  10.163  23.090  0.00  0.00    +0.000 A 
ATOM     22  C   UNL     1      -0.095   9.592  22.045  0.00  0.00    +0.000 A 
ENDBRANCH  13  17
TORSDOF 1
ENDMDL
MODEL 4
REMARK VINA RESULT:      -7.4      0.146      1.055
REMARK  Name = 
REMARK  1 active torsions:
REMARK  status: ('A' for Active; 'I' for Inactive)
REMARK    1  A    between atoms: N_13  and  C_14
REMARK                            x       y       z     vdW  Elec       q    Type
REMARK                         _______ _______ _______ _____ _____    ______ ____
ROOT
ATOM      1  O   UNL     1       1.726   3.618  16.815  0.00  0.00    +0.000 OA
ATOM      2  C   UNL     1       2.580   3.687  17.696  0.00  0.00    +0.000 A 
ATOM      3  C   UNL     1       2.194   3.438  19.121  0.00  0.00    +0.000 A 
ATOM      4  C   UNL     1       0.894   3.061  19.481  0.00  0.00    +0.000 A 
ATOM      5  C   UNL     1       0.593   2.784  20.819  0.00  0.00    +0.000 A 
ATOM      6  C   UNL     1       1.583   2.892  21.798  0.00  0.00    +0.000 A 
ATOM      7  C   UNL     1       2.870   3.283  21.440  0.00  0.00    +0.000 A 
ATOM      8  C   UNL     1       3.184   3.556  20.106  0.00  0.00    +0.000 A 
ATOM      9  N   UNL     1       4.506   3.905  19.812  0.00  0.00    +0.000 NA
ATOM     10  C   UNL     1       4.785   4.076  18.568  0.00  0.00    +0.000 A 
ATOM     11  S   UNL     1       6.370   4.459  18.033  0.00  0.00    +0.000 S 
ATOM     12  C   UNL     1       5.769   4.374  16.373  0.00  0.00    +0.000 A 
ATOM     13  N   UNL     1       6.815   4.564  15.523  0.00  0.00    +0.000 N 
ATOM     14  N   UNL     1       4.503   4.144  16.245  0.00  0.00    +0.000 NA
ATOM     15  N   UNL     1       3.929   3.976  17.508  0.00  0.00    +0.000 N 
ATOM     16  H   UNL     1       7.692   4.670  16.018  0.00  0.00    +0.000 HD
ENDROOT
BRANCH  13  17
ATOM     17  C   UNL     1       6.976   4.554  14.134  0.00  0.00    +0.000 A 
ATOM     18  C   UNL     1       6.359   3.665  13.258  0.00  0.00    +0.000 A 
ATOM     19  C   UNL     1       6.587   3.761  11.876  0.00  0.00    +0.000 A 
ATOM     20  C   UNL     1       7.439   4.740  11.357  0.00  0.00    +0.000 A 
ATOM     21  C   UNL     1       8.066   5.630  12.215  0.00  0.00    +0.000 A 
ATOM     22  C   UNL     1       7.833   5.536  13.586  0.00  0.00    +0.000 A 
ENDBRANCH  13  17
TORSDOF 1
ENDMDL
MODEL 5
REMARK VINA RESULT:      -7.4      3.406      3.484
REMARK  Name = 
REMARK  1 active torsions:
REMARK  status: ('A' for Active; 'I' for Inactive)
REMARK    1  A    between atoms: N_13  and  C_14
REMARK                            x       y       z     vdW  Elec       q    Type
REMARK                         _______ _______ _______ _____ _____    ______ ____
ROOT
ATOM      1  O   UNL     1       2.919   8.926  16.974  0.00  0.00    +0.000 OA
ATOM      2  C   UNL     1       2.905   8.027  17.811  0.00  0.00    +0.000 A 
ATOM      3  C   UNL     1       2.073   8.180  19.046  0.00  0.00    +0.000 A 
ATOM      4  C   UNL     1       1.251   9.295  19.252  0.00  0.00    +0.000 A 
ATOM      5  C   UNL     1       0.448   9.368  20.396  0.00  0.00    +0.000 A 
ATOM      6  C   UNL     1       0.472   8.337  21.338  0.00  0.00    +0.000 A 
ATOM      7  C   UNL     1       1.302   7.239  21.139  0.00  0.00    +0.000 A 
ATOM      8  C   UNL     1       2.103   7.151  19.997  0.00  0.00    +0.000 A 
ATOM      9  N   UNL     1       2.884   6.000  19.843  0.00  0.00    +0.000 NA
ATOM     10  C   UNL     1       3.552   5.911  18.748  0.00  0.00    +0.000 A 
ATOM     11  S   UNL     1       4.521   4.543  18.380  0.00  0.00    +0.000 S 
ATOM     12  C   UNL     1       4.865   5.280  16.810  0.00  0.00    +0.000 A 
ATOM     13  N   UNL     1       5.623   4.415  16.083  0.00  0.00    +0.000 N 
ATOM     14  N   UNL     1       4.356   6.452  16.616  0.00  0.00    +0.000 NA
ATOM     15  N   UNL     1       3.602   6.824  17.732  0.00  0.00    +0.000 N 
ATOM     16  H   UNL     1       5.785   3.545  16.575  0.00  0.00    +0.000 HD
ENDROOT
BRANCH  13  17
ATOM     17  C   UNL     1       6.149   4.409  14.787  0.00  0.00    +0.000 A 
ATOM     18  C   UNL     1       7.235   5.166  14.355  0.00  0.00    +0.000 A 
ATOM     19  C   UNL     1       7.683   5.066  13.028  0.00  0.00    +0.000 A 
ATOM     20  C   UNL     1       7.047   4.216  12.119  0.00  0.00    +0.000 A 
ATOM     21  C   UNL     1       5.962   3.459  12.530  0.00  0.00    +0.000 A 
ATOM     22  C   UNL     1       5.523   3.556  13.849  0.00  0.00    +0.000 A 
ENDBRANCH  13  17
TORSDOF 1
ENDMDL
MODEL 6
REMARK VINA RESULT:      -7.3      3.618      3.847
REMARK  Name = 
REMARK  1 active torsions:
REMARK  status: ('A' for Active; 'I' for Inactive)
REMARK    1  A    between atoms: N_13  and  C_14
REMARK                            x       y       z     vdW  Elec       q    Type
REMARK                         _______ _______ _______ _____ _____    ______ ____
ROOT
ATOM      1  O   UNL     1       2.698   9.016  17.039  0.00  0.00    +0.000 OA
ATOM      2  C   UNL     1       2.683   8.165  17.925  0.00  0.00    +0.000 A 
ATOM      3  C   UNL     1       1.860   8.394  19.155  0.00  0.00    +0.000 A 
ATOM      4  C   UNL     1       1.049   9.526  19.303  0.00  0.00    +0.000 A 
ATOM      5  C   UNL     1       0.255   9.670  20.446  0.00  0.00    +0.000 A 
ATOM      6  C   UNL     1       0.277   8.693  21.445  0.00  0.00    +0.000 A 
ATOM      7  C   UNL     1       1.096   7.578  21.302  0.00  0.00    +0.000 A 
ATOM      8  C   UNL     1       1.889   7.419  20.162  0.00  0.00    +0.000 A 
ATOM      9  N   UNL     1       2.659   6.255  20.067  0.00  0.00    +0.000 NA
ATOM     10  C   UNL     1       3.319   6.099  18.974  0.00  0.00    +0.000 A 
ATOM     11  S   UNL     1       4.273   4.704  18.677  0.00  0.00    +0.000 S 
ATOM     12  C   UNL     1       4.613   5.349  17.066  0.00  0.00    +0.000 A 
ATOM     13  N   UNL     1       5.358   4.438  16.383  0.00  0.00    +0.000 N 
ATOM     14  N   UNL     1       4.112   6.513  16.811  0.00  0.00    +0.000 NA
ATOM     15  N   UNL     1       3.368   6.954  17.909  0.00  0.00    +0.000 N 
ATOM     16  H   UNL     1       5.516   3.595  16.922  0.00  0.00    +0.000 HD
ENDROOT
BRANCH  13  17
ATOM     17  C   UNL     1       5.874   4.355  15.087  0.00  0.00    +0.000 A 
ATOM     18  C   UNL     1       5.309   3.633  14.039  0.00  0.00    +0.000 A 
ATOM     19  C   UNL     1       5.913   3.635  12.771  0.00  0.00    +0.000 A 
ATOM     20  C   UNL     1       7.091   4.351  12.541  0.00  0.00    +0.000 A 
ATOM     21  C   UNL     1       7.671   5.070  13.573  0.00  0.00    +0.000 A 
ATOM     22  C   UNL     1       7.066   5.071  14.829  0.00  0.00    +0.000 A 
ENDBRANCH  13  17
TORSDOF 1
ENDMDL
MODEL 7
REMARK VINA RESULT:      -7.3      4.481      4.857
REMARK  Name = 
REMARK  1 active torsions:
REMARK  status: ('A' for Active; 'I' for Inactive)
REMARK    1  A    between atoms: N_13  and  C_14
REMARK                            x       y       z     vdW  Elec       q    Type
REMARK                         _______ _______ _______ _____ _____    ______ ____
ROOT
ATOM      1  O   UNL     1       2.187   9.717  17.391  0.00  0.00    +0.000 OA
ATOM      2  C   UNL     1       2.048   8.962  18.349  0.00  0.00    +0.000 A 
ATOM      3  C   UNL     1       1.112   9.338  19.456  0.00  0.00    +0.000 A 
ATOM      4  C   UNL     1       0.334  10.502  19.405  0.00  0.00    +0.000 A 
ATOM      5  C   UNL     1      -0.568  10.783  20.438  0.00  0.00    +0.000 A 
ATOM      6  C   UNL     1      -0.686   9.913  21.524  0.00  0.00    +0.000 A 
ATOM      7  C   UNL     1       0.100   8.766  21.580  0.00  0.00    +0.000 A 
ATOM      8  C   UNL     1       0.999   8.471  20.552  0.00  0.00    +0.000 A 
ATOM      9  N   UNL     1       1.729   7.282  20.655  0.00  0.00    +0.000 NA
ATOM     10  C   UNL     1       2.492   6.997  19.658  0.00  0.00    +0.000 A 
ATOM     11  S   UNL     1       3.418   5.552  19.603  0.00  0.00    +0.000 S 
ATOM     12  C   UNL     1       3.946   6.021  17.982  0.00  0.00    +0.000 A 
ATOM     13  N   UNL     1       4.722   5.024  17.476  0.00  0.00    +0.000 N 
ATOM     14  N   UNL     1       3.519   7.165  17.562  0.00  0.00    +0.000 NA
ATOM     15  N   UNL     1       2.684   7.737  18.526  0.00  0.00    +0.000 N 
ATOM     16  H   UNL     1       4.791   4.237  18.109  0.00  0.00    +0.000 HD
ENDROOT
BRANCH  13  17
ATOM     17  C   UNL     1       5.366   4.795  16.256  0.00  0.00    +0.000 A 
ATOM     18  C   UNL     1       4.806   4.145  15.159  0.00  0.00    +0.000 A 
ATOM     19  C   UNL     1       5.548   3.985  13.977  0.00  0.00    +0.000 A 
ATOM     20  C   UNL     1       6.857   4.465  13.883  0.00  0.00    +0.000 A 
ATOM     21  C   UNL     1       7.432   5.109  14.967  0.00  0.00    +0.000 A 
ATOM     22  C   UNL     1       6.692   5.272  16.136  0.00  0.00    +0.000 A 
ENDBRANCH  13  17
TORSDOF 1
ENDMDL
MODEL 8
REMARK VINA RESULT:      -7.2      4.434      4.683
REMARK  Name = 
REMARK  1 active torsions:
REMARK  status: ('A' for Active; 'I' for Inactive)
REMARK    1  A    between atoms: N_13  and  C_14
REMARK                            x       y       z     vdW  Elec       q    Type
REMARK                         _______ _______ _______ _____ _____    ______ ____
ROOT
ATOM      1  O   UNL     1       2.239   9.702  17.345  0.00  0.00    +0.000 OA
ATOM      2  C   UNL     1       2.108   8.940  18.300  0.00  0.00    +0.000 A 
ATOM      3  C   UNL     1       1.153   9.289  19.399  0.00  0.00    +0.000 A 
ATOM      4  C   UNL     1       0.348  10.434  19.345  0.00  0.00    +0.000 A 
ATOM      5  C   UNL     1      -0.571  10.689  20.369  0.00  0.00    +0.000 A 
ATOM      6  C   UNL     1      -0.679   9.812  21.450  0.00  0.00    +0.000 A 
ATOM      7  C   UNL     1       0.133   8.684  21.509  0.00  0.00    +0.000 A 
ATOM      8  C   UNL     1       1.050   8.414  20.489  0.00  0.00    +0.000 A 
ATOM      9  N   UNL     1       1.807   7.243  20.595  0.00  0.00    +0.000 NA
ATOM     10  C   UNL     1       2.586   6.980  19.605  0.00  0.00    +0.000 A 
ATOM     11  S   UNL     1       3.547   5.559  19.554  0.00  0.00    +0.000 S 
ATOM     12  C   UNL     1       4.080   6.046  17.940  0.00  0.00    +0.000 A 
ATOM     13  N   UNL     1       4.885   5.071  17.437  0.00  0.00    +0.000 N 
ATOM     14  N   UNL     1       3.630   7.183  17.520  0.00  0.00    +0.000 NA
ATOM     15  N   UNL     1       2.772   7.730  18.478  0.00  0.00    +0.000 N 
ATOM     16  H   UNL     1       4.966   4.283  18.068  0.00  0.00    +0.000 HD
ENDROOT
BRANCH  13  17
ATOM     17  C   UNL     1       5.547   4.863  16.223  0.00  0.00    +0.000 A 
ATOM     18  C   UNL     1       6.860   5.232  15.948  0.00  0.00    +0.000 A 
ATOM     19  C   UNL     1       7.424   4.958  14.692  0.00  0.00    +0.000 A 
ATOM     20  C   UNL     1       6.679   4.319  13.697  0.00  0.00    +0.000 A 
ATOM     21  C   UNL     1       5.369   3.948  13.951  0.00  0.00    +0.000 A 
ATOM     22  C   UNL     1       4.814   4.217  15.201  0.00  0.00    +0.000 A 
ENDBRANCH  13  17
TORSDOF 1
ENDMDL
MODEL 9
REMARK VINA RESULT:      -7.1      5.088      8.514
REMARK  Name = 
REMARK  1 active torsions:
REMARK  status: ('A' for Active; 'I' for Inactive)
REMARK    1  A    between atoms: N_13  and  C_14
REMARK                            x       y       z     vdW  Elec       q    Type
REMARK                         _______ _______ _______ _____ _____    ______ ____
ROOT
ATOM      1  O   UNL     1       3.573   8.311  16.745  0.00  0.00    +0.000 OA
ATOM      2  C   UNL     1       3.576   7.269  17.395  0.00  0.00    +0.000 A 
ATOM      3  C   UNL     1       4.394   6.106  16.925  0.00  0.00    +0.000 A 
ATOM      4  C   UNL     1       5.215   6.188  15.793  0.00  0.00    +0.000 A 
ATOM      5  C   UNL     1       6.005   5.094  15.424  0.00  0.00    +0.000 A 
ATOM      6  C   UNL     1       5.968   3.916  16.175  0.00  0.00    +0.000 A 
ATOM      7  C   UNL     1       5.139   3.832  17.289  0.00  0.00    +0.000 A 
ATOM      8  C   UNL     1       4.351   4.921  17.672  0.00  0.00    +0.000 A 
ATOM      9  N   UNL     1       3.571   4.779  18.824  0.00  0.00    +0.000 NA
ATOM     10  C   UNL     1       2.915   5.822  19.196  0.00  0.00    +0.000 A 
ATOM     11  S   UNL     1       1.949   5.833  20.615  0.00  0.00    +0.000 S 
ATOM     12  C   UNL     1       1.624   7.544  20.312  0.00  0.00    +0.000 A 
ATOM     13  N   UNL     1       0.874   8.030  21.338  0.00  0.00    +0.000 N 
ATOM     14  N   UNL     1       2.137   8.029  19.230  0.00  0.00    +0.000 NA
ATOM     15  N   UNL     1       2.879   7.040  18.579  0.00  0.00    +0.000 N 
ATOM     16  H   UNL     1       0.705   7.331  22.050  0.00  0.00    +0.000 HD
ENDROOT
BRANCH  13  17
ATOM     17  C   UNL     1       0.363   9.286  21.681  0.00  0.00    +0.000 A 
ATOM     18  C   UNL     1       0.626  10.474  21.006  0.00  0.00    +0.000 A 
ATOM     19  C   UNL     1       0.043  11.677  21.437  0.00  0.00    +0.000 A 
ATOM     20  C   UNL     1      -0.801  11.704  22.551  0.00  0.00    +0.000 A 
ATOM     21  C   UNL     1      -1.070  10.532  23.238  0.00  0.00    +0.000 A 
ATOM     22  C   UNL     1      -0.494   9.339  22.804  0.00  0.00    +0.000 A 
ENDBRANCH  13  17
TORSDOF 1
ENDMDL
