MODEL 1
REMARK VINA RESULT:      -6.8      0.000      0.000
REMARK  Name = 
REMARK  8 active torsions:
REMARK  status: ('A' for Active; 'I' for Inactive)
REMARK    1  A    between atoms: C_1  and  C_2
REMARK    2  A    between atoms: C_2  and  C_3
REMARK    3  A    between atoms: C_2  and  C_4
REMARK    4  A    between atoms: N_6  and  C_7
REMARK    5  A    between atoms: N_6  and  C_13
REMARK    6  A    between atoms: N_21  and  C_22
REMARK    7  A    between atoms: C_27  and  C_28
REMARK    8  A    between atoms: C_32  and  C_33
REMARK                            x       y       z     vdW  Elec       q    Type
REMARK                         _______ _______ _______ _____ _____    ______ ____
ROOT
ATOM      1  C   UNL     1       8.749  15.181  19.964  0.00  0.00    +0.000 C 
ATOM      2  C   UNL     1       9.064  16.280  20.981  0.00  0.00    +0.000 C 
ATOM      3  C   UNL     1       7.676  16.338  21.646  0.00  0.00    +0.000 C 
ATOM      4  C   UNL     1       6.644  16.204  20.468  0.00  0.00    +0.000 C 
ATOM      5  C   UNL     1       5.464  15.187  20.780  0.00  0.00    +0.000 C 
ATOM      6  C   UNL     1       4.760  15.530  22.081  0.00  0.00    +0.000 C 
ATOM      7  C   UNL     1       3.349  15.010  22.119  0.00  0.00    +0.000 C 
ATOM      8  C   UNL     1       2.503  15.333  20.882  0.00  0.00    +0.000 C 
ATOM      9  N   UNL     1       2.268  16.829  20.811  0.00  0.00    +0.000 N 
ATOM     10  C   UNL     1       3.330  17.781  20.545  0.00  0.00    +0.000 C 
ATOM     11  C   UNL     1       1.030  17.261  20.383  0.00  0.00    +0.000 C 
ATOM     12  O   UNL     1       0.591  18.427  20.454  0.00  0.00    +0.000 OA
ATOM     13  C   UNL     1       0.325  16.166  19.694  0.00  0.00    +0.000 C 
ATOM     14  C   UNL     1       1.412  15.460  18.849  0.00  0.00    +0.000 C 
ATOM     15  C   UNL     1       2.894  14.769  19.484  0.00  0.00    +0.000 C 
ATOM     16  C   UNL     1       2.834  14.079  18.040  0.00  0.00    +0.000 C 
ATOM     17  C   UNL     1       4.544  14.825  19.512  0.00  0.00    +0.000 C 
ATOM     18  C   UNL     1       5.313  15.230  18.234  0.00  0.00    +0.000 C 
ATOM     19  C   UNL     1       6.770  14.776  18.349  0.00  0.00    +0.000 C 
ATOM     20  C   UNL     1       7.515  15.768  19.225  0.00  0.00    +0.000 C 
ATOM     21  C   UNL     1       7.850  16.976  18.303  0.00  0.00    +0.000 C 
ENDROOT
BRANCH   1  24
ATOM     22  C   UNL     1      11.032  15.045  18.979  0.00  0.00    +0.000 C 
ATOM     23  O   UNL     1      12.061  14.394  18.741  0.00  0.00    +0.000 OA
ATOM     24  N   UNL     1       9.769  14.428  19.223  0.00  0.00    +0.000 N 
BRANCH  24  25
ATOM     25  C   UNL     1       9.689  12.994  19.262  0.00  0.00    +0.000 A 
ATOM     26  C   UNL     1       9.714  12.308  20.488  0.00  0.00    +0.000 A 
ATOM     27  C   UNL     1       9.488  10.935  20.556  0.00  0.00    +0.000 A 
ATOM     28  C   UNL     1       9.250  10.218  19.392  0.00  0.00    +0.000 A 
ATOM     29  C   UNL     1       9.288  10.869  18.154  0.00  0.00    +0.000 A 
ATOM     30  C   UNL     1       9.509  12.256  18.100  0.00  0.00    +0.000 A 
ENDBRANCH  24  25
BRANCH  22  32
ATOM     31  C   UNL     1      12.261  17.143  19.664  0.00  0.00    +0.000 C 
ATOM     32  C   UNL     1      11.113  16.578  18.822  0.00  0.00    +0.000 C 
ATOM     33  C   UNL     1      11.292  16.896  17.337  0.00  0.00    +0.000 C 
ENDBRANCH  22  32
ENDBRANCH   1  24
TORSDOF 3
ENDMDL
MODEL 2
REMARK VINA RESULT:      -6.2      4.717     10.802
REMARK  Name = 
REMARK  8 active torsions:
REMARK  status: ('A' for Active; 'I' for Inactive)
REMARK    1  A    between atoms: C_1  and  C_2
REMARK    2  A    between atoms: C_2  and  C_3
REMARK    3  A    between atoms: C_2  and  C_4
REMARK    4  A    between atoms: N_6  and  C_7
REMARK    5  A    between atoms: N_6  and  C_13
REMARK    6  A    between atoms: N_21  and  C_22
REMARK    7  A    between atoms: C_27  and  C_28
REMARK    8  A    between atoms: C_32  and  C_33
REMARK                            x       y       z     vdW  Elec       q    Type
REMARK                         _______ _______ _______ _____ _____    ______ ____
ROOT
ATOM      1  C   UNL     1      -3.093  14.208  20.771  0.00  0.00    +0.000 C 
ATOM      2  C   UNL     1      -3.497  15.515  21.455  0.00  0.00    +0.000 C 
ATOM      3  C   UNL     1      -2.481  16.432  20.748  0.00  0.00    +0.000 C 
ATOM      4  C   UNL     1      -1.147  15.601  20.680  0.00  0.00    +0.000 C 
ATOM      5  C   UNL     1      -0.438  15.667  19.261  0.00  0.00    +0.000 C 
ATOM      6  C   UNL     1      -0.206  17.100  18.817  0.00  0.00    +0.000 C 
ATOM      7  C   UNL     1       0.928  17.217  17.837  0.00  0.00    +0.000 C 
ATOM      8  C   UNL     1       2.222  16.506  18.250  0.00  0.00    +0.000 C 
ATOM      9  N   UNL     1       2.807  17.196  19.467  0.00  0.00    +0.000 N 
ATOM     10  C   UNL     1       2.171  17.167  20.770  0.00  0.00    +0.000 C 
ATOM     11  C   UNL     1       4.180  17.317  19.533  0.00  0.00    +0.000 C 
ATOM     12  O   UNL     1       4.819  18.022  20.340  0.00  0.00    +0.000 OA
ATOM     13  C   UNL     1       4.814  16.381  18.588  0.00  0.00    +0.000 C 
ATOM     14  C   UNL     1       3.984  15.080  18.697  0.00  0.00    +0.000 C 
ATOM     15  C   UNL     1       2.256  14.959  18.424  0.00  0.00    +0.000 C 
ATOM     16  C   UNL     1       2.684  13.418  18.340  0.00  0.00    +0.000 C 
ATOM     17  C   UNL     1       0.774  14.628  19.073  0.00  0.00    +0.000 C 
ATOM     18  C   UNL     1       0.650  13.547  20.171  0.00  0.00    +0.000 C 
ATOM     19  C   UNL     1      -0.809  13.097  20.281  0.00  0.00    +0.000 C 
ATOM     20  C   UNL     1      -1.573  14.134  21.086  0.00  0.00    +0.000 C 
ATOM     21  C   UNL     1      -1.253  13.832  22.577  0.00  0.00    +0.000 C 
ENDROOT
BRANCH   1  24
ATOM     22  C   UNL     1      -4.821  12.781  21.855  0.00  0.00    +0.000 C 
ATOM     23  O   UNL     1      -5.810  12.035  21.765  0.00  0.00    +0.000 OA
ATOM     24  N   UNL     1      -3.911  12.989  20.777  0.00  0.00    +0.000 N 
BRANCH  24  25
ATOM     25  C   UNL     1      -4.179  12.368  19.510  0.00  0.00    +0.000 A 
ATOM     26  C   UNL     1      -5.375  12.630  18.821  0.00  0.00    +0.000 A 
ATOM     27  C   UNL     1      -5.586  12.159  17.527  0.00  0.00    +0.000 A 
ATOM     28  C   UNL     1      -4.608  11.396  16.904  0.00  0.00    +0.000 A 
ATOM     29  C   UNL     1      -3.437  11.065  17.595  0.00  0.00    +0.000 A 
ATOM     30  C   UNL     1      -3.234  11.554  18.898  0.00  0.00    +0.000 A 
ENDBRANCH  24  25
BRANCH  22  32
ATOM     31  C   UNL     1      -5.717  14.034  23.857  0.00  0.00    +0.000 C 
ATOM     32  C   UNL     1      -4.488  13.347  23.252  0.00  0.00    +0.000 C 
ATOM     33  C   UNL     1      -3.995  12.195  24.129  0.00  0.00    +0.000 C 
ENDBRANCH  22  32
ENDBRANCH   1  24
TORSDOF 3
ENDMDL
MODEL 3
REMARK VINA RESULT:      -6.2      1.054      3.404
REMARK  Name = 
REMARK  8 active torsions:
REMARK  status: ('A' for Active; 'I' for Inactive)
REMARK    1  A    between atoms: C_1  and  C_2
REMARK    2  A    between atoms: C_2  and  C_3
REMARK    3  A    between atoms: C_2  and  C_4
REMARK    4  A    between atoms: N_6  and  C_7
REMARK    5  A    between atoms: N_6  and  C_13
REMARK    6  A    between atoms: N_21  and  C_22
REMARK    7  A    between atoms: C_27  and  C_28
REMARK    8  A    between atoms: C_32  and  C_33
REMARK                            x       y       z     vdW  Elec       q    Type
REMARK                         _______ _______ _______ _____ _____    ______ ____
ROOT
ATOM      1  C   UNL     1       8.940  14.849  20.367  0.00  0.00    +0.000 C 
ATOM      2  C   UNL     1       9.075  15.131  21.864  0.00  0.00    +0.000 C 
ATOM      3  C   UNL     1       7.589  14.959  22.233  0.00  0.00    +0.000 C 
ATOM      4  C   UNL     1       6.788  15.637  21.062  0.00  0.00    +0.000 C 
ATOM      5  C   UNL     1       5.561  14.767  20.555  0.00  0.00    +0.000 C 
ATOM      6  C   UNL     1       4.634  14.387  21.696  0.00  0.00    +0.000 C 
ATOM      7  C   UNL     1       3.235  14.104  21.223  0.00  0.00    +0.000 C 
ATOM      8  C   UNL     1       2.632  15.167  20.296  0.00  0.00    +0.000 C 
ATOM      9  N   UNL     1       2.430  16.453  21.073  0.00  0.00    +0.000 N 
ATOM     10  C   UNL     1       3.533  17.258  21.563  0.00  0.00    +0.000 C 
ATOM     11  C   UNL     1       1.296  17.190  20.802  0.00  0.00    +0.000 C 
ATOM     12  O   UNL     1       0.864  18.150  21.472  0.00  0.00    +0.000 OA
ATOM     13  C   UNL     1       0.719  16.770  19.514  0.00  0.00    +0.000 C 
ATOM     14  C   UNL     1       1.934  16.550  18.583  0.00  0.00    +0.000 C 
ATOM     15  C   UNL     1       3.268  15.456  18.904  0.00  0.00    +0.000 C 
ATOM     16  C   UNL     1       3.465  15.722  17.337  0.00  0.00    +0.000 C 
ATOM     17  C   UNL     1       4.885  15.297  19.196  0.00  0.00    +0.000 C 
ATOM     18  C   UNL     1       5.878  16.265  18.515  0.00  0.00    +0.000 C 
ATOM     19  C   UNL     1       7.285  15.663  18.553  0.00  0.00    +0.000 C 
ATOM     20  C   UNL     1       7.868  15.889  19.937  0.00  0.00    +0.000 C 
ATOM     21  C   UNL     1       8.379  17.358  19.945  0.00  0.00    +0.000 C 
ENDROOT
BRANCH   1  24
ATOM     22  C   UNL     1      10.059  13.308  18.764  0.00  0.00    +0.000 C 
ATOM     23  O   UNL     1      10.717  13.130  17.726  0.00  0.00    +0.000 OA
ATOM     24  N   UNL     1      10.070  14.540  19.482  0.00  0.00    +0.000 N 
BRANCH  24  25
ATOM     25  C   UNL     1      10.816  15.648  18.953  0.00  0.00    +0.000 A 
ATOM     26  C   UNL     1      10.600  16.096  17.640  0.00  0.00    +0.000 A 
ATOM     27  C   UNL     1      11.202  17.258  17.161  0.00  0.00    +0.000 A 
ATOM     28  C   UNL     1      12.050  17.985  17.986  0.00  0.00    +0.000 A 
ATOM     29  C   UNL     1      12.332  17.520  19.276  0.00  0.00    +0.000 A 
ATOM     30  C   UNL     1      11.712  16.351  19.749  0.00  0.00    +0.000 A 
ENDBRANCH  24  25
BRANCH  22  32
ATOM     31  C   UNL     1       9.140  10.999  18.307  0.00  0.00    +0.000 C 
ATOM     32  C   UNL     1       9.356  12.077  19.374  0.00  0.00    +0.000 C 
ATOM     33  C   UNL     1      10.215  11.562  20.531  0.00  0.00    +0.000 C 
ENDBRANCH  22  32
ENDBRANCH   1  24
TORSDOF 3
ENDMDL
MODEL 4
REMARK VINA RESULT:      -6.1      7.419     11.737
REMARK  Name = 
REMARK  8 active torsions:
REMARK  status: ('A' for Active; 'I' for Inactive)
REMARK    1  A    between atoms: C_1  and  C_2
REMARK    2  A    between atoms: C_2  and  C_3
REMARK    3  A    between atoms: C_2  and  C_4
REMARK    4  A    between atoms: N_6  and  C_7
REMARK    5  A    between atoms: N_6  and  C_13
REMARK    6  A    between atoms: N_21  and  C_22
REMARK    7  A    between atoms: C_27  and  C_28
REMARK    8  A    between atoms: C_32  and  C_33
REMARK                            x       y       z     vdW  Elec       q    Type
REMARK                         _______ _______ _______ _____ _____    ______ ____
ROOT
ATOM      1  C   UNL     1      -2.981  14.791  22.449  0.00  0.00    +0.000 C 
ATOM      2  C   UNL     1      -2.757  15.899  21.419  0.00  0.00    +0.000 C 
ATOM      3  C   UNL     1      -2.407  14.992  20.224  0.00  0.00    +0.000 C 
ATOM      4  C   UNL     1      -1.499  13.853  20.819  0.00  0.00    +0.000 C 
ATOM      5  C   UNL     1      -1.896  12.403  20.309  0.00  0.00    +0.000 C 
ATOM      6  C   UNL     1      -1.930  12.333  18.792  0.00  0.00    +0.000 C 
ATOM      7  C   UNL     1      -1.718  10.934  18.282  0.00  0.00    +0.000 C 
ATOM      8  C   UNL     1      -0.515  10.197  18.885  0.00  0.00    +0.000 C 
ATOM      9  N   UNL     1       0.765  10.876  18.438  0.00  0.00    +0.000 N 
ATOM     10  C   UNL     1       1.143  12.206  18.874  0.00  0.00    +0.000 C 
ATOM     11  C   UNL     1       1.845  10.070  18.146  0.00  0.00    +0.000 C 
ATOM     12  O   UNL     1       2.898  10.425  17.578  0.00  0.00    +0.000 OA
ATOM     13  C   UNL     1       1.645   8.730  18.724  0.00  0.00    +0.000 C 
ATOM     14  C   UNL     1       1.018   8.984  20.115  0.00  0.00    +0.000 C 
ATOM     15  C   UNL     1      -0.466   9.872  20.407  0.00  0.00    +0.000 C 
ATOM     16  C   UNL     1      -0.290   9.111  21.805  0.00  0.00    +0.000 C 
ATOM     17  C   UNL     1      -1.171  11.200  21.090  0.00  0.00    +0.000 C 
ATOM     18  C   UNL     1      -0.605  11.764  22.413  0.00  0.00    +0.000 C 
ATOM     19  C   UNL     1      -1.654  12.661  23.076  0.00  0.00    +0.000 C 
ATOM     20  C   UNL     1      -1.637  14.013  22.384  0.00  0.00    +0.000 C 
ATOM     21  C   UNL     1      -0.433  14.785  22.995  0.00  0.00    +0.000 C 
ENDROOT
BRANCH   1  24
ATOM     22  C   UNL     1      -3.413  16.187  24.464  0.00  0.00    +0.000 C 
ATOM     23  O   UNL     1      -4.202  16.631  25.314  0.00  0.00    +0.000 OA
ATOM     24  N   UNL     1      -3.662  14.987  23.735  0.00  0.00    +0.000 N 
BRANCH  24  25
ATOM     25  C   UNL     1      -4.904  14.293  23.936  0.00  0.00    +0.000 A 
ATOM     26  C   UNL     1      -6.129  14.924  23.665  0.00  0.00    +0.000 A 
ATOM     27  C   UNL     1      -7.333  14.223  23.710  0.00  0.00    +0.000 A 
ATOM     28  C   UNL     1      -7.332  12.876  24.046  0.00  0.00    +0.000 A 
ATOM     29  C   UNL     1      -6.131  12.244  24.386  0.00  0.00    +0.000 A 
ATOM     30  C   UNL     1      -4.924  12.961  24.329  0.00  0.00    +0.000 A 
ENDBRANCH  24  25
BRANCH  22  32
ATOM     31  C   UNL     1      -2.210  18.324  23.856  0.00  0.00    +0.000 C 
ATOM     32  C   UNL     1      -2.040  16.881  24.343  0.00  0.00    +0.000 C 
ATOM     33  C   UNL     1      -1.355  16.822  25.710  0.00  0.00    +0.000 C 
ENDBRANCH  22  32
ENDBRANCH   1  24
TORSDOF 3
ENDMDL
MODEL 5
REMARK VINA RESULT:      -6.0      5.468      8.752
REMARK  Name = 
REMARK  8 active torsions:
REMARK  status: ('A' for Active; 'I' for Inactive)
REMARK    1  A    between atoms: C_1  and  C_2
REMARK    2  A    between atoms: C_2  and  C_3
REMARK    3  A    between atoms: C_2  and  C_4
REMARK    4  A    between atoms: N_6  and  C_7
REMARK    5  A    between atoms: N_6  and  C_13
REMARK    6  A    between atoms: N_21  and  C_22
REMARK    7  A    between atoms: C_27  and  C_28
REMARK    8  A    between atoms: C_32  and  C_33
REMARK                            x       y       z     vdW  Elec       q    Type
REMARK                         _______ _______ _______ _____ _____    ______ ____
ROOT
ATOM      1  C   UNL     1       0.351  13.996  21.074  0.00  0.00    +0.000 C 
ATOM      2  C   UNL     1       0.744  15.077  22.082  0.00  0.00    +0.000 C 
ATOM      3  C   UNL     1      -0.423  14.864  23.066  0.00  0.00    +0.000 C 
ATOM      4  C   UNL     1      -1.688  14.620  22.164  0.00  0.00    +0.000 C 
ATOM      5  C   UNL     1      -2.583  13.403  22.655  0.00  0.00    +0.000 C 
ATOM      6  C   UNL     1      -2.978  13.552  24.113  0.00  0.00    +0.000 C 
ATOM      7  C   UNL     1      -4.238  12.800  24.441  0.00  0.00    +0.000 C 
ATOM      8  C   UNL     1      -5.409  13.040  23.481  0.00  0.00    +0.000 C 
ATOM      9  N   UNL     1      -5.877  14.477  23.609  0.00  0.00    +0.000 N 
ATOM     10  C   UNL     1      -5.073  15.607  23.186  0.00  0.00    +0.000 C 
ATOM     11  C   UNL     1      -7.233  14.715  23.535  0.00  0.00    +0.000 C 
ATOM     12  O   UNL     1      -7.811  15.784  23.818  0.00  0.00    +0.000 OA
ATOM     13  C   UNL     1      -7.916  13.554  22.937  0.00  0.00    +0.000 C 
ATOM     14  C   UNL     1      -6.985  13.088  21.793  0.00  0.00    +0.000 C 
ATOM     15  C   UNL     1      -5.304  12.625  21.984  0.00  0.00    +0.000 C 
ATOM     16  C   UNL     1      -5.623  12.013  20.539  0.00  0.00    +0.000 C 
ATOM     17  C   UNL     1      -3.728  12.958  21.618  0.00  0.00    +0.000 C 
ATOM     18  C   UNL     1      -3.379  13.555  20.236  0.00  0.00    +0.000 C 
ATOM     19  C   UNL     1      -1.889  13.349  19.953  0.00  0.00    +0.000 C 
ATOM     20  C   UNL     1      -1.104  14.405  20.712  0.00  0.00    +0.000 C 
ATOM     21  C   UNL     1      -1.199  15.699  19.854  0.00  0.00    +0.000 C 
ENDROOT
BRANCH   1  24
ATOM     22  C   UNL     1       2.397  14.233  19.676  0.00  0.00    +0.000 C 
ATOM     23  O   UNL     1       3.400  13.728  19.146  0.00  0.00    +0.000 OA
ATOM     24  N   UNL     1       1.250  13.468  20.041  0.00  0.00    +0.000 N 
BRANCH  24  25
ATOM     25  C   UNL     1       1.275  12.044  19.853  0.00  0.00    +0.000 A 
ATOM     26  C   UNL     1       0.948  11.175  20.908  0.00  0.00    +0.000 A 
ATOM     27  C   UNL     1       0.820   9.802  20.705  0.00  0.00    +0.000 A 
ATOM     28  C   UNL     1       1.035   9.270  19.441  0.00  0.00    +0.000 A 
ATOM     29  C   UNL     1       1.427  10.108  18.391  0.00  0.00    +0.000 A 
ATOM     30  C   UNL     1       1.545  11.492  18.608  0.00  0.00    +0.000 A 
ENDBRANCH  24  25
BRANCH  22  32
ATOM     31  C   UNL     1       3.665  16.322  20.320  0.00  0.00    +0.000 C 
ATOM     32  C   UNL     1       2.345  15.773  19.767  0.00  0.00    +0.000 C 
ATOM     33  C   UNL     1       2.045  16.322  18.371  0.00  0.00    +0.000 C 
ENDBRANCH  22  32
ENDBRANCH   1  24
TORSDOF 3
ENDMDL
MODEL 6
REMARK VINA RESULT:      -6.0      6.830     11.609
REMARK  Name = 
REMARK  8 active torsions:
REMARK  status: ('A' for Active; 'I' for Inactive)
REMARK    1  A    between atoms: C_1  and  C_2
REMARK    2  A    between atoms: C_2  and  C_3
REMARK    3  A    between atoms: C_2  and  C_4
REMARK    4  A    between atoms: N_6  and  C_7
REMARK    5  A    between atoms: N_6  and  C_13
REMARK    6  A    between atoms: N_21  and  C_22
REMARK    7  A    between atoms: C_27  and  C_28
REMARK    8  A    between atoms: C_32  and  C_33
REMARK                            x       y       z     vdW  Elec       q    Type
REMARK                         _______ _______ _______ _____ _____    ______ ____
ROOT
ATOM      1  C   UNL     1      -3.227  14.518  23.516  0.00  0.00    +0.000 C 
ATOM      2  C   UNL     1      -4.267  13.404  23.646  0.00  0.00    +0.000 C 
ATOM      3  C   UNL     1      -3.351  12.230  23.249  0.00  0.00    +0.000 C 
ATOM      4  C   UNL     1      -2.473  12.772  22.062  0.00  0.00    +0.000 C 
ATOM      5  C   UNL     1      -0.935  12.403  22.201  0.00  0.00    +0.000 C 
ATOM      6  C   UNL     1      -0.731  10.910  22.388  0.00  0.00    +0.000 C 
ATOM      7  C   UNL     1       0.634  10.462  21.945  0.00  0.00    +0.000 C 
ATOM      8  C   UNL     1       1.061  10.950  20.555  0.00  0.00    +0.000 C 
ATOM      9  N   UNL     1       0.179  10.305  19.504  0.00  0.00    +0.000 N 
ATOM     10  C   UNL     1      -1.232  10.609  19.367  0.00  0.00    +0.000 C 
ATOM     11  C   UNL     1       0.773   9.927  18.318  0.00  0.00    +0.000 C 
ATOM     12  O   UNL     1       0.262   9.210  17.434  0.00  0.00    +0.000 OA
ATOM     13  C   UNL     1       2.072  10.605  18.167  0.00  0.00    +0.000 C 
ATOM     14  C   UNL     1       1.833  12.046  18.674  0.00  0.00    +0.000 C 
ATOM     15  C   UNL     1       1.239  12.470  20.270  0.00  0.00    +0.000 C 
ATOM     16  C   UNL     1       1.829  13.878  19.783  0.00  0.00    +0.000 C 
ATOM     17  C   UNL     1       0.028  13.157  21.156  0.00  0.00    +0.000 C 
ATOM     18  C   UNL     1      -0.748  14.362  20.577  0.00  0.00    +0.000 C 
ATOM     19  C   UNL     1      -1.468  15.097  21.710  0.00  0.00    +0.000 C 
ATOM     20  C   UNL     1      -2.733  14.330  22.055  0.00  0.00    +0.000 C 
ATOM     21  C   UNL     1      -3.780  14.736  20.978  0.00  0.00    +0.000 C 
ENDROOT
BRANCH   1  24
ATOM     22  C   UNL     1      -4.709  16.385  24.234  0.00  0.00    +0.000 C 
ATOM     23  O   UNL     1      -4.980  17.294  25.036  0.00  0.00    +0.000 OA
ATOM     24  N   UNL     1      -3.390  15.866  24.075  0.00  0.00    +0.000 N 
BRANCH  24  25
ATOM     25  C   UNL     1      -2.339  16.361  24.920  0.00  0.00    +0.000 A 
ATOM     26  C   UNL     1      -1.808  15.563  25.946  0.00  0.00    +0.000 A 
ATOM     27  C   UNL     1      -0.691  15.966  26.676  0.00  0.00    +0.000 A 
ATOM     28  C   UNL     1      -0.095  17.190  26.402  0.00  0.00    +0.000 A 
ATOM     29  C   UNL     1      -0.648  18.031  25.430  0.00  0.00    +0.000 A 
ATOM     30  C   UNL     1      -1.770  17.608  24.697  0.00  0.00    +0.000 A 
ENDBRANCH  24  25
BRANCH  22  32
ATOM     31  C   UNL     1      -7.048  15.450  24.037  0.00  0.00    +0.000 C 
ATOM     32  C   UNL     1      -5.823  15.946  23.261  0.00  0.00    +0.000 C 
ATOM     33  C   UNL     1      -6.166  17.135  22.362  0.00  0.00    +0.000 C 
ENDBRANCH  22  32
ENDBRANCH   1  24
TORSDOF 3
ENDMDL
MODEL 7
REMARK VINA RESULT:      -6.0      1.387      3.407
REMARK  Name = 
REMARK  8 active torsions:
REMARK  status: ('A' for Active; 'I' for Inactive)
REMARK    1  A    between atoms: C_1  and  C_2
REMARK    2  A    between atoms: C_2  and  C_3
REMARK    3  A    between atoms: C_2  and  C_4
REMARK    4  A    between atoms: N_6  and  C_7
REMARK    5  A    between atoms: N_6  and  C_13
REMARK    6  A    between atoms: N_21  and  C_22
REMARK    7  A    between atoms: C_27  and  C_28
REMARK    8  A    between atoms: C_32  and  C_33
REMARK                            x       y       z     vdW  Elec       q    Type
REMARK                         _______ _______ _______ _____ _____    ______ ____
ROOT
ATOM      1  C   UNL     1       8.159  14.793  20.350  0.00  0.00    +0.000 C 
ATOM      2  C   UNL     1       8.062  14.573  21.861  0.00  0.00    +0.000 C 
ATOM      3  C   UNL     1       6.539  14.349  21.931  0.00  0.00    +0.000 C 
ATOM      4  C   UNL     1       5.918  15.397  20.937  0.00  0.00    +0.000 C 
ATOM      5  C   UNL     1       4.793  14.784  20.000  0.00  0.00    +0.000 C 
ATOM      6  C   UNL     1       3.707  14.093  20.806  0.00  0.00    +0.000 C 
ATOM      7  C   UNL     1       2.400  14.030  20.066  0.00  0.00    +0.000 C 
ATOM      8  C   UNL     1       1.933  15.357  19.455  0.00  0.00    +0.000 C 
ATOM      9  N   UNL     1       1.600  16.332  20.567  0.00  0.00    +0.000 N 
ATOM     10  C   UNL     1       2.605  16.893  21.449  0.00  0.00    +0.000 C 
ATOM     11  C   UNL     1       0.511  17.159  20.386  0.00  0.00    +0.000 C 
ATOM     12  O   UNL     1      -0.030  17.869  21.258  0.00  0.00    +0.000 OA
ATOM     13  C   UNL     1       0.141  17.199  18.960  0.00  0.00    +0.000 C 
ATOM     14  C   UNL     1       1.487  17.244  18.198  0.00  0.00    +0.000 C 
ATOM     15  C   UNL     1       2.769  16.055  18.342  0.00  0.00    +0.000 C 
ATOM     16  C   UNL     1       3.200  16.802  16.992  0.00  0.00    +0.000 C 
ATOM     17  C   UNL     1       4.325  15.748  18.801  0.00  0.00    +0.000 C 
ATOM     18  C   UNL     1       5.399  16.846  18.626  0.00  0.00    +0.000 C 
ATOM     19  C   UNL     1       6.791  16.210  18.674  0.00  0.00    +0.000 C 
ATOM     20  C   UNL     1       7.153  15.956  20.127  0.00  0.00    +0.000 C 
ATOM     21  C   UNL     1       7.639  17.324  20.686  0.00  0.00    +0.000 C 
ENDROOT
BRANCH   1  24
ATOM     22  C   UNL     1       9.465  13.951  18.405  0.00  0.00    +0.000 C 
ATOM     23  O   UNL     1      10.293  14.147  17.502  0.00  0.00    +0.000 OA
ATOM     24  N   UNL     1       9.414  14.742  19.590  0.00  0.00    +0.000 N 
BRANCH  24  25
ATOM     25  C   UNL     1      10.311  15.857  19.722  0.00  0.00    +0.000 A 
ATOM     26  C   UNL     1      11.178  15.953  20.823  0.00  0.00    +0.000 A 
ATOM     27  C   UNL     1      12.157  16.943  20.892  0.00  0.00    +0.000 A 
ATOM     28  C   UNL     1      12.273  17.870  19.864  0.00  0.00    +0.000 A 
ATOM     29  C   UNL     1      11.376  17.834  18.791  0.00  0.00    +0.000 A 
ATOM     30  C   UNL     1      10.399  16.825  18.730  0.00  0.00    +0.000 A 
ENDBRANCH  24  25
BRANCH  22  32
ATOM     31  C   UNL     1       7.640  12.791  17.098  0.00  0.00    +0.000 C 
ATOM     32  C   UNL     1       8.588  12.685  18.297  0.00  0.00    +0.000 C 
ATOM     33  C   UNL     1       9.513  11.473  18.181  0.00  0.00    +0.000 C 
ENDBRANCH  22  32
ENDBRANCH   1  24
TORSDOF 3
ENDMDL
MODEL 8
REMARK VINA RESULT:      -5.9      7.383     10.035
REMARK  Name = 
REMARK  8 active torsions:
REMARK  status: ('A' for Active; 'I' for Inactive)
REMARK    1  A    between atoms: C_1  and  C_2
REMARK    2  A    between atoms: C_2  and  C_3
REMARK    3  A    between atoms: C_2  and  C_4
REMARK    4  A    between atoms: N_6  and  C_7
REMARK    5  A    between atoms: N_6  and  C_13
REMARK    6  A    between atoms: N_21  and  C_22
REMARK    7  A    between atoms: C_27  and  C_28
REMARK    8  A    between atoms: C_32  and  C_33
REMARK                            x       y       z     vdW  Elec       q    Type
REMARK                         _______ _______ _______ _____ _____    ______ ____
ROOT
ATOM      1  C   UNL     1      -1.111  11.322  20.202  0.00  0.00    +0.000 C 
ATOM      2  C   UNL     1      -0.439  10.489  21.295  0.00  0.00    +0.000 C 
ATOM      3  C   UNL     1      -1.123  11.158  22.503  0.00  0.00    +0.000 C 
ATOM      4  C   UNL     1      -1.155  12.694  22.164  0.00  0.00    +0.000 C 
ATOM      5  C   UNL     1      -2.556  13.375  22.473  0.00  0.00    +0.000 C 
ATOM      6  C   UNL     1      -2.997  13.126  23.904  0.00  0.00    +0.000 C 
ATOM      7  C   UNL     1      -3.948  14.180  24.398  0.00  0.00    +0.000 C 
ATOM      8  C   UNL     1      -3.501  15.627  24.157  0.00  0.00    +0.000 C 
ATOM      9  N   UNL     1      -2.271  15.918  24.995  0.00  0.00    +0.000 N 
ATOM     10  C   UNL     1      -0.985  15.297  24.747  0.00  0.00    +0.000 C 
ATOM     11  C   UNL     1      -2.171  17.170  25.567  0.00  0.00    +0.000 C 
ATOM     12  O   UNL     1      -1.349  17.518  26.439  0.00  0.00    +0.000 OA
ATOM     13  C   UNL     1      -3.097  18.102  24.902  0.00  0.00    +0.000 C 
ATOM     14  C   UNL     1      -3.007  17.752  23.398  0.00  0.00    +0.000 C 
ATOM     15  C   UNL     1      -3.323  16.170  22.709  0.00  0.00    +0.000 C 
ATOM     16  C   UNL     1      -3.394  17.090  21.399  0.00  0.00    +0.000 C 
ATOM     17  C   UNL     1      -2.711  14.868  21.898  0.00  0.00    +0.000 C 
ATOM     18  C   UNL     1      -1.615  15.085  20.831  0.00  0.00    +0.000 C 
ATOM     19  C   UNL     1      -1.541  13.857  19.919  0.00  0.00    +0.000 C 
ATOM     20  C   UNL     1      -0.758  12.772  20.638  0.00  0.00    +0.000 C 
ATOM     21  C   UNL     1       0.742  13.138  20.449  0.00  0.00    +0.000 C 
ENDROOT
BRANCH   1  24
ATOM     22  C   UNL     1      -0.134  10.051  18.298  0.00  0.00    +0.000 C 
ATOM     23  O   UNL     1      -0.285   9.381  17.263  0.00  0.00    +0.000 OA
ATOM     24  N   UNL     1      -1.123  10.958  18.780  0.00  0.00    +0.000 N 
BRANCH  24  25
ATOM     25  C   UNL     1      -2.376  11.057  18.084  0.00  0.00    +0.000 A 
ATOM     26  C   UNL     1      -3.567  11.310  18.784  0.00  0.00    +0.000 A 
ATOM     27  C   UNL     1      -4.764  11.558  18.116  0.00  0.00    +0.000 A 
ATOM     28  C   UNL     1      -4.794  11.540  16.728  0.00  0.00    +0.000 A 
ATOM     29  C   UNL     1      -3.635  11.224  16.011  0.00  0.00    +0.000 A 
ATOM     30  C   UNL     1      -2.432  10.983  16.698  0.00  0.00    +0.000 A 
ENDBRANCH  24  25
BRANCH  22  32
ATOM     31  C   UNL     1       1.778   8.576  19.040  0.00  0.00    +0.000 C 
ATOM     32  C   UNL     1       1.256  10.015  18.966  0.00  0.00    +0.000 C 
ATOM     33  C   UNL     1       2.195  10.915  18.161  0.00  0.00    +0.000 C 
ENDBRANCH  22  32
ENDBRANCH   1  24
TORSDOF 3
ENDMDL
MODEL 9
REMARK VINA RESULT:      -5.9      3.965      5.390
REMARK  Name = 
REMARK  8 active torsions:
REMARK  status: ('A' for Active; 'I' for Inactive)
REMARK    1  A    between atoms: C_1  and  C_2
REMARK    2  A    between atoms: C_2  and  C_3
REMARK    3  A    between atoms: C_2  and  C_4
REMARK    4  A    between atoms: N_6  and  C_7
REMARK    5  A    between atoms: N_6  and  C_13
REMARK    6  A    between atoms: N_21  and  C_22
REMARK    7  A    between atoms: C_27  and  C_28
REMARK    8  A    between atoms: C_32  and  C_33
REMARK                            x       y       z     vdW  Elec       q    Type
REMARK                         _______ _______ _______ _____ _____    ______ ____
ROOT
ATOM      1  C   UNL     1       9.297  15.576  21.196  0.00  0.00    +0.000 C 
ATOM      2  C   UNL     1       9.605  16.979  21.724  0.00  0.00    +0.000 C 
ATOM      3  C   UNL     1       9.513  16.650  23.226  0.00  0.00    +0.000 C 
ATOM      4  C   UNL     1       8.285  15.676  23.364  0.00  0.00    +0.000 C 
ATOM      5  C   UNL     1       8.579  14.425  24.297  0.00  0.00    +0.000 C 
ATOM      6  C   UNL     1       9.088  14.852  25.662  0.00  0.00    +0.000 C 
ATOM      7  C   UNL     1       8.821  13.815  26.719  0.00  0.00    +0.000 C 
ATOM      8  C   UNL     1       7.384  13.282  26.760  0.00  0.00    +0.000 C 
ATOM      9  N   UNL     1       6.448  14.395  27.190  0.00  0.00    +0.000 N 
ATOM     10  C   UNL     1       6.176  15.557  26.366  0.00  0.00    +0.000 C 
ATOM     11  C   UNL     1       5.401  14.061  28.023  0.00  0.00    +0.000 C 
ATOM     12  O   UNL     1       4.662  14.859  28.635  0.00  0.00    +0.000 OA
ATOM     13  C   UNL     1       5.178  12.605  27.994  0.00  0.00    +0.000 C 
ATOM     14  C   UNL     1       5.356  12.203  26.511  0.00  0.00    +0.000 C 
ATOM     15  C   UNL     1       6.794  12.501  25.549  0.00  0.00    +0.000 C 
ATOM     16  C   UNL     1       6.052  11.401  24.652  0.00  0.00    +0.000 C 
ATOM     17  C   UNL     1       7.451  13.280  24.251  0.00  0.00    +0.000 C 
ATOM     18  C   UNL     1       6.591  13.509  22.987  0.00  0.00    +0.000 C 
ATOM     19  C   UNL     1       7.504  13.812  21.796  0.00  0.00    +0.000 C 
ATOM     20  C   UNL     1       7.936  15.265  21.879  0.00  0.00    +0.000 C 
ATOM     21  C   UNL     1       6.746  16.093  21.316  0.00  0.00    +0.000 C 
ENDROOT
BRANCH   1  24
ATOM     22  C   UNL     1       9.803  16.134  18.823  0.00  0.00    +0.000 C 
ATOM     23  O   UNL     1      10.407  15.887  17.767  0.00  0.00    +0.000 OA
ATOM     24  N   UNL     1       9.550  15.142  19.817  0.00  0.00    +0.000 N 
BRANCH  24  25
ATOM     25  C   UNL     1      10.072  13.817  19.627  0.00  0.00    +0.000 A 
ATOM     26  C   UNL     1       9.418  12.903  18.783  0.00  0.00    +0.000 A 
ATOM     27  C   UNL     1       9.987  11.670  18.469  0.00  0.00    +0.000 A 
ATOM     28  C   UNL     1      11.216  11.321  19.011  0.00  0.00    +0.000 A 
ATOM     29  C   UNL     1      11.853  12.187  19.907  0.00  0.00    +0.000 A 
ATOM     30  C   UNL     1      11.272  13.431  20.209  0.00  0.00    +0.000 A 
ENDBRANCH  24  25
BRANCH  22  32
ATOM     31  C   UNL     1      10.004  18.584  18.240  0.00  0.00    +0.000 C 
ATOM     32  C   UNL     1       9.155  17.528  18.957  0.00  0.00    +0.000 C 
ATOM     33  C   UNL     1       7.740  17.454  18.381  0.00  0.00    +0.000 C 
ENDBRANCH  22  32
ENDBRANCH   1  24
TORSDOF 3
ENDMDL
